data_image0
_chemical_formula_structural       C2FeH3SHCFeSFeSFeSFeS3H2SFeS2CH2CHFeS2FeS2FeHFeS3FeS2FeS2FeSFeS2C7H4C6H6CSHFeH3CHC6H3C7H8C7H8CH3CHCH9SNC7H16NC2H2CH4C2HCNCH5CH5N2C2HCHC2SH2SH5CHCH3CSC2NC6H2CH11CHC2H2FeSHC2SHCH4CH2CH6CSC2H2NC3HCH12CH2CHCH3SHCH3CH9C2HCHCFeH5CH3NSCHSH3C2H3CH2C2HCH3FeSHFeSFeSFeHSFeS2FeS2FeHFeS3HCFeS2FeSCFeSFeS3FeS2FeS2FeSFeS3HC3HCHC2H3C6H4C3H2CH2CH5CH2C6H7C6H4C6H11CSH11CH6CH2CH3NC2HC3H3CH3CH3NC4HC2HCNH4CHC2H6C2HSHCH2NHNC7H20CHC2HCH2CHCHSCHCHCH4SCH6CH4CH2C2H3CH2CH2CH3NCH2CH5CSCH3C2HCH6CHCH2CHCHC2HC5HNC3H3C2H4CH5CH2C2FeS2FeS2FeCFeS3FeS2FeS2FeHFeS3FeS2FeS2FeHFeS3FeSCFeSHFeHFeS2H3NH2CHC6H4C3HCH4C6H12C2H2C6H4C2H2C6H5C2H2C3H5NC4HC3HCH19CNC2HCHCNCH3CH6CNCH2C2H5CH8C3H3CH2CHCSHC2HC2H11CH7CSCH8CNC2H3CH3C2H6NC7H15C2HCH2SH3NHC2HCH3NH3CH2C3HCHCH7NH2CH3C2NSC3HCHSHCHSC2HC2HCHFeS2HSHCHFeS2FeS2FeSFeS3H2SFeS2FeS2FeSFeS2FeS2FeS2FeSFeS3H2CFeH6FeS2C2NHFeHNHCH3C6H7C6H4C7H3CHC6H4CH2C4HSH2CHCHC4HCH2CHC5H2NC8H21NHC3HCHC3H3CHCH2CH11CH5FeCH2C2HNSH9C2H5FeH2S2HCH3C2FeH5C3NCHC4H14CNC8H20NC2FeHC3H3SH11CH2FeH2NC8H8C2SH3SH3CH2CH2C2S2CH6CSH3CSCH2CH2C2HC2HFeHCHCH7C3H2SH6CSHFeH4Fe2S2HC2H2SHFeS2H2CS2HCHCHSC2SH4C6H4CH2C2H3NH3FeCH3CHCHCH2CH2CH4NCSH3C3SHFeHCH4C7HNH2C2H4CHCHCH5CHFeCH3FeSH5FeCHSHCHSCHCH4SHFeS2FeS2FeSFeS3FeS2FeSHFeSFeS3C2H4C2H2C3HCHC7H4NC2SC3HC4H7C2H3CHCHCHCH3C2H2CHNC3HCNCH2CH2CH2CHNH7CH5CH4CH2C2H5SH4NH3C3HC3H2CNH2CH2CH2C2HCH6CHC5H5CH3C2H2CHC2NH2C2HC2HCHC2H3C2HC2H3C2HCH3CH3SH3C2H6SH2C2HCH4NCH6NHCHCH3FeS2FeS2FeSFeS3FeS2FeSHFeSFeS3H3SHC2HCH2C2H4C2H4C6H4C3H3C3H2C4HCH2C6H3C2HSCHCH4SCH2CNC5HCH3SC2HCNHC6SH2SCH2CHCH2CHCH4C2NC8H21CHCNCHCH13C2H5CH2CHC2HNHCHCH3SC3HC2H6CH9CHCHSH5C2HCH5FeS2Fe2SHSFeS2FeS2FeSFeS3FeS2Fe2SHCFeS2FeS2FeSFeHS2FeS2HCFeH2SHC2HC3H4C4H4C6H4CHC6H2C6H4C6HSH2C3H2C2H3CNHC3H3C2H4CHCNCHC3H6CSC3H5C2H2CH2CH3C2H5NC8H20NC6FeH9CH2CH3CNH4NH5SCH2CH6CH4C2HCH7CH2C2SH2CH7CH2CH2CHCH4CSH2C2FeNHCH3CHCHCHSC2H3CH4FeSFeS2Fe2S2NS2FeSHSFeSFeHSFeS3CHC3HCHC8H4C6H4CH3CH3C6H3C2H2CH2CH3CH4C4HCHCSHC2H2CSH5CH2SCH2CH2CSCH3CHC3H3SHNH2C3HC2H3NCH2CH2NCHC3H2SH3NH3NC8H23C3H2CH2C2HC3HCHCSHC2H4CSHC2HCH3CHCFeC2H2CH2FeHCNH2SH4CHCH2SH3CHCHCH9C2H4SCH4C2H3FeH3SHCSH2SHFeHFeSHFeSFeSFeS2FeS2FeSFeH2S2HCH2C6H4C7HC6HCHC6H2NSH5NC8H19C2H2CSHCFeCHCH4CH2CH3C2HCH2NC8H20C2H4C3HC2H2NSHCH2SHNH2CHCH2CSH4CH9C2H3CH3CHSH5CH7CH2CHCHCHCH5SFeSFeSFeS2FeSFeSFeSFeHSHSC6H4CSC4H4C6H4C4HCH5C5SHCH3CHCH3C2HC2H3CH9CH4C2HCHSH2CHCH3C2H7CSNH4CH2CHNC8H21CH4C2HNHCH3CH6CH3CNHFeH2C2H2CH6CHCH3CHCHS2H4CHSCSH3C2H3C2H3CSHSCFeCSCHC2SC2SC2HCH3CFeH4C6HCH3CH3CHNH4Fe2H4SH3CH3SH5CHC2H6S2H2Fe2SCHSFeSFeSFeHFeS2HCHCH4FeSCFeS2FeHFeSFeS3FeS2FeS2FeSFeS3C6H5C6H4NHC3H2C6H4C6H5CHC6H5CH2CH2C2H3CHCH3CH4CH3SH4CH2CHCSHSH3C4H10NH2SHCSCH4NCH16CH2C3H2CH2SHC3H3CH2CHC2HNHCNC2H4CHC2H4CHC2HC2H2CSH7NH3CH3CHCH5CH2CH2CH3SCH7CHC3SH4SCSHCH3C2H7SFeHCHC2H2NCHFeCH3C2H2CH3FeS2FeS2FeNFeS3FeSH2SFeCFeS3HFeS2FeS2FeSFeS3FeSHFeSHFeSFeS3HCH2C3H2C6H6CH3C2H2C2HCH3C6H4C6H5C8H6C4H2SCH8CHNC8H24CH4CHCHCSCSH3C2HCHCHCH2CHCH3C2HC2H4FeH3CHCH2C3HCH2CHNCH3CH5C3HCH4CH3C3H8SCH2CH3NC8H22C3H7CHCNHCH6CH2CSC3NH5NHC2HCHCHFeS2FeS2FeSFeS3FeS2FeS2FeSFeS3CSH2SHFeCFeS2FeS2FeS2FeHFeS3H2CHSH2C10H8CSH4CH4CH2C7H4C6H4CHC2HC6H8C2HNH2CH2CH4CH4CHCHC3H3C2FeH3NC4H15C4H3CH7CH5C2HNCHC3HCH8CH4CH4CHC2H4C2HCH6CHCHNC8H12NHCH5N2SHCH3CH2CH3CHCHCHCH3CH6CH2NHCH10NFeCHCHC2H4C3H3C2HNH3CH4C3H4FeS2HSFeS2FeSCFeSFeS3H2SFeS2FeS3FeS3FeS2FeS2FeSFeS4HCH2SHFeSHCHCHFeS2C2H2CH3C9H4C6H6C7SH3C6H8C2HCNCHCHC6H4C5H2NC8H21CHSNCH3CNC8H23CHC2H2CHCH2CH2CFeCH3C2HSC2HNC2FeH7CHCH2SHCFeHC2H5CH4SHFeCHCH8CH3CH2CH2CH6SC3H3C2H2CH4NC2H2CHC2H3C2NH2CH2C2H5SC2H2CHFeH3C3NH4CFeH6CHCFeH3CHSHCH5
_chemical_formula_sum              "C1512 Fe216 H2592 S432 N108"
_cell_length_a       48.4863
_cell_length_b       48.0727
_cell_length_c       112.871
_cell_angle_alpha    91.0796
_cell_angle_beta     90.8165
_cell_angle_gamma    114.218

_space_group_name_H-M_alt    "P 1"
_space_group_IT_number       1

loop_
  _space_group_symop_operation_xyz
  'x, y, z'

loop_
  _atom_site_type_symbol
  _atom_site_label
  _atom_site_symmetry_multiplicity
  _atom_site_fract_x
  _atom_site_fract_y
  _atom_site_fract_z
  _atom_site_occupancy
  C   C1        1.0  0.10896  0.24165  0.96257  1.0000
  C   C2        1.0  0.35512  0.37959  0.04459  1.0000
  Fe  Fe1       1.0  0.96645  0.22921  0.97577  1.0000
  H   H1        1.0  0.21873  0.26964  0.19658  1.0000
  H   H2        1.0  0.34617  0.10230  0.14270  1.0000
  H   H3        1.0  0.39954  0.23147  0.09087  1.0000
  S   S1        1.0  0.31095  0.26689  0.97840  1.0000
  H   H4        1.0  0.01127  0.33020  0.09923  1.0000
  C   C3        1.0  0.32923  0.11684  0.09148  1.0000
  Fe  Fe2       1.0  0.35074  0.02058  0.05672  1.0000
  S   S2        1.0  0.40095  0.04998  0.05744  1.0000
  Fe  Fe3       1.0  0.34963  0.00856  0.08397  1.0000
  S   S3        1.0  0.39980  0.03645  0.08631  1.0000
  Fe  Fe4       1.0  0.39238  0.07000  0.07442  1.0000
  S   S4        1.0  0.41568  0.11960  0.08046  1.0000
  Fe  Fe5       1.0  0.40517  0.01443  0.06921  1.0000
  S   S5        1.0  0.34222  0.04377  0.07304  1.0000
  S   S6        1.0  0.29760  0.99425  0.18643  1.0000
  S   S7        1.0  0.25192  0.03986  0.19500  1.0000
  H   H5        1.0  0.17898  0.21963  0.19917  1.0000
  H   H6        1.0  0.09433  0.25391  0.00164  1.0000
  S   S8        1.0  0.35500  0.98342  0.06754  1.0000
  Fe  Fe6       1.0  0.99872  0.20463  0.18036  1.0000
  S   S9        1.0  0.00165  0.25269  0.18257  1.0000
  S   S10       1.0  0.03716  0.18817  0.18041  1.0000
  C   C4        1.0  0.97345  0.34337  0.10272  1.0000
  H   H7        1.0  0.10832  0.99580  0.18481  1.0000
  H   H8        1.0  0.34338  0.97959  0.02674  1.0000
  C   C5        1.0  0.31409  0.98475  0.11407  1.0000
  H   H9        1.0  0.15392  0.25578  0.20002  1.0000
  Fe  Fe7       1.0  0.34820  0.28739  0.04938  1.0000
  S   S11       1.0  0.39785  0.30149  0.04693  1.0000
  S   S12       1.0  0.31353  0.28542  0.03490  1.0000
  Fe  Fe8       1.0  0.35323  0.27590  0.07650  1.0000
  S   S13       1.0  0.40368  0.28910  0.07560  1.0000
  S   S14       1.0  0.32118  0.25159  0.09163  1.0000
  Fe  Fe9       1.0  0.40525  0.32820  0.06421  1.0000
  H   H10       1.0  0.35603  0.10717  0.15784  1.0000
  Fe  Fe10      1.0  0.39243  0.26174  0.05835  1.0000
  S   S15       1.0  0.40813  0.22686  0.05081  1.0000
  S   S16       1.0  0.35514  0.31630  0.06610  1.0000
  S   S17       1.0  0.34239  0.24625  0.05982  1.0000
  Fe  Fe11      1.0  0.23346  0.17438  0.16838  1.0000
  S   S18       1.0  0.28292  0.20275  0.17178  1.0000
  S   S19       1.0  0.21664  0.12535  0.16183  1.0000
  Fe  Fe12      1.0  0.21537  0.22691  0.17386  1.0000
  S   S20       1.0  0.26408  0.25927  0.17767  1.0000
  S   S21       1.0  0.18136  0.24878  0.17523  1.0000
  Fe  Fe13      1.0  0.27497  0.23824  0.16120  1.0000
  S   S22       1.0  0.30786  0.26880  0.14759  1.0000
  Fe  Fe14      1.0  0.26806  0.22121  0.18791  1.0000
  S   S23       1.0  0.22624  0.20862  0.15684  1.0000
  S   S24       1.0  0.21855  0.19000  0.18502  1.0000
  C   C6        1.0  0.03739  0.18776  0.98592  1.0000
  C   C7        1.0  0.31866  0.25663  0.10726  1.0000
  C   C8        1.0  0.33881  0.28231  0.11368  1.0000
  C   C9        1.0  0.33536  0.28537  0.12600  1.0000
  C   C10       1.0  0.31198  0.26276  0.13214  1.0000
  C   C11       1.0  0.29208  0.23685  0.12576  1.0000
  C   C12       1.0  0.29533  0.23394  0.11342  1.0000
  H   H11       1.0  0.35686  0.29999  0.10913  1.0000
  H   H12       1.0  0.35090  0.30554  0.13080  1.0000
  H   H13       1.0  0.27391  0.21927  0.13029  1.0000
  H   H14       1.0  0.27946  0.21405  0.10858  1.0000
  C   C13       1.0  0.07715  0.20565  0.17854  1.0000
  C   C14       1.0  0.09340  0.18714  0.17851  1.0000
  C   C15       1.0  0.12512  0.19978  0.17726  1.0000
  C   C16       1.0  0.14112  0.23125  0.17609  1.0000
  C   C17       1.0  0.12493  0.24980  0.17608  1.0000
  C   C18       1.0  0.09317  0.23712  0.17727  1.0000
  H   H15       1.0  0.08130  0.16278  0.17948  1.0000
  H   H16       1.0  0.13714  0.18516  0.17733  1.0000
  H   H17       1.0  0.13701  0.27419  0.17524  1.0000
  H   H18       1.0  0.08108  0.25169  0.17731  1.0000
  H   H19       1.0  0.30315  0.17763  0.01145  1.0000
  H   H20       1.0  0.36223  0.14937  0.10315  1.0000
  C   C19       1.0  0.29379  0.16150  0.97409  1.0000
  S   S25       1.0  0.00631  0.24605  0.96357  1.0000
  H   H21       1.0  0.01376  0.37225  0.13753  1.0000
  Fe  Fe15      1.0  0.96680  0.23926  0.16748  1.0000
  H   H22       1.0  0.36976  0.19591  0.07816  1.0000
  H   H23       1.0  0.31253  0.10849  0.09861  1.0000
  H   H24       1.0  0.36060  0.19349  0.11076  1.0000
  C   C20       1.0  0.31174  0.97984  0.13924  1.0000
  H   H25       1.0  0.18612  0.33133  0.13222  1.0000
  C   C21       1.0  0.24216  0.06318  0.18554  1.0000
  C   C22       1.0  0.22858  0.05259  0.17437  1.0000
  C   C23       1.0  0.22010  0.07158  0.16725  1.0000
  C   C24       1.0  0.22610  0.10149  0.17110  1.0000
  C   C25       1.0  0.23993  0.11210  0.18219  1.0000
  C   C26       1.0  0.24762  0.09285  0.18944  1.0000
  H   H26       1.0  0.22451  0.02983  0.17126  1.0000
  H   H27       1.0  0.20944  0.06337  0.15864  1.0000
  H   H28       1.0  0.24462  0.13514  0.18522  1.0000
  C   C27       1.0  0.96564  0.24616  0.11851  1.0000
  C   C28       1.0  0.41207  0.14879  0.07228  1.0000
  C   C29       1.0  0.39451  0.14251  0.06183  1.0000
  C   C30       1.0  0.39301  0.16661  0.05537  1.0000
  C   C31       1.0  0.40822  0.19694  0.05952  1.0000
  C   C32       1.0  0.42544  0.20312  0.07006  1.0000
  C   C33       1.0  0.42755  0.17912  0.07635  1.0000
  H   H29       1.0  0.38251  0.11916  0.05862  1.0000
  H   H30       1.0  0.38002  0.16177  0.04713  1.0000
  H   H31       1.0  0.99205  0.27004  0.01910  1.0000
  H   H32       1.0  0.44758  0.35276  0.02682  1.0000
  H   H33       1.0  0.29845  0.10615  0.14524  1.0000
  H   H34       1.0  0.43778  0.22649  0.07317  1.0000
  H   H35       1.0  0.08538  0.24639  0.98586  1.0000
  H   H36       1.0  0.27834  0.14537  0.11089  1.0000
  C   C34       1.0  0.17579  0.99001  0.20331  1.0000
  C   C35       1.0  0.31272  0.27829  0.01928  1.0000
  C   C36       1.0  0.33794  0.27860  0.01330  1.0000
  C   C37       1.0  0.33698  0.27526  0.00081  1.0000
  C   C38       1.0  0.31068  0.27093  0.99414  1.0000
  C   C39       1.0  0.28530  0.27005  0.00014  1.0000
  C   C40       1.0  0.28646  0.27401  0.01260  1.0000
  H   H37       1.0  0.35825  0.28168  0.01828  1.0000
  H   H38       1.0  0.35675  0.27588  0.99630  1.0000
  H   H39       1.0  0.26492  0.26685  0.99516  1.0000
  H   H40       1.0  0.26687  0.27392  0.01710  1.0000
  H   H41       1.0  0.36220  0.40419  0.04299  1.0000
  H   H42       1.0  0.00869  0.19174  0.02111  1.0000
  H   H43       1.0  0.04219  0.24469  0.00577  1.0000
  H   H44       1.0  0.06064  0.19713  0.98255  1.0000
  C   C41       1.0  0.30113  0.97848  0.00186  1.0000
  H   H45       1.0  0.28167  0.02184  0.02154  1.0000
  H   H46       1.0  0.31446  0.14386  0.11323  1.0000
  H   H47       1.0  0.33686  0.14748  0.06912  1.0000
  C   C42       1.0  0.29291  0.00809  0.01818  1.0000
  H   H48       1.0  0.01730  0.36803  0.09418  1.0000
  C   C43       1.0  0.31266  0.19033  0.99262  1.0000
  H   H49       1.0  0.12828  0.21835  0.20346  1.0000
  H   H50       1.0  0.25859  0.09998  0.97897  1.0000
  H   H51       1.0  0.01987  0.34668  0.11829  1.0000
  H   H52       1.0  0.31963  0.21251  0.98814  1.0000
  H   H53       1.0  0.31144  0.15223  0.97426  1.0000
  H   H54       1.0  0.29424  0.14565  0.09130  1.0000
  H   H55       1.0  0.35372  0.37652  0.05433  1.0000
  H   H56       1.0  0.24872  0.04511  0.14233  1.0000
  H   H57       1.0  0.37193  0.15380  0.08814  1.0000
  S   S26       1.0  0.96624  0.19273  0.16454  1.0000
  N   N1        1.0  0.21900  0.28891  0.13682  1.0000
  C   C44       1.0  0.23826  0.27507  0.13085  1.0000
  C   C45       1.0  0.20107  0.26767  0.14626  1.0000
  C   C46       1.0  0.23819  0.31947  0.14255  1.0000
  C   C47       1.0  0.19850  0.29330  0.12758  1.0000
  C   C48       1.0  0.26237  0.29597  0.12240  1.0000
  C   C49       1.0  0.26161  0.31940  0.15195  1.0000
  C   C50       1.0  0.17586  0.30597  0.13213  1.0000
  H   H58       1.0  0.25022  0.26687  0.13749  1.0000
  H   H59       1.0  0.22392  0.25428  0.12553  1.0000
  H   H60       1.0  0.19112  0.27907  0.15247  1.0000
  H   H61       1.0  0.21617  0.26134  0.15205  1.0000
  H   H62       1.0  0.25041  0.33641  0.13578  1.0000
  H   H63       1.0  0.22371  0.32912  0.14711  1.0000
  H   H64       1.0  0.21198  0.30972  0.12088  1.0000
  H   H65       1.0  0.18587  0.27200  0.12221  1.0000
  H   H66       1.0  0.25284  0.30549  0.11541  1.0000
  H   H67       1.0  0.28101  0.31466  0.12730  1.0000
  H   H68       1.0  0.27282  0.28234  0.11772  1.0000
  H   H69       1.0  0.27513  0.34317  0.15521  1.0000
  H   H70       1.0  0.27779  0.31077  0.14831  1.0000
  H   H71       1.0  0.25060  0.30601  0.15977  1.0000
  H   H72       1.0  0.16752  0.29841  0.14109  1.0000
  H   H73       1.0  0.12775  0.99867  0.19840  1.0000
  N   N2        1.0  0.14201  0.97707  0.18402  1.0000
  C   C51       1.0  0.02556  0.15269  0.98483  1.0000
  C   C52       1.0  0.34077  0.99604  0.12101  1.0000
  H   H74       1.0  0.45807  0.09633  0.06709  1.0000
  H   H75       1.0  0.06289  0.23688  0.96396  1.0000
  C   C53       1.0  0.07881  0.25373  0.99430  1.0000
  H   H76       1.0  0.19602  0.98742  0.20690  1.0000
  H   H77       1.0  0.30206  0.18412  0.09468  1.0000
  H   H78       1.0  0.41303  0.36411  0.01382  1.0000
  H   H79       1.0  0.34494  0.34014  0.02111  1.0000
  C   C54       1.0  0.30311  0.15805  0.10983  1.0000
  C   C55       1.0  0.32768  0.98442  0.02114  1.0000
  H   H80       1.0  0.30320  0.15416  0.07236  1.0000
  C   C56       1.0  0.36156  0.20127  0.10150  1.0000
  N   N3        1.0  0.28506  0.16622  0.98653  1.0000
  C   C57       1.0  0.00096  0.34772  0.13524  1.0000
  H   H81       1.0  0.39376  0.33455  0.02381  1.0000
  H   H82       1.0  0.29429  0.20931  0.00682  1.0000
  H   H83       1.0  0.97149  0.18359  0.01547  1.0000
  H   H84       1.0  0.33090  0.17767  0.06249  1.0000
  H   H85       1.0  0.23180  0.23098  0.20483  1.0000
  C   C58       1.0  0.25057  0.10859  0.98681  1.0000
  H   H86       1.0  0.33223  0.18388  0.99205  1.0000
  H   H87       1.0  0.01396  0.33534  0.13895  1.0000
  H   H88       1.0  0.98437  0.31630  0.12041  1.0000
  H   H89       1.0  0.25811  0.10116  0.19808  1.0000
  H   H90       1.0  0.33198  0.36640  0.04082  1.0000
  N   N4        1.0  0.34221  0.17522  0.09323  1.0000
  N   N5        1.0  0.38758  0.37605  0.02716  1.0000
  C   C59       1.0  0.35930  0.36447  0.01936  1.0000
  C   C60       1.0  0.37756  0.36729  0.03965  1.0000
  H   H91       1.0  0.31024  0.17926  0.11540  1.0000
  C   C61       1.0  0.40408  0.41011  0.02580  1.0000
  H   H92       1.0  0.34198  0.36214  0.00131  1.0000
  C   C62       1.0  0.00040  0.34437  0.09538  1.0000
  C   C63       1.0  0.28688  0.99642  0.00636  1.0000
  S   S27       1.0  0.31400  0.98635  0.09823  1.0000
  H   H93       1.0  0.08259  0.16966  0.00143  1.0000
  H   H94       1.0  0.34495  0.37693  0.02142  1.0000
  S   S28       1.0  0.28829  0.21963  0.20640  1.0000
  H   H95       1.0  0.36661  0.34201  0.04028  1.0000
  H   H96       1.0  0.16719  0.00467  0.16957  1.0000
  H   H97       1.0  0.98069  0.40145  0.09884  1.0000
  H   H98       1.0  0.01521  0.43078  0.10343  1.0000
  H   H99       1.0  0.38747  0.42050  0.02474  1.0000
  C   C64       1.0  0.42573  0.42843  0.03614  1.0000
  H   H100      1.0  0.34477  0.06115  0.17661  1.0000
  C   C65       1.0  0.33956  0.99344  0.13348  1.0000
  H   H101      1.0  0.26484  0.29603  0.21045  1.0000
  H   H102      1.0  0.08203  0.27780  0.99321  1.0000
  H   H103      1.0  0.44064  0.12493  0.05507  1.0000
  C   C66       1.0  0.30978  0.19774  0.00576  1.0000
  S   S29       1.0  0.43538  0.37992  0.06523  1.0000
  C   C67       1.0  0.96950  0.24913  0.13096  1.0000
  C   C68       1.0  0.36397  0.36672  0.00585  1.0000
  N   N6        1.0  0.31059  0.07262  0.15378  1.0000
  C   C69       1.0  0.29610  0.05000  0.14366  1.0000
  C   C70       1.0  0.34362  0.08942  0.15102  1.0000
  C   C71       1.0  0.30559  0.05550  0.16520  1.0000
  C   C72       1.0  0.26159  0.03114  0.14419  1.0000
  C   C73       1.0  0.36131  0.06924  0.14947  1.0000
  C   C74       1.0  0.32786  0.07112  0.17570  1.0000
  H   H104      1.0  0.30074  0.06158  0.13498  1.0000
  H   H105      1.0  0.30599  0.03291  0.14313  1.0000
  C   C75       1.0  0.27653  0.13638  0.99275  1.0000
  H   H106      1.0  0.28235  0.04978  0.16836  1.0000
  H   H107      1.0  0.30689  0.03315  0.16360  1.0000
  H   H108      1.0  0.36040  0.00198  0.13869  1.0000
  H   H109      1.0  0.98562  0.24228  0.13535  1.0000
  H   H110      1.0  0.14519  0.04924  0.19193  1.0000
  H   H111      1.0  0.38598  0.08380  0.14996  1.0000
  H   H112      1.0  0.35633  0.05188  0.15639  1.0000
  H   H113      1.0  0.35648  0.05756  0.14062  1.0000
  H   H114      1.0  0.36236  0.00636  0.11675  1.0000
  H   H115      1.0  0.14916  0.03954  0.17690  1.0000
  H   H116      1.0  0.31700  0.11401  0.08291  1.0000
  C   C76       1.0  0.00323  0.39128  0.11465  1.0000
  H   H117      1.0  0.25469  0.01288  0.13717  1.0000
  C   C77       1.0  0.39552  0.21680  0.09870  1.0000
  C   C78       1.0  0.29588  0.09485  0.15395  1.0000
  H   H118      1.0  0.33993  0.20740  0.08054  1.0000
  H   H119      1.0  0.27120  0.08286  0.15521  1.0000
  Fe  Fe16      1.0  0.25253  0.99566  0.18829  1.0000
  S   S30       1.0  0.44134  0.99575  0.06600  1.0000
  H   H120      1.0  0.34116  0.10141  0.09107  1.0000
  C   C79       1.0  0.35279  0.14977  0.09413  1.0000
  C   C80       1.0  0.25954  0.17649  0.98577  1.0000
  S   S31       1.0  0.21113  0.03513  0.96414  1.0000
  H   H121      1.0  0.24408  0.16460  0.97813  1.0000
  C   C81       1.0  0.14760  0.98255  0.17095  1.0000
  H   H122      1.0  0.24927  0.16902  0.00520  1.0000
  H   H123      1.0  0.27414  0.14421  0.96908  1.0000
  H   H124      1.0  0.97897  0.33875  0.13979  1.0000
  H   H125      1.0  0.37111  0.34893  0.00244  1.0000
  C   C82       1.0  0.30681  0.12014  0.16367  1.0000
  H   H126      1.0  0.30050  0.11056  0.17259  1.0000
  H   H127      1.0  0.26856  0.20130  0.98391  1.0000
  C   C83       1.0  0.23902  0.17101  0.99665  1.0000
  H   H128      1.0  0.12785  0.98446  0.16643  1.0000
  H   H129      1.0  0.98227  0.42365  0.11210  1.0000
  H   H130      1.0  0.33134  0.13471  0.16335  1.0000
  H   H131      1.0  0.02620  0.39385  0.11204  1.0000
  H   H132      1.0  0.23258  0.19058  0.99774  1.0000
  H   H133      1.0  0.99202  0.33446  0.08640  1.0000
  C   C84       1.0  0.30971  0.16570  0.09666  1.0000
  S   S32       1.0  0.31912  0.01694  0.04064  1.0000
  C   C85       1.0  0.32782  0.16490  0.07083  1.0000
  C   C86       1.0  0.30541  0.18986  0.96627  1.0000
  H   H134      1.0  0.31511  0.06586  0.18407  1.0000
  H   H135      1.0  0.35293  0.21944  0.10176  1.0000
  N   N7        1.0  0.03588  0.20059  0.99807  1.0000
  C   C87       1.0  0.00304  0.18693  0.00152  1.0000
  C   C88       1.0  0.05435  0.19311  0.00735  1.0000
  C   C89       1.0  0.99594  0.19669  0.01383  1.0000
  H   H136      1.0  0.27112  0.00119  0.00078  1.0000
  C   C90       1.0  0.08496  0.19324  0.00349  1.0000
  H   H137      1.0  0.98882  0.19212  0.99481  1.0000
  H   H138      1.0  0.99401  0.16163  0.00167  1.0000
  H   H139      1.0  0.05893  0.20896  0.01519  1.0000
  H   H140      1.0  0.04108  0.16978  0.01068  1.0000
  H   H141      1.0  0.44410  0.16400  0.04125  1.0000
  H   H142      1.0  0.99975  0.22102  0.01432  1.0000
  H   H143      1.0  0.00048  0.14192  0.98406  1.0000
  H   H144      1.0  0.29493  0.13537  0.16234  1.0000
  H   H145      1.0  0.40786  0.23216  0.10628  1.0000
  H   H146      1.0  0.21742  0.15065  0.99503  1.0000
  H   H147      1.0  0.10136  0.20145  0.01109  1.0000
  H   H148      1.0  0.09581  0.20803  0.99603  1.0000
  C   C91       1.0  0.99688  0.34140  0.12170  1.0000
  H   H149      1.0  0.17591  0.03946  0.18815  1.0000
  H   H150      1.0  0.23106  0.11364  0.98414  1.0000
  C   C92       1.0  0.17542  0.23751  0.14178  1.0000
  H   H151      1.0  0.18381  0.22418  0.13586  1.0000
  C   C93       1.0  0.34589  0.18738  0.08086  1.0000
  H   H152      1.0  0.25479  0.01964  0.15275  1.0000
  H   H153      1.0  0.15535  0.29737  0.12624  1.0000
  H   H154      1.0  0.38028  0.38965  0.00329  1.0000
  S   S33       1.0  0.97663  0.24708  0.99511  1.0000
  H   H155      1.0  0.15688  0.24140  0.13728  1.0000
  C   C94       1.0  0.15173  0.03392  0.18624  1.0000
  H   H156      1.0  0.29648  0.13053  0.99351  1.0000
  H   H157      1.0  0.44136  0.18408  0.08439  1.0000
  H   H158      1.0  0.02424  0.19477  0.97934  1.0000
  C   C95       1.0  0.04558  0.23461  0.99728  1.0000
  H   H159      1.0  0.16535  0.22315  0.14952  1.0000
  H   H160      1.0  0.40559  0.20006  0.09738  1.0000
  H   H161      1.0  0.26996  0.13768  0.00201  1.0000
  H   H162      1.0  0.44909  0.08976  0.04238  1.0000
  H   H163      1.0  0.39677  0.37438  0.04603  1.0000
  H   H164      1.0  0.24230  0.08956  0.99310  1.0000
  H   H165      1.0  0.33953  0.09620  0.17550  1.0000
  H   H166      1.0  0.33226  0.21423  0.00920  1.0000
  H   H167      1.0  0.03135  0.23962  0.99053  1.0000
  C   C96       1.0  0.31332  0.00221  0.02568  1.0000
  C   C97       1.0  0.40679  0.35971  0.02325  1.0000
  H   H168      1.0  0.32817  0.20671  0.96921  1.0000
  C   C98       1.0  0.96790  0.26285  0.01796  1.0000
  H   H169      1.0  0.97884  0.23689  0.11344  1.0000
  C   C99       1.0  0.21597  0.27720  0.20572  1.0000
  Fe  Fe17      1.0  0.27280  0.25502  0.96431  1.0000
  H   H170      1.0  0.19967  0.28792  0.20486  1.0000
  H   H171      1.0  0.19117  0.99555  0.18556  1.0000
  H   H172      1.0  0.99402  0.33160  0.21112  1.0000
  H   H173      1.0  0.00717  0.40174  0.12373  1.0000
  H   H174      1.0  0.25294  0.32058  0.20235  1.0000
  C   C100      1.0  0.17493  0.22730  0.20812  1.0000
  H   H175      1.0  0.03323  0.14278  0.99229  1.0000
  H   H176      1.0  0.18808  0.08111  0.96530  1.0000
  H   H177      1.0  0.41734  0.41515  0.01753  1.0000
  N   N8        1.0  0.98145  0.35815  0.11494  1.0000
  S   S34       1.0  0.31189  0.97840  0.15508  1.0000
  C   C101      1.0  0.99438  0.41256  0.10686  1.0000
  H   H178      1.0  0.03400  0.14642  0.97653  1.0000
  S   S35       1.0  0.22975  0.21229  0.96427  1.0000
  H   H179      1.0  0.28948  0.20102  0.96586  1.0000
  H   H180      1.0  0.44554  0.44738  0.03243  1.0000
  H   H181      1.0  0.11855  0.26438  0.96656  1.0000
  C   C102      1.0  0.13108  0.00030  0.18870  1.0000
  C   C103      1.0  0.24620  0.30350  0.20945  1.0000
  H   H182      1.0  0.45247  0.13611  0.03333  1.0000
  H   H183      1.0  0.18073  0.01457  0.20441  1.0000
  H   H184      1.0  0.41468  0.43960  0.04191  1.0000
  C   C104      1.0  0.46094  0.15388  0.04049  1.0000
  H   H185      1.0  0.43473  0.36529  0.03963  1.0000
  H   H186      1.0  0.45343  0.39175  0.02803  1.0000
  C   C105      1.0  0.43718  0.36822  0.02995  1.0000
  C   C106      1.0  0.14904  0.23798  0.20674  1.0000
  H   H187      1.0  0.43503  0.41550  0.04169  1.0000
  C   C107      1.0  0.17091  0.97944  0.19013  1.0000
  H   H188      1.0  0.15668  0.97664  0.20893  1.0000
  H   H189      1.0  0.39435  0.07161  0.25484  1.0000
  H   H190      1.0  0.30105  0.08626  0.25031  1.0000
  Fe  Fe18      1.0  0.35959  0.99878  0.28065  1.0000
  S   S36       1.0  0.40361  0.02991  0.27326  1.0000
  H   H191      1.0  0.31076  0.03898  0.27629  1.0000
  Fe  Fe19      1.0  0.38311  0.01639  0.30664  1.0000
  S   S37       1.0  0.42895  0.04982  0.30054  1.0000
  Fe  Fe20      1.0  0.40285  0.06415  0.28702  1.0000
  S   S38       1.0  0.41438  0.11101  0.27923  1.0000
  Fe  Fe21      1.0  0.42564  0.01293  0.28737  1.0000
  H   H192      1.0  0.44028  0.45353  0.33426  1.0000
  S   S39       1.0  0.35742  0.03366  0.29388  1.0000
  Fe  Fe22      1.0  0.36942  0.29738  0.27047  1.0000
  S   S40       1.0  0.40480  0.27852  0.27296  1.0000
  S   S41       1.0  0.34959  0.30419  0.25264  1.0000
  Fe  Fe23      1.0  0.37093  0.31390  0.29737  1.0000
  S   S42       1.0  0.40552  0.29574  0.30138  1.0000
  S   S43       1.0  0.35262  0.33645  0.31147  1.0000
  Fe  Fe24      1.0  0.42898  0.31970  0.28513  1.0000
  H   H193      1.0  0.35291  0.97839  0.36770  1.0000
  Fe  Fe25      1.0  0.37850  0.25639  0.28904  1.0000
  S   S44       1.0  0.36614  0.20936  0.29663  1.0000
  S   S45       1.0  0.39574  0.34017  0.28166  1.0000
  S   S46       1.0  0.34175  0.27297  0.28600  1.0000
  H   H194      1.0  0.06830  0.32887  0.37853  1.0000
  C   C108      1.0  0.14364  0.31897  0.37145  1.0000
  Fe  Fe26      1.0  0.28683  0.35677  0.39783  1.0000
  S   S47       1.0  0.30918  0.32359  0.39797  1.0000
  S   S48       1.0  0.23505  0.33426  0.39961  1.0000
  Fe  Fe27      1.0  0.34796  0.41068  0.39627  1.0000
  S   S49       1.0  0.37381  0.38141  0.39640  1.0000
  C   C109      1.0  0.36142  0.07125  0.24112  1.0000
  Fe  Fe28      1.0  0.33827  0.35110  0.38327  1.0000
  S   S50       1.0  0.35453  0.32918  0.36807  1.0000
  Fe  Fe29      1.0  0.34292  0.35650  0.41107  1.0000
  S   S51       1.0  0.36488  0.34207  0.42666  1.0000
  S   S52       1.0  0.31380  0.38197  0.38227  1.0000
  S   S53       1.0  0.31917  0.38806  0.41181  1.0000
  Fe  Fe30      1.0  0.02062  0.32779  0.39180  1.0000
  S   S54       1.0  0.05402  0.37618  0.38984  1.0000
  S   S55       1.0  0.99722  0.29378  0.37644  1.0000
  Fe  Fe31      1.0  0.02760  0.33276  0.41933  1.0000
  S   S56       1.0  0.06211  0.38172  0.41905  1.0000
  S   S57       1.0  0.01104  0.30303  0.43571  1.0000
  Fe  Fe32      1.0  0.03113  0.38743  0.40520  1.0000
  S   S58       1.0  0.01436  0.42496  0.40399  1.0000
  Fe  Fe33      1.0  0.08265  0.36641  0.40371  1.0000
  S   S59       1.0  0.13358  0.38766  0.40016  1.0000
  S   S60       1.0  0.99542  0.33942  0.40630  1.0000
  S   S61       1.0  0.05051  0.31710  0.40486  1.0000
  H   H195      1.0  0.17130  0.44849  0.41250  1.0000
  C   C110      1.0  0.99261  0.30804  0.44868  1.0000
  C   C111      1.0  0.44413  0.38470  0.31013  1.0000
  C   C112      1.0  0.97833  0.28308  0.45608  1.0000
  H   H196      1.0  0.28684  0.02409  0.26357  1.0000
  C   C113      1.0  0.99478  0.46407  0.43668  1.0000
  H   H197      1.0  0.43771  0.24382  0.28560  1.0000
  C   C114      1.0  0.06694  0.30377  0.35648  1.0000
  C   C115      1.0  0.27556  0.24545  0.34251  1.0000
  H   H198      1.0  0.22451  0.25308  0.24080  1.0000
  H   H199      1.0  0.06648  0.44118  0.38534  1.0000
  H   H200      1.0  0.40962  0.44239  0.40952  1.0000
  C   C116      1.0  0.20746  0.34993  0.40003  1.0000
  C   C117      1.0  0.21444  0.38051  0.39763  1.0000
  C   C118      1.0  0.19158  0.39159  0.39778  1.0000
  C   C119      1.0  0.16151  0.37243  0.40044  1.0000
  C   C120      1.0  0.15460  0.34196  0.40301  1.0000
  C   C121      1.0  0.17739  0.33078  0.40272  1.0000
  H   H201      1.0  0.23740  0.39555  0.39555  1.0000
  H   H202      1.0  0.19731  0.41522  0.39581  1.0000
  H   H203      1.0  0.13172  0.32701  0.40519  1.0000
  H   H204      1.0  0.17165  0.30709  0.40459  1.0000
  C   C122      1.0  0.33495  0.34260  0.44758  1.0000
  C   C123      1.0  0.35720  0.33593  0.44201  1.0000
  C   C124      1.0  0.37458  0.32458  0.44887  1.0000
  H   H205      1.0  0.32219  0.35233  0.44250  1.0000
  H   H206      1.0  0.39193  0.31943  0.44468  1.0000
  C   C125      1.0  0.97470  0.33650  0.22787  1.0000
  H   H207      1.0  0.13016  0.44459  0.36917  1.0000
  H   H208      1.0  0.30916  0.28575  0.21148  1.0000
  C   C126      1.0  0.98830  0.30084  0.36171  1.0000
  H   H209      1.0  0.28457  0.02370  0.22362  1.0000
  H   H210      1.0  0.43977  0.21801  0.31108  1.0000
  H   H211      1.0  0.39344  0.10840  0.25294  1.0000
  H   H212      1.0  0.46023  0.40290  0.45864  1.0000
  H   H213      1.0  0.46114  0.47076  0.41832  1.0000
  C   C127      1.0  0.11353  0.45601  0.39111  1.0000
  H   H214      1.0  0.16530  0.20633  0.21342  1.0000
  H   H215      1.0  0.28057  0.26070  0.35053  1.0000
  C   C128      1.0  0.35471  0.33551  0.32722  1.0000
  C   C129      1.0  0.37243  0.32303  0.33309  1.0000
  C   C130      1.0  0.37234  0.32166  0.34558  1.0000
  C   C131      1.0  0.35515  0.33334  0.35240  1.0000
  C   C132      1.0  0.33827  0.34675  0.34653  1.0000
  C   C133      1.0  0.33803  0.34775  0.33402  1.0000
  H   H216      1.0  0.38585  0.31406  0.32802  1.0000
  H   H217      1.0  0.38558  0.31135  0.35003  1.0000
  H   H218      1.0  0.32494  0.35584  0.35162  1.0000
  H   H219      1.0  0.32446  0.35773  0.32960  1.0000
  H   H220      1.0  0.38335  0.00161  0.42562  1.0000
  H   H221      1.0  0.37837  0.01662  0.35243  1.0000
  H   H222      1.0  0.24395  0.31555  0.21760  1.0000
  C   C134      1.0  0.37837  0.18149  0.29133  1.0000
  C   C135      1.0  0.39227  0.18394  0.28040  1.0000
  C   C136      1.0  0.40301  0.16204  0.27679  1.0000
  C   C137      1.0  0.39931  0.13714  0.28393  1.0000
  C   C138      1.0  0.38456  0.13419  0.29469  1.0000
  C   C139      1.0  0.37425  0.15636  0.29838  1.0000
  H   H223      1.0  0.39474  0.20270  0.27475  1.0000
  H   H224      1.0  0.41416  0.16431  0.26840  1.0000
  H   H225      1.0  0.38154  0.11510  0.30025  1.0000
  H   H226      1.0  0.36326  0.15410  0.30680  1.0000
  C   C140      1.0  0.30598  0.24387  0.21903  1.0000
  C   C141      1.0  0.31331  0.27524  0.21929  1.0000
  C   C142      1.0  0.32652  0.29318  0.22963  1.0000
  C   C143      1.0  0.33310  0.28024  0.23981  1.0000
  C   C144      1.0  0.32599  0.24890  0.23952  1.0000
  C   C145      1.0  0.31245  0.23091  0.22922  1.0000
  H   H227      1.0  0.97791  0.26107  0.45356  1.0000
  H   H228      1.0  0.33207  0.31739  0.22969  1.0000
  H   H229      1.0  0.33081  0.23849  0.24723  1.0000
  H   H230      1.0  0.30700  0.20671  0.22915  1.0000
  H   H231      1.0  0.07924  0.32335  0.35071  1.0000
  H   H232      1.0  0.13988  0.30935  0.38037  1.0000
  H   H233      1.0  0.14147  0.46076  0.41347  1.0000
  H   H234      1.0  0.10254  0.26501  0.38377  1.0000
  H   H235      1.0  0.41696  0.00927  0.44183  1.0000
  H   H236      1.0  0.40197  0.42869  0.33694  1.0000
  H   H237      1.0  0.36294  0.08530  0.23322  1.0000
  C   C146      1.0  0.32007  0.98492  0.44786  1.0000
  S   S62       1.0  0.37863  0.01412  0.32698  1.0000
  H   H238      1.0  0.28083  0.32737  0.42754  1.0000
  H   H239      1.0  0.07210  0.45983  0.41629  1.0000
  H   H240      1.0  0.38860  0.38686  0.45788  1.0000
  H   H241      1.0  0.23725  0.33100  0.45869  1.0000
  H   H242      1.0  0.33990  0.03336  0.25923  1.0000
  H   H243      1.0  0.41077  0.44782  0.32322  1.0000
  H   H244      1.0  0.44291  0.01200  0.24485  1.0000
  H   H245      1.0  0.23569  0.19980  0.22249  1.0000
  H   H246      1.0  0.25295  0.35758  0.44013  1.0000
  H   H247      1.0  0.26498  0.22168  0.34557  1.0000
  H   H248      1.0  0.16288  0.31501  0.36774  1.0000
  C   C147      1.0  0.41926  0.43659  0.32996  1.0000
  H   H249      1.0  0.98666  0.30227  0.24186  1.0000
  H   H250      1.0  0.15922  0.47228  0.36088  1.0000
  H   H251      1.0  0.18016  0.23925  0.23012  1.0000
  H   H252      1.0  0.98716  0.22673  0.24855  1.0000
  H   H253      1.0  0.02845  0.39187  0.25869  1.0000
  H   H254      1.0  0.43301  0.99869  0.25950  1.0000
  C   C148      1.0  0.06868  0.27563  0.37400  1.0000
  H   H255      1.0  0.25913  0.25037  0.33697  1.0000
  H   H256      1.0  0.40091  0.39098  0.32232  1.0000
  C   C149      1.0  0.00783  0.39287  0.25468  1.0000
  H   H257      1.0  0.32432  0.04408  0.22254  1.0000
  H   H258      1.0  0.11324  0.28057  0.36083  1.0000
  H   H259      1.0  0.44805  0.22500  0.26795  1.0000
  N   N9        1.0  0.20417  0.25019  0.21372  1.0000
  C   C150      1.0  0.96406  0.28035  0.34228  1.0000
  C   C151      1.0  0.99509  0.32089  0.25943  1.0000
  H   H260      1.0  0.00890  0.31883  0.22327  1.0000
  C   C152      1.0  0.16451  0.46715  0.41008  1.0000
  C   C153      1.0  0.28270  0.28382  0.42723  1.0000
  C   C154      1.0  0.00047  0.33007  0.35704  1.0000
  H   H261      1.0  0.25657  0.30154  0.41662  1.0000
  H   H262      1.0  0.04641  0.30676  0.35928  1.0000
  H   H263      1.0  0.11135  0.38139  0.37499  1.0000
  C   C155      1.0  0.30437  0.04361  0.22737  1.0000
  H   H264      1.0  0.22174  0.28861  0.24104  1.0000
  H   H265      1.0  0.00741  0.44970  0.43834  1.0000
  H   H266      1.0  0.06424  0.25465  0.36856  1.0000
  C   C156      1.0  0.32490  0.09234  0.24776  1.0000
  H   H267      1.0  0.12253  0.31658  0.35452  1.0000
  H   H268      1.0  0.10541  0.33428  0.38256  1.0000
  H   H269      1.0  0.04664  0.27976  0.33991  1.0000
  N   N10       1.0  0.23772  0.29559  0.43422  1.0000
  C   C157      1.0  0.08849  0.46062  0.38386  1.0000
  C   C158      1.0  0.22135  0.31515  0.43083  1.0000
  C   C159      1.0  0.21716  0.26244  0.43187  1.0000
  C   C160      1.0  0.24954  0.30116  0.44689  1.0000
  H   H270      1.0  0.44726  0.20219  0.29301  1.0000
  C   C161      1.0  0.24044  0.34993  0.43156  1.0000
  C   C162      1.0  0.18735  0.24950  0.43863  1.0000
  H   H271      1.0  0.44556  0.25278  0.31873  1.0000
  C   C163      1.0  0.96513  0.45916  0.31177  1.0000
  N   N11       1.0  0.44488  0.41477  0.31462  1.0000
  H   H272      1.0  0.20127  0.31080  0.43626  1.0000
  H   H273      1.0  0.21193  0.30924  0.42162  1.0000
  H   H274      1.0  0.21115  0.25825  0.42222  1.0000
  H   H275      1.0  0.22880  0.24751  0.43418  1.0000
  C   C164      1.0  0.40208  0.41338  0.30034  1.0000
  H   H276      1.0  0.27110  0.32195  0.44747  1.0000
  C   C165      1.0  0.34182  0.97978  0.23321  1.0000
  C   C166      1.0  0.33151  0.98991  0.45969  1.0000
  H   H277      1.0  0.19155  0.24819  0.44824  1.0000
  H   H278      1.0  0.25655  0.35750  0.42419  1.0000
  H   H279      1.0  0.20525  0.20588  0.22913  1.0000
  H   H280      1.0  0.44271  0.44368  0.36110  1.0000
  H   H281      1.0  0.38198  0.98093  0.44607  1.0000
  H   H282      1.0  0.16492  0.44914  0.39250  1.0000
  C   C167      1.0  0.08345  0.27139  0.38559  1.0000
  C   C168      1.0  0.15296  0.46353  0.36994  1.0000
  H   H283      1.0  0.25527  0.28216  0.44986  1.0000
  S   S63       1.0  0.38119  0.97885  0.29399  1.0000
  H   H284      1.0  0.33198  0.13311  0.25838  1.0000
  C   C169      1.0  0.09033  0.33162  0.37474  1.0000
  H   H285      1.0  0.36489  0.13575  0.25045  1.0000
  H   H286      1.0  0.15125  0.34406  0.37236  1.0000
  N   N12       1.0  0.08619  0.30397  0.36716  1.0000
  H   H287      1.0  0.02402  0.38278  0.23840  1.0000
  N   N13       1.0  0.30322  0.23282  0.32515  1.0000
  C   C170      1.0  0.33336  0.24540  0.31920  1.0000
  C   C171      1.0  0.27940  0.23326  0.31651  1.0000
  C   C172      1.0  0.29473  0.20038  0.32881  1.0000
  C   C173      1.0  0.30540  0.25224  0.33608  1.0000
  C   C174      1.0  0.35985  0.24288  0.32618  1.0000
  C   C175      1.0  0.28282  0.26509  0.31260  1.0000
  C   C176      1.0  0.29536  0.17789  0.31896  1.0000
  H   H288      1.0  0.33169  0.23440  0.31030  1.0000
  H   H289      1.0  0.34057  0.27002  0.31740  1.0000
  H   H290      1.0  0.25633  0.22127  0.32009  1.0000
  H   H291      1.0  0.27933  0.22047  0.30818  1.0000
  H   H292      1.0  0.30948  0.19944  0.33632  1.0000
  H   H293      1.0  0.27139  0.19043  0.33227  1.0000
  H   H294      1.0  0.32132  0.24998  0.34280  1.0000
  H   H295      1.0  0.31504  0.27680  0.33396  1.0000
  H   H296      1.0  0.38052  0.25248  0.32083  1.0000
  H   H297      1.0  0.36496  0.25618  0.33467  1.0000
  H   H298      1.0  0.35599  0.21894  0.32783  1.0000
  H   H299      1.0  0.30335  0.27636  0.30732  1.0000
  H   H300      1.0  0.26328  0.26244  0.30673  1.0000
  H   H301      1.0  0.28306  0.28037  0.32011  1.0000
  H   H302      1.0  0.31806  0.18455  0.31516  1.0000
  H   H303      1.0  0.27859  0.17491  0.31174  1.0000
  H   H304      1.0  0.28928  0.15508  0.32282  1.0000
  H   H305      1.0  0.22523  0.36188  0.43053  1.0000
  H   H306      1.0  0.97997  0.45376  0.42876  1.0000
  H   H307      1.0  0.31472  0.00217  0.44363  1.0000
  C   C177      1.0  0.99655  0.32566  0.24594  1.0000
  H   H308      1.0  0.10541  0.45192  0.40033  1.0000
  C   C178      1.0  0.26423  0.30332  0.42608  1.0000
  C   C179      1.0  0.40149  0.98485  0.44027  1.0000
  H   H309      1.0  0.45632  0.99909  0.43577  1.0000
  C   C180      1.0  0.99484  0.33430  0.34504  1.0000
  H   H310      1.0  0.28465  0.03553  0.24451  1.0000
  H   H311      1.0  0.43146  0.39910  0.33240  1.0000
  C   C181      1.0  0.11578  0.30422  0.36298  1.0000
  H   H312      1.0  0.44578  0.36281  0.32707  1.0000
  C   C182      1.0  0.00155  0.33688  0.22056  1.0000
  H   H313      1.0  0.02089  0.33529  0.24365  1.0000
  S   S64       1.0  0.97158  0.31657  0.32239  1.0000
  C   C183      1.0  0.44568  0.24260  0.30983  1.0000
  H   H314      1.0  0.39829  0.42564  0.29267  1.0000
  C   C184      1.0  0.43546  0.42950  0.30458  1.0000
  H   H315      1.0  0.08460  0.36503  0.36306  1.0000
  C   C185      1.0  0.40693  0.41013  0.45900  1.0000
  H   H316      1.0  0.32567  0.10110  0.23867  1.0000
  H   H317      1.0  0.27015  0.26038  0.42350  1.0000
  H   H318      1.0  0.40695  0.98325  0.42080  1.0000
  H   H319      1.0  0.98565  0.23070  0.22661  1.0000
  S   S65       1.0  0.37246  0.46174  0.39409  1.0000
  C   C186      1.0  0.22474  0.27159  0.23499  1.0000
  H   H320      1.0  0.07474  0.26841  0.34596  1.0000
  H   H321      1.0  0.97573  0.46145  0.29307  1.0000
  H   H322      1.0  0.45557  0.34670  0.31428  1.0000
  H   H323      1.0  0.17393  0.22564  0.43541  1.0000
  H   H324      1.0  0.24740  0.28315  0.23121  1.0000
  H   H325      1.0  0.46125  0.99072  0.25160  1.0000
  C   C187      1.0  0.42364  0.40872  0.32483  1.0000
  H   H326      1.0  0.38608  0.41347  0.30725  1.0000
  H   H327      1.0  0.29868  0.06388  0.26831  1.0000
  H   H328      1.0  0.24837  0.25059  0.21800  1.0000
  H   H329      1.0  0.30925  0.01739  0.24178  1.0000
  C   C188      1.0  0.97658  0.30956  0.33757  1.0000
  H   H330      1.0  0.01458  0.34936  0.36261  1.0000
  H   H331      1.0  0.30345  0.29414  0.42195  1.0000
  C   C189      1.0  0.00146  0.37823  0.24208  1.0000
  C   C190      1.0  0.30705  0.03935  0.24083  1.0000
  H   H332      1.0  0.35345  0.11431  0.26386  1.0000
  H   H333      1.0  0.06650  0.25202  0.39035  1.0000
  H   H334      1.0  0.41777  0.45679  0.36881  1.0000
  C   C191      1.0  0.05609  0.27504  0.34829  1.0000
  H   H335      1.0  0.36182  0.04954  0.23764  1.0000
  H   H336      1.0  0.46025  0.26492  0.26471  1.0000
  C   C192      1.0  0.33438  0.05362  0.25982  1.0000
  H   H337      1.0  0.41060  0.09338  0.24219  1.0000
  H   H338      1.0  0.42774  0.24532  0.30446  1.0000
  C   C193      1.0  0.30576  0.04480  0.26726  1.0000
  H   H339      1.0  0.98076  0.46281  0.44448  1.0000
  H   H340      1.0  0.35327  0.07041  0.26527  1.0000
  H   H341      1.0  0.12172  0.36461  0.36245  1.0000
  N   N14       1.0  0.33239  0.06481  0.24756  1.0000
  C   C194      1.0  0.21580  0.20504  0.22057  1.0000
  H   H342      1.0  0.00395  0.34237  0.26474  1.0000
  H   H343      1.0  0.04600  0.27470  0.37624  1.0000
  C   C195      1.0  0.10283  0.36230  0.36832  1.0000
  H   H344      1.0  0.03736  0.25563  0.35231  1.0000
  H   H345      1.0  0.42047  0.36813  0.30812  1.0000
  H   H346      1.0  0.00470  0.35697  0.34151  1.0000
  H   H347      1.0  0.09064  0.29140  0.39174  1.0000
  H   H348      1.0  0.00387  0.35578  0.44655  1.0000
  C   C196      1.0  0.16706  0.47126  0.39652  1.0000
  S   S66       1.0  0.46023  0.99372  0.28272  1.0000
  C   C197      1.0  0.36963  0.31961  0.46111  1.0000
  H   H349      1.0  0.29030  0.28306  0.43648  1.0000
  H   H350      1.0  0.02102  0.35943  0.22092  1.0000
  H   H351      1.0  0.42639  0.39905  0.44305  1.0000
  C   C198      1.0  0.22623  0.23539  0.21400  1.0000
  C   C199      1.0  0.99290  0.33632  0.45207  1.0000
  H   H352      1.0  0.18835  0.27679  0.22526  1.0000
  C   C200      1.0  0.19787  0.25934  0.22592  1.0000
  H   H353      1.0  0.39616  0.38962  0.29725  1.0000
  H   H354      1.0  0.17298  0.26203  0.43704  1.0000
  H   H355      1.0  0.98887  0.38291  0.26079  1.0000
  H   H356      1.0  0.19991  0.18582  0.21493  1.0000
  H   H357      1.0  0.11385  0.43397  0.38808  1.0000
  H   H358      1.0  0.00893  0.30816  0.26183  1.0000
  C   C201      1.0  0.36428  0.99331  0.34970  1.0000
  H   H359      1.0  0.36518  0.99737  0.25002  1.0000
  C   C202      1.0  0.34531  0.12020  0.25550  1.0000
  H   H360      1.0  0.30042  0.06419  0.22541  1.0000
  H   H361      1.0  0.44395  0.43908  0.44753  1.0000
  C   C203      1.0  0.32964  0.33713  0.45978  1.0000
  H   H362      1.0  0.99307  0.39206  0.23645  1.0000
  C   C204      1.0  0.97014  0.27603  0.35424  1.0000
  H   H363      1.0  0.97171  0.30643  0.26209  1.0000
  C   C205      1.0  0.39135  0.08718  0.24831  1.0000
  C   C206      1.0  0.44101  0.46392  0.36536  1.0000
  H   H364      1.0  0.97762  0.45018  0.33415  1.0000
  C   C207      1.0  0.38976  0.98232  0.42733  1.0000
  C   C208      1.0  0.97017  0.23620  0.23199  1.0000
  C   C209      1.0  0.34371  0.98371  0.24567  1.0000
  C   C210      1.0  0.43925  0.99262  0.25075  1.0000
  C   C211      1.0  0.46200  0.25625  0.28356  1.0000
  H   H365      1.0  0.16958  0.45449  0.37283  1.0000
  N   N15       1.0  0.98110  0.34469  0.24093  1.0000
  C   C212      1.0  0.97111  0.23415  0.24446  1.0000
  C   C213      1.0  0.42235  0.41846  0.44691  1.0000
  C   C214      1.0  0.03778  0.46425  0.40517  1.0000
  H   H366      1.0  0.01156  0.41722  0.25417  1.0000
  H   H367      1.0  0.98205  0.44935  0.31334  1.0000
  H   H368      1.0  0.96637  0.35212  0.22341  1.0000
  C   C215      1.0  0.36027  0.98531  0.33752  1.0000
  C   C216      1.0  0.45778  0.36851  0.31857  1.0000
  H   H369      1.0  0.45593  0.38742  0.30157  1.0000
  H   H370      1.0  0.44918  0.43066  0.29662  1.0000
  H   H371      1.0  0.40699  0.42289  0.44054  1.0000
  H   H372      1.0  0.44006  0.45365  0.30687  1.0000
  C   C217      1.0  0.22913  0.30632  0.45634  1.0000
  H   H373      1.0  0.20476  0.29700  0.45405  1.0000
  H   H374      1.0  0.46257  0.01141  0.45668  1.0000
  H   H375      1.0  0.09224  0.46100  0.37420  1.0000
  H   H376      1.0  0.36206  0.98991  0.22807  1.0000
  H   H377      1.0  0.14340  0.24603  0.21525  1.0000
  C   C218      1.0  0.42193  0.46638  0.40784  1.0000
  H   H378      1.0  0.39493  0.42513  0.46050  1.0000
  H   H379      1.0  0.43772  0.47353  0.46122  1.0000
  C   C219      1.0  0.38535  0.40892  0.48391  1.0000
  C   C220      1.0  0.02987  0.39413  0.67003  1.0000
  Fe  Fe34      1.0  0.02907  0.38160  0.62927  1.0000
  S   S67       1.0  0.99501  0.33320  0.62718  1.0000
  S   S68       1.0  0.00711  0.41494  0.63170  1.0000
  Fe  Fe35      1.0  0.08113  0.36243  0.62627  1.0000
  S   S69       1.0  0.05016  0.31252  0.62363  1.0000
  S   S70       1.0  0.13238  0.38469  0.62929  1.0000
  Fe  Fe36      1.0  0.02211  0.32914  0.61176  1.0000
  C   C221      1.0  0.02174  0.27843  0.48663  1.0000
  Fe  Fe37      1.0  0.02506  0.32037  0.63916  1.0000
  S   S71       1.0  0.00380  0.28364  0.65304  1.0000
  S   S72       1.0  0.05496  0.37866  0.61331  1.0000
  S   S73       1.0  0.05722  0.36922  0.64239  1.0000
  Fe  Fe38      1.0  0.32605  0.36119  0.63774  1.0000
  S   S74       1.0  0.30407  0.39297  0.63312  1.0000
  S   S75       1.0  0.33013  0.35645  0.65784  1.0000
  Fe  Fe39      1.0  0.34091  0.35520  0.61117  1.0000
  S   S76       1.0  0.31883  0.38553  0.60538  1.0000
  S   S77       1.0  0.36758  0.34066  0.59752  1.0000
  Fe  Fe40      1.0  0.34322  0.41554  0.62107  1.0000
  H   H380      1.0  0.06739  0.27430  0.67020  1.0000
  Fe  Fe41      1.0  0.28215  0.35993  0.61805  1.0000
  S   S78       1.0  0.23252  0.34036  0.61236  1.0000
  S   S79       1.0  0.36679  0.38627  0.62655  1.0000
  S   S80       1.0  0.30244  0.32696  0.62296  1.0000
  Fe  Fe42      1.0  0.37009  0.31721  0.49736  1.0000
  S   S81       1.0  0.41664  0.31770  0.49631  1.0000
  S   S82       1.0  0.33927  0.31921  0.48199  1.0000
  Fe  Fe43      1.0  0.37497  0.32539  0.52510  1.0000
  S   S83       1.0  0.42200  0.32751  0.52556  1.0000
  S   S84       1.0  0.34861  0.33173  0.54095  1.0000
  Fe  Fe44      1.0  0.43097  0.35713  0.50958  1.0000
  H   H381      1.0  0.96600  0.24001  0.69173  1.0000
  Fe  Fe45      1.0  0.40339  0.28748  0.51237  1.0000
  S   S85       1.0  0.41579  0.24748  0.51682  1.0000
  S   S86       1.0  0.38484  0.35749  0.51000  1.0000
  S   S87       1.0  0.35577  0.28438  0.51254  1.0000
  Fe  Fe46      1.0  0.36329  0.00974  0.52280  1.0000
  S   S88       1.0  0.39287  0.06027  0.52432  1.0000
  C   C222      1.0  0.27822  0.43815  0.61386  1.0000
  Fe  Fe47      1.0  0.36554  0.00899  0.49505  1.0000
  S   S89       1.0  0.39557  0.05925  0.49480  1.0000
  H   H382      1.0  0.38152  0.42843  0.59891  1.0000
  Fe  Fe48      1.0  0.42083  0.05120  0.51024  1.0000
  H   H383      1.0  0.44957  0.38584  0.58203  1.0000
  Fe  Fe49      1.0  0.36552  0.06521  0.50882  1.0000
  S   S90       1.0  0.34892  0.10330  0.50656  1.0000
  S   S91       1.0  0.33340  0.01485  0.50816  1.0000
  H   H384      1.0  0.35666  0.21255  0.55964  1.0000
  H   H385      1.0  0.96923  0.23912  0.66975  1.0000
  H   H386      1.0  0.26357  0.43703  0.63228  1.0000
  N   N16       1.0  0.33615  0.23278  0.54719  1.0000
  H   H387      1.0  0.19174  0.33607  0.65876  1.0000
  H   H388      1.0  0.25912  0.36461  0.66902  1.0000
  C   C223      1.0  0.97726  0.30530  0.55550  1.0000
  H   H389      1.0  0.42751  0.01661  0.57569  1.0000
  C   C224      1.0  0.39522  0.20735  0.51450  1.0000
  C   C225      1.0  0.37004  0.19485  0.50680  1.0000
  C   C226      1.0  0.35575  0.16295  0.50470  1.0000
  C   C227      1.0  0.36634  0.14310  0.51027  1.0000
  C   C228      1.0  0.39077  0.15554  0.51834  1.0000
  C   C229      1.0  0.40520  0.18744  0.52037  1.0000
  H   H390      1.0  0.36197  0.20977  0.50223  1.0000
  H   H391      1.0  0.33670  0.15361  0.49851  1.0000
  H   H392      1.0  0.39860  0.14056  0.52297  1.0000
  H   H393      1.0  0.42433  0.19679  0.52651  1.0000
  C   C230      1.0  0.34694  0.32564  0.46663  1.0000
  C   C231      1.0  0.97989  0.42923  0.57398  1.0000
  C   C232      1.0  0.00327  0.38422  0.58604  1.0000
  H   H394      1.0  0.35425  0.16906  0.54740  1.0000
  C   C233      1.0  0.96445  0.28622  0.46666  1.0000
  H   H395      1.0  0.37323  0.20233  0.53905  1.0000
  H   H396      1.0  0.45736  0.44481  0.48214  1.0000
  H   H397      1.0  0.34925  0.01777  0.55551  1.0000
  H   H398      1.0  0.32771  0.27076  0.55439  1.0000
  C   C234      1.0  0.35542  0.33554  0.55661  1.0000
  C   C235      1.0  0.38020  0.33257  0.56203  1.0000
  C   C236      1.0  0.38355  0.33413  0.57453  1.0000
  C   C237      1.0  0.36252  0.33919  0.58178  1.0000
  C   C238      1.0  0.33806  0.34267  0.57634  1.0000
  C   C239      1.0  0.33446  0.34062  0.56387  1.0000
  H   H399      1.0  0.39665  0.32892  0.55659  1.0000
  H   H400      1.0  0.40253  0.33133  0.57862  1.0000
  H   H401      1.0  0.32160  0.34643  0.58174  1.0000
  H   H402      1.0  0.31514  0.34286  0.55981  1.0000
  H   H403      1.0  0.44132  0.20710  0.48653  1.0000
  H   H404      1.0  0.04288  0.29826  0.52172  1.0000
  H   H405      1.0  0.22610  0.45007  0.62396  1.0000
  H   H406      1.0  0.01002  0.37040  0.59234  1.0000
  H   H407      1.0  0.40878  0.45518  0.63366  1.0000
  H   H408      1.0  0.27781  0.24187  0.53834  1.0000
  H   H409      1.0  0.40997  0.01854  0.56187  1.0000
  H   H410      1.0  0.42900  0.43611  0.57971  1.0000
  C   C240      1.0  0.01030  0.31979  0.57338  1.0000
  C   C241      1.0  0.00624  0.31951  0.56093  1.0000
  H   H411      1.0  0.03274  0.33041  0.57737  1.0000
  H   H412      1.0  0.02576  0.33012  0.55546  1.0000
  C   C242      1.0  0.15887  0.36974  0.62531  1.0000
  C   C243      1.0  0.18796  0.38251  0.63065  1.0000
  C   C244      1.0  0.21053  0.37305  0.62706  1.0000
  C   C245      1.0  0.20431  0.35109  0.61795  1.0000
  C   C246      1.0  0.17505  0.33776  0.61283  1.0000
  C   C247      1.0  0.15235  0.34692  0.61653  1.0000
  H   H413      1.0  0.19310  0.40009  0.63750  1.0000
  H   H414      1.0  0.23278  0.38303  0.63121  1.0000
  H   H415      1.0  0.17001  0.32059  0.60582  1.0000
  H   H416      1.0  0.13007  0.33695  0.61235  1.0000
  C   C248      1.0  0.02872  0.45488  0.63234  1.0000
  C   C249      1.0  0.31099  0.22144  0.53791  1.0000
  H   H417      1.0  0.45669  0.01055  0.50780  1.0000
  H   H418      1.0  0.19116  0.32450  0.64402  1.0000
  C   C250      1.0  0.28248  0.28293  0.68551  1.0000
  C   C251      1.0  0.29865  0.31359  0.68894  1.0000
  C   C252      1.0  0.31304  0.33563  0.68036  1.0000
  C   C253      1.0  0.31126  0.32751  0.66822  1.0000
  C   C254      1.0  0.29493  0.29688  0.66477  1.0000
  C   C255      1.0  0.28073  0.27480  0.67337  1.0000
  H   H419      1.0  0.30032  0.32028  0.69822  1.0000
  H   H420      1.0  0.32574  0.35919  0.68316  1.0000
  H   H421      1.0  0.29380  0.29010  0.65553  1.0000
  H   H422      1.0  0.26852  0.25114  0.67060  1.0000
  H   H423      1.0  0.21831  0.43728  0.59692  1.0000
  C   C256      1.0  0.39403  0.26454  0.54908  1.0000
  C   C257      1.0  0.99867  0.28648  0.69390  1.0000
  H   H424      1.0  0.29131  0.20155  0.54123  1.0000
  H   H425      1.0  0.31547  0.26897  0.53479  1.0000
  C   C258      1.0  0.00264  0.28544  0.66879  1.0000
  C   C259      1.0  0.02067  0.31160  0.67545  1.0000
  C   C260      1.0  0.01830  0.31229  0.68789  1.0000
  H   H426      1.0  0.00669  0.24511  0.52170  1.0000
  H   H427      1.0  0.45956  0.99405  0.56492  1.0000
  H   H428      1.0  0.03664  0.33116  0.67100  1.0000
  H   H429      1.0  0.03223  0.33274  0.69294  1.0000
  H   H430      1.0  0.42827  0.01393  0.46171  1.0000
  N   N17       1.0  0.02829  0.31220  0.50552  1.0000
  C   C261      1.0  0.01050  0.29861  0.49420  1.0000
  C   C262      1.0  0.01167  0.32756  0.51238  1.0000
  C   C263      1.0  0.03140  0.28809  0.51308  1.0000
  C   C264      1.0  0.05949  0.33459  0.50238  1.0000
  H   H431      1.0  0.43866  0.37748  0.59711  1.0000
  C   C265      1.0  0.01349  0.35799  0.50749  1.0000
  C   C266      1.0  0.00154  0.26132  0.51616  1.0000
  C   C267      1.0  0.08074  0.35174  0.51294  1.0000
  H   H432      1.0  0.98616  0.28485  0.49599  1.0000
  C   C268      1.0  0.01378  0.47451  0.63276  1.0000
  H   H433      1.0  0.01940  0.33184  0.52184  1.0000
  H   H434      1.0  0.98722  0.31224  0.51282  1.0000
  H   H435      1.0  0.04631  0.27844  0.50889  1.0000
  H   H436      1.0  0.03749  0.38543  0.57356  1.0000
  H   H437      1.0  0.07159  0.32276  0.49754  1.0000
  H   H438      1.0  0.05867  0.35148  0.49591  1.0000
  H   H439      1.0  0.02553  0.41073  0.67571  1.0000
  H   H440      1.0  0.41003  0.11350  0.47847  1.0000
  H   H441      1.0  0.39684  0.43154  0.48842  1.0000
  H   H442      1.0  0.97477  0.44075  0.50663  1.0000
  H   H443      1.0  0.00541  0.35557  0.49814  1.0000
  H   H444      1.0  0.99872  0.36575  0.51278  1.0000
  H   H445      1.0  0.33428  0.17730  0.53557  1.0000
  H   H446      1.0  0.02647  0.42681  0.60473  1.0000
  H   H447      1.0  0.43287  0.06195  0.54975  1.0000
  H   H448      1.0  0.09428  0.33920  0.51593  1.0000
  H   H449      1.0  0.06871  0.35540  0.52066  1.0000
  H   H450      1.0  0.09632  0.37489  0.51019  1.0000
  H   H451      1.0  0.00027  0.36975  0.68907  1.0000
  C   C269      1.0  0.25521  0.40238  0.59026  1.0000
  N   N18       1.0  0.42739  0.41129  0.46937  1.0000
  C   C270      1.0  0.98313  0.25960  0.67479  1.0000
  C   C271      1.0  0.02735  0.21087  0.69425  1.0000
  H   H452      1.0  0.31898  0.18869  0.55542  1.0000
  C   C272      1.0  0.25403  0.36709  0.65958  1.0000
  H   H453      1.0  0.21989  0.47376  0.61277  1.0000
  C   C273      1.0  0.97542  0.35759  0.68867  1.0000
  N   N19       1.0  0.44384  0.43657  0.59800  1.0000
  C   C274      1.0  0.36455  0.25477  0.54154  1.0000
  H   H454      1.0  0.00061  0.42844  0.65792  1.0000
  H   H455      1.0  0.14276  0.29388  0.64942  1.0000
  H   H456      1.0  0.41375  0.39735  0.60768  1.0000
  C   C275      1.0  0.45004  0.05740  0.54462  1.0000
  H   H457      1.0  0.98292  0.44559  0.47510  1.0000
  H   H458      1.0  0.02695  0.20188  0.68507  1.0000
  H   H459      1.0  0.99153  0.41235  0.47565  1.0000
  H   H460      1.0  0.26273  0.39682  0.58163  1.0000
  H   H461      1.0  0.98699  0.26918  0.52149  1.0000
  H   H462      1.0  0.41592  0.43252  0.61319  1.0000
  C   C276      1.0  0.01277  0.43190  0.59776  1.0000
  N   N20       1.0  0.46064  0.16094  0.49469  1.0000
  C   C277      1.0  0.34181  0.99394  0.57210  1.0000
  H   H463      1.0  0.03802  0.38028  0.67568  1.0000
  H   H464      1.0  0.04884  0.40824  0.66437  1.0000
  C   C278      1.0  0.28098  0.45271  0.62641  1.0000
  C   C279      1.0  0.97843  0.42247  0.50163  1.0000
  H   H465      1.0  0.29536  0.24613  0.57046  1.0000
  H   H466      1.0  0.27892  0.22277  0.55760  1.0000
  H   H467      1.0  0.07893  0.21114  0.68809  1.0000
  H   H468      1.0  0.31833  0.21291  0.52983  1.0000
  H   H469      1.0  0.99499  0.43264  0.49463  1.0000
  C   C280      1.0  0.43965  0.46941  0.47077  1.0000
  H   H470      1.0  0.96484  0.37239  0.69230  1.0000
  H   H471      1.0  0.00904  0.21925  0.69451  1.0000
  H   H472      1.0  0.39542  0.37154  0.47795  1.0000
  H   H473      1.0  0.29459  0.44432  0.59138  1.0000
  H   H474      1.0  0.09900  0.19426  0.70338  1.0000
  H   H475      1.0  0.04569  0.27217  0.69040  1.0000
  H   H476      1.0  0.99394  0.16687  0.69943  1.0000
  H   H477      1.0  0.03604  0.25446  0.71029  1.0000
  C   C281      1.0  0.32866  0.24921  0.55733  1.0000
  C   C282      1.0  0.98538  0.30563  0.58059  1.0000
  C   C283      1.0  0.97955  0.33959  0.46276  1.0000
  H   H478      1.0  0.98934  0.46504  0.63281  1.0000
  H   H479      1.0  0.34271  0.01340  0.57734  1.0000
  H   H480      1.0  0.23620  0.37584  0.65889  1.0000
  C   C284      1.0  0.06031  0.46737  0.63235  1.0000
  H   H481      1.0  0.08430  0.29856  0.70879  1.0000
  H   H482      1.0  0.30137  0.44104  0.61137  1.0000
  C   C285      1.0  0.44158  0.99984  0.46167  1.0000
  H   H483      1.0  0.98213  0.41606  0.56614  1.0000
  C   C286      1.0  0.09052  0.21116  0.70667  1.0000
  S   S92       1.0  0.26371  0.25389  0.69588  1.0000
  H   H484      1.0  0.97770  0.42263  0.46225  1.0000
  C   C287      1.0  0.29893  0.23091  0.56368  1.0000
  C   C288      1.0  0.03196  0.40190  0.57898  1.0000
  H   H485      1.0  0.43837  0.12730  0.51531  1.0000
  C   C289      1.0  0.42671  0.14775  0.49303  1.0000
  C   C290      1.0  0.05940  0.25315  0.67541  1.0000
  H   H486      1.0  0.96450  0.44023  0.57155  1.0000
  H   H487      1.0  0.00658  0.38357  0.65307  1.0000
  H   H488      1.0  0.02169  0.25859  0.49147  1.0000
  H   H489      1.0  0.37719  0.43041  0.58330  1.0000
  H   H490      1.0  0.40019  0.24523  0.55089  1.0000
  H   H491      1.0  0.22054  0.41102  0.60734  1.0000
  H   H492      1.0  0.26603  0.41308  0.61486  1.0000
  H   H493      1.0  0.01046  0.31693  0.48833  1.0000
  H   H494      1.0  0.42872  0.36933  0.46254  1.0000
  H   H495      1.0  0.26237  0.39035  0.59708  1.0000
  H   H496      1.0  0.98870  0.41205  0.50805  1.0000
  C   C291      1.0  0.42997  0.42145  0.60933  1.0000
  H   H497      1.0  0.36830  0.24536  0.53293  1.0000
  H   H498      1.0  0.41578  0.12741  0.49855  1.0000
  H   H499      1.0  0.03669  0.37624  0.50837  1.0000
  H   H500      1.0  0.00560  0.35186  0.66053  1.0000
  H   H501      1.0  0.29999  0.21145  0.56848  1.0000
  H   H502      1.0  0.36243  0.27621  0.53927  1.0000
  H   H503      1.0  0.98058  0.40657  0.67786  1.0000
  C   C292      1.0  0.97650  0.42050  0.66030  1.0000
  S   S93       1.0  0.98888  0.30444  0.59634  1.0000
  C   C293      1.0  0.22951  0.43577  0.60544  1.0000
  H   H504      1.0  0.45944  0.12626  0.47323  1.0000
  H   H505      1.0  0.40609  0.98222  0.56751  1.0000
  H   H506      1.0  0.07334  0.24060  0.67303  1.0000
  H   H507      1.0  0.42712  0.15237  0.47340  1.0000
  H   H508      1.0  0.36971  0.40928  0.47674  1.0000
  H   H509      1.0  0.41297  0.28108  0.54403  1.0000
  H   H510      1.0  0.27502  0.38500  0.65616  1.0000
  H   H511      1.0  0.43951  0.41221  0.62734  1.0000
  C   C294      1.0  0.08315  0.22677  0.69597  1.0000
  N   N21       1.0  0.97138  0.36695  0.66613  1.0000
  C   C295      1.0  0.97568  0.42162  0.47204  1.0000
  C   C296      1.0  0.29897  0.24499  0.53378  1.0000
  H   H512      1.0  0.10458  0.24695  0.69429  1.0000
  H   H513      1.0  0.38304  0.31063  0.46621  1.0000
  H   H514      1.0  0.37081  0.39346  0.49066  1.0000
  C   C297      1.0  0.45726  0.39185  0.59142  1.0000
  H   H515      1.0  0.40805  0.40249  0.58730  1.0000
  H   H516      1.0  0.03547  0.23976  0.67255  1.0000
  H   H517      1.0  0.39305  0.27616  0.55752  1.0000
  C   C298      1.0  0.01750  0.18260  0.70201  1.0000
  C   C299      1.0  0.41937  0.42777  0.58850  1.0000
  H   H518      1.0  0.98874  0.24833  0.50819  1.0000
  H   H519      1.0  0.23015  0.39303  0.58973  1.0000
  H   H520      1.0  0.03163  0.16971  0.70050  1.0000
  H   H521      1.0  0.05173  0.41396  0.58504  1.0000
  H   H522      1.0  0.98049  0.36169  0.46533  1.0000
  H   H523      1.0  0.45589  0.18573  0.51027  1.0000
  N   N22       1.0  0.21844  0.31001  0.65588  1.0000
  C   C300      1.0  0.24600  0.33732  0.65215  1.0000
  C   C301      1.0  0.21791  0.28261  0.64896  1.0000
  C   C302      1.0  0.22172  0.30605  0.66902  1.0000
  C   C303      1.0  0.19107  0.31643  0.65321  1.0000
  C   C304      1.0  0.21559  0.28397  0.63536  1.0000
  C   C305      1.0  0.20454  0.27386  0.67392  1.0000
  C   C306      1.0  0.15978  0.29058  0.65526  1.0000
  H   H524      1.0  0.26634  0.33211  0.65237  1.0000
  H   H525      1.0  0.19906  0.26118  0.65151  1.0000
  H   H526      1.0  0.23870  0.27899  0.65108  1.0000
  H   H527      1.0  0.24587  0.31228  0.67155  1.0000
  H   H528      1.0  0.21493  0.32192  0.67431  1.0000
  H   H529      1.0  0.24349  0.34306  0.64280  1.0000
  H   H530      1.0  0.97358  0.44068  0.66399  1.0000
  H   H531      1.0  0.19561  0.28788  0.63239  1.0000
  H   H532      1.0  0.23644  0.30153  0.63173  1.0000
  H   H533      1.0  0.21318  0.26179  0.63135  1.0000
  H   H534      1.0  0.21450  0.25799  0.67082  1.0000
  H   H535      1.0  0.18007  0.26406  0.67174  1.0000
  H   H536      1.0  0.20717  0.27519  0.68375  1.0000
  H   H537      1.0  0.15308  0.29088  0.66461  1.0000
  H   H538      1.0  0.15818  0.26766  0.65274  1.0000
  C   C307      1.0  0.40829  0.39637  0.47982  1.0000
  C   C308      1.0  0.06207  0.26194  0.68874  1.0000
  H   H539      1.0  0.45721  0.11462  0.49570  1.0000
  C   C309      1.0  0.39392  0.43846  0.59080  1.0000
  H   H540      1.0  0.33499  0.01089  0.46443  1.0000
  H   H541      1.0  0.00190  0.44838  0.57609  1.0000
  S   S94       1.0  0.39344  0.00094  0.50963  1.0000
  H   H542      1.0  0.31290  0.98654  0.67099  1.0000
  H   H543      1.0  0.07209  0.45252  0.63208  1.0000
  H   H544      1.0  0.44247  0.02303  0.53082  1.0000
  N   N23       1.0  0.05752  0.23669  0.69730  1.0000
  H   H545      1.0  0.41232  0.01503  0.54075  1.0000
  C   C310      1.0  0.00284  0.37348  0.66200  1.0000
  C   C311      1.0  0.00110  0.45464  0.60320  1.0000
  H   H546      1.0  0.23139  0.29533  0.46466  1.0000
  C   C312      1.0  0.98125  0.26001  0.68727  1.0000
  H   H547      1.0  0.39121  0.13879  0.47969  1.0000
  H   H548      1.0  0.44987  0.37104  0.48243  1.0000
  H   H549      1.0  0.30354  0.45703  0.63038  1.0000
  N   N24       1.0  0.26345  0.44888  0.60418  1.0000
  H   H550      1.0  0.29269  0.24090  0.52420  1.0000
  H   H551      1.0  0.45415  0.07195  0.53675  1.0000
  H   H552      1.0  0.98757  0.37930  0.60890  1.0000
  C   C313      1.0  0.34552  0.99651  0.55971  1.0000
  H   H553      1.0  0.34680  0.25649  0.56432  1.0000
  H   H554      1.0  0.42264  0.39791  0.48778  1.0000
  C   C314      1.0  0.35118  0.18793  0.54286  1.0000
  C   C315      1.0  0.34051  0.20570  0.55192  1.0000
  C   C316      1.0  0.26986  0.43731  0.59243  1.0000
  H   H555      1.0  0.08481  0.28098  0.69009  1.0000
  C   C317      1.0  0.44988  0.44331  0.47267  1.0000
  H   H556      1.0  0.29511  0.97637  0.69166  1.0000
  C   C318      1.0  0.42186  0.00649  0.56657  1.0000
  H   H557      1.0  0.96961  0.33816  0.69477  1.0000
  H   H558      1.0  0.02938  0.44514  0.59115  1.0000
  H   H559      1.0  0.98577  0.44508  0.61065  1.0000
  H   H560      1.0  0.00614  0.26899  0.47885  1.0000
  H   H561      1.0  0.96960  0.32575  0.67429  1.0000
  H   H562      1.0  0.04441  0.29169  0.48302  1.0000
  H   H563      1.0  0.44814  0.99862  0.47106  1.0000
  N   N25       1.0  0.98891  0.40261  0.59251  1.0000
  H   H564      1.0  0.96668  0.31758  0.65052  1.0000
  H   H565      1.0  0.98981  0.46320  0.59647  1.0000
  C   C319      1.0  0.96751  0.39553  0.66968  1.0000
  H   H566      1.0  0.02918  0.41813  0.57279  1.0000
  H   H567      1.0  0.19198  0.43667  0.61543  1.0000
  H   H568      1.0  0.98671  0.36726  0.57973  1.0000
  C   C320      1.0  0.96667  0.40811  0.58447  1.0000
  C   C321      1.0  0.05629  0.24916  0.70957  1.0000
  N   N26       1.0  0.44790  0.00266  0.54719  1.0000
  S   S95       1.0  0.97377  0.30473  0.53969  1.0000
  C   C322      1.0  0.41355  0.13748  0.48040  1.0000
  C   C323      1.0  0.44456  0.39237  0.46598  1.0000
  C   C324      1.0  0.97182  0.38393  0.60275  1.0000
  H   H569      1.0  0.41802  0.46550  0.47501  1.0000
  C   C325      1.0  0.43739  0.02349  0.54040  1.0000
  H   H570      1.0  0.26233  0.44740  0.58490  1.0000
  S   S96       1.0  0.99740  0.28860  0.70962  1.0000
  H   H571      1.0  0.41722  0.16373  0.49644  1.0000
  C   C326      1.0  0.21682  0.45032  0.61500  1.0000
  H   H572      1.0  0.31234  0.34229  0.46401  1.0000
  S   S97       1.0  0.36683  0.46641  0.61761  1.0000
  C   C327      1.0  0.45818  0.47061  0.60036  1.0000
  C   C328      1.0  0.45237  0.42177  0.61923  1.0000
  H   H573      1.0  0.40233  0.46365  0.59143  1.0000
  C   C329      1.0  0.45111  0.00952  0.56037  1.0000
  C   C330      1.0  0.96524  0.31462  0.47014  1.0000
  H   H574      1.0  0.46137  0.15627  0.52573  1.0000
  C   C331      1.0  0.46089  0.14632  0.51673  1.0000
  H   H575      1.0  0.02075  0.47485  0.60685  1.0000
  Fe  Fe50      1.0  0.00238  0.20892  0.73720  1.0000
  S   S98       1.0  0.01867  0.25952  0.73757  1.0000
  S   S99       1.0  0.03504  0.18602  0.73675  1.0000
  H   H576      1.0  0.27461  0.20405  0.76814  1.0000
  S   S100      1.0  0.00556  0.29008  0.76673  1.0000
  H   H577      1.0  0.43169  0.44424  0.83203  1.0000
  C   C332      1.0  0.98764  0.26769  0.78936  1.0000
  H   H578      1.0  0.36757  0.02961  0.75857  1.0000
  Fe  Fe51      1.0  0.03633  0.33052  0.83936  1.0000
  S   S101      1.0  0.06872  0.38030  0.83985  1.0000
  S   S102      1.0  0.01319  0.29724  0.82362  1.0000
  Fe  Fe52      1.0  0.03118  0.32844  0.86703  1.0000
  S   S103      1.0  0.06206  0.37832  0.86928  1.0000
  S   S104      1.0  0.01031  0.29104  0.88079  1.0000
  Fe  Fe53      1.0  0.03794  0.38688  0.85340  1.0000
  S   S105      1.0  0.01664  0.42150  0.85141  1.0000
  Fe  Fe54      1.0  0.09072  0.36849  0.85560  1.0000
  S   S106      1.0  0.14072  0.38631  0.86060  1.0000
  S   S107      1.0  0.00449  0.33747  0.85225  1.0000
  S   S108      1.0  0.06111  0.31836  0.85408  1.0000
  H   H579      1.0  0.05927  0.19824  0.92588  1.0000
  H   H580      1.0  0.01625  0.35878  0.81571  1.0000
  S   S109      1.0  0.28546  0.05666  0.73216  1.0000
  Fe  Fe55      1.0  0.21275  0.24931  0.73527  1.0000
  S   S110      1.0  0.25514  0.28667  0.72879  1.0000
  S   S111      1.0  0.17670  0.26568  0.74032  1.0000
  Fe  Fe56      1.0  0.24157  0.20294  0.73541  1.0000
  S   S112      1.0  0.28628  0.23766  0.72925  1.0000
  S   S113      1.0  0.22894  0.15406  0.74146  1.0000
  Fe  Fe57      1.0  0.27896  0.27013  0.74241  1.0000
  S   S114      1.0  0.31320  0.30584  0.75504  1.0000
  Fe  Fe58      1.0  0.25837  0.25145  0.71617  1.0000
  S   S115      1.0  0.23654  0.23470  0.74940  1.0000
  S   S116      1.0  0.21383  0.21481  0.72182  1.0000
  Fe  Fe59      1.0  0.28125  0.37369  0.83427  1.0000
  S   S117      1.0  0.27935  0.32686  0.83593  1.0000
  S   S118      1.0  0.23882  0.37554  0.82649  1.0000
  Fe  Fe60      1.0  0.34864  0.40348  0.84119  1.0000
  S   S119      1.0  0.35085  0.35750  0.84311  1.0000
  S   S120      1.0  0.38404  0.45213  0.84603  1.0000
  Fe  Fe61      1.0  0.32257  0.34397  0.82600  1.0000
  S   S121      1.0  0.32073  0.30875  0.81166  1.0000
  Fe  Fe62      1.0  0.30685  0.34366  0.85283  1.0000
  S   S122      1.0  0.28972  0.30879  0.86770  1.0000
  S   S123      1.0  0.32333  0.39061  0.82351  1.0000
  S   S124      1.0  0.30564  0.38988  0.85181  1.0000
  H   H581      1.0  0.28760  0.03874  0.78397  1.0000
  H   H582      1.0  0.03140  0.42279  0.81216  1.0000
  C   C333      1.0  0.37454  0.09024  0.77677  1.0000
  Fe  Fe63      1.0  0.98494  0.25331  0.75186  1.0000
  H   H583      1.0  0.13623  0.26493  0.91745  1.0000
  H   H584      1.0  0.30821  0.01416  0.79529  1.0000
  H   H585      1.0  0.31503  0.23675  0.90625  1.0000
  H   H586      1.0  0.27775  0.00905  0.77300  1.0000
  H   H587      1.0  0.13041  0.18816  0.95082  1.0000
  H   H588      1.0  0.03012  0.19180  0.91502  1.0000
  Fe  Fe64      1.0  0.26043  0.26958  0.93803  1.0000
  S   S125      1.0  0.27902  0.30734  0.92427  1.0000
  S   S126      1.0  0.21693  0.22746  0.93645  1.0000
  C   C334      1.0  0.34296  0.16732  0.76736  1.0000
  C   C335      1.0  0.03482  0.46216  0.85104  1.0000
  N   N27       1.0  0.32349  0.04386  0.77171  1.0000
  H   H589      1.0  0.98195  0.34611  0.79106  1.0000
  Fe  Fe65      1.0  0.20812  0.24000  0.95498  1.0000
  H   H590      1.0  0.33004  0.16869  0.73871  1.0000
  N   N28       1.0  0.36505  0.30647  0.91996  1.0000
  H   H591      1.0  0.06742  0.28952  0.76831  1.0000
  C   C336      1.0  0.24937  0.08266  0.95065  1.0000
  H   H592      1.0  0.34981  0.27501  0.93454  1.0000
  H   H593      1.0  0.08245  0.28306  0.72304  1.0000
  H   H594      1.0  0.38551  0.11345  0.77312  1.0000
  C   C337      1.0  0.28653  0.30917  0.88342  1.0000
  C   C338      1.0  0.27228  0.28120  0.88915  1.0000
  C   C339      1.0  0.26890  0.28015  0.90157  1.0000
  C   C340      1.0  0.28004  0.30715  0.90847  1.0000
  C   C341      1.0  0.29405  0.33514  0.90273  1.0000
  C   C342      1.0  0.29728  0.33619  0.89030  1.0000
  H   H595      1.0  0.26385  0.26013  0.88393  1.0000
  H   H596      1.0  0.25820  0.25843  0.90582  1.0000
  H   H597      1.0  0.30280  0.35620  0.90796  1.0000
  H   H598      1.0  0.30829  0.35788  0.88606  1.0000
  H   H599      1.0  0.05931  0.29567  0.95109  1.0000
  H   H600      1.0  0.07449  0.16026  0.94844  1.0000
  H   H601      1.0  0.17671  0.98332  0.92715  1.0000
  C   C343      1.0  0.31620  0.30938  0.79601  1.0000
  C   C344      1.0  0.33177  0.33562  0.78956  1.0000
  C   C345      1.0  0.33043  0.33420  0.77704  1.0000
  C   C346      1.0  0.31279  0.30684  0.77081  1.0000
  C   C347      1.0  0.29639  0.28086  0.77726  1.0000
  C   C348      1.0  0.29866  0.28199  0.78976  1.0000
  H   H602      1.0  0.34586  0.35670  0.79421  1.0000
  H   H603      1.0  0.34338  0.35440  0.77215  1.0000
  H   H604      1.0  0.28265  0.25968  0.77262  1.0000
  H   H605      1.0  0.28686  0.26147  0.79465  1.0000
  C   C349      1.0  0.26799  0.08257  0.73407  1.0000
  C   C350      1.0  0.28181  0.11192  0.72937  1.0000
  C   C351      1.0  0.26963  0.13375  0.73119  1.0000
  C   C352      1.0  0.24389  0.12673  0.73801  1.0000
  C   C353      1.0  0.23011  0.09740  0.74272  1.0000
  C   C354      1.0  0.24186  0.07534  0.74067  1.0000
  C   C355      1.0  0.35629  0.04230  0.75390  1.0000
  H   H606      1.0  0.28026  0.15605  0.72738  1.0000
  H   H607      1.0  0.21010  0.09165  0.74796  1.0000
  H   H608      1.0  0.23088  0.05289  0.74433  1.0000
  C   C356      1.0  0.25764  0.11096  0.94518  1.0000
  H   H609      1.0  0.02712  0.20677  0.92925  1.0000
  C   C357      1.0  0.16765  0.38392  0.85079  1.0000
  C   C358      1.0  0.19812  0.39536  0.85457  1.0000
  C   C359      1.0  0.22004  0.39245  0.84725  1.0000
  C   C360      1.0  0.21171  0.37871  0.83599  1.0000
  C   C361      1.0  0.18140  0.36793  0.83208  1.0000
  C   C362      1.0  0.15932  0.37021  0.83951  1.0000
  H   H610      1.0  0.20468  0.40624  0.86325  1.0000
  H   H611      1.0  0.24339  0.40108  0.85025  1.0000
  H   H612      1.0  0.17489  0.35747  0.82333  1.0000
  H   H613      1.0  0.13591  0.36141  0.83652  1.0000
  C   C363      1.0  0.00453  0.29080  0.89636  1.0000
  H   H614      1.0  0.38225  0.35540  0.92354  1.0000
  H   H615      1.0  0.00730  0.33628  0.92032  1.0000
  C   C364      1.0  0.99423  0.28776  0.92115  1.0000
  C   C365      1.0  0.00384  0.31567  0.91530  1.0000
  C   C366      1.0  0.00916  0.31726  0.90301  1.0000
  C   C367      1.0  0.20772  0.08953  0.95976  1.0000
  H   H616      1.0  0.10392  0.18499  0.77089  1.0000
  S   S127      1.0  0.24007  0.97867  0.74969  1.0000
  H   H617      1.0  0.01659  0.33892  0.89866  1.0000
  H   H618      1.0  0.33623  0.09078  0.76683  1.0000
  C   C368      1.0  0.37589  0.34931  0.90476  1.0000
  H   H619      1.0  0.09041  0.32996  0.91037  1.0000
  C   C369      1.0  0.08211  0.18289  0.77467  1.0000
  H   H620      1.0  0.97314  0.16438  0.77683  1.0000
  C   C370      1.0  0.07448  0.20822  0.73749  1.0000
  C   C371      1.0  0.09450  0.19411  0.73595  1.0000
  C   C372      1.0  0.12603  0.21141  0.73661  1.0000
  C   C373      1.0  0.13759  0.24284  0.73902  1.0000
  H   H621      1.0  0.36816  0.18191  0.74504  1.0000
  C   C374      1.0  0.08618  0.23958  0.73995  1.0000
  H   H622      1.0  0.08563  0.16976  0.73415  1.0000
  H   H623      1.0  0.14134  0.20043  0.73535  1.0000
  C   C375      1.0  0.07430  0.27074  0.77042  1.0000
  H   H624      1.0  0.20341  0.13155  0.95597  1.0000
  C   C376      1.0  0.00751  0.29121  0.78255  1.0000
  C   C377      1.0  0.03501  0.40759  0.81858  1.0000
  C   C378      1.0  0.01196  0.29576  0.80778  1.0000
  C   C379      1.0  0.03200  0.31918  0.80097  1.0000
  C   C380      1.0  0.02962  0.31696  0.78846  1.0000
  H   H625      1.0  0.04941  0.33895  0.80532  1.0000
  H   H626      1.0  0.04515  0.33531  0.78330  1.0000
  N   N29       1.0  0.22508  0.30858  0.77932  1.0000
  C   C381      1.0  0.25249  0.33466  0.78466  1.0000
  C   C382      1.0  0.23234  0.30321  0.76674  1.0000
  C   C383      1.0  0.21916  0.28061  0.78660  1.0000
  C   C384      1.0  0.19876  0.31760  0.77979  1.0000
  C   C385      1.0  0.25147  0.34139  0.79807  1.0000
  C   C386      1.0  0.24082  0.33046  0.75844  1.0000
  C   C387      1.0  0.20502  0.24913  0.78011  1.0000
  C   C388      1.0  0.16914  0.29564  0.77357  1.0000
  H   H627      1.0  0.27313  0.33045  0.78329  1.0000
  H   H628      1.0  0.25662  0.35641  0.78020  1.0000
  H   H629      1.0  0.21326  0.28408  0.76226  1.0000
  H   H630      1.0  0.25146  0.29609  0.76669  1.0000
  H   H631      1.0  0.24064  0.28141  0.79060  1.0000
  H   H632      1.0  0.20476  0.27994  0.79429  1.0000
  H   H633      1.0  0.19293  0.32011  0.78913  1.0000
  H   H634      1.0  0.20491  0.34045  0.77593  1.0000
  H   H635      1.0  0.27321  0.36037  0.80089  1.0000
  H   H636      1.0  0.23335  0.34901  0.80016  1.0000
  H   H637      1.0  0.24920  0.32179  0.80361  1.0000
  H   H638      1.0  0.26293  0.34912  0.76101  1.0000
  H   H639      1.0  0.24343  0.32269  0.74936  1.0000
  H   H640      1.0  0.22292  0.33912  0.75781  1.0000
  H   H641      1.0  0.19812  0.23091  0.78676  1.0000
  H   H642      1.0  0.22198  0.24566  0.77447  1.0000
  H   H643      1.0  0.18485  0.24565  0.77456  1.0000
  H   H644      1.0  0.17190  0.29274  0.76396  1.0000
  H   H645      1.0  0.15205  0.30541  0.77435  1.0000
  H   H646      1.0  0.15962  0.27324  0.77783  1.0000
  H   H647      1.0  0.04048  0.41980  0.82734  1.0000
  N   N30       1.0  0.05008  0.21463  0.77682  1.0000
  H   H648      1.0  0.31021  0.01168  0.75685  1.0000
  C   C389      1.0  0.04581  0.24044  0.77085  1.0000
  C   C390      1.0  0.02177  0.18573  0.77480  1.0000
  C   C391      1.0  0.05817  0.22101  0.78987  1.0000
  H   H649      1.0  0.38832  0.26001  0.91704  1.0000
  C   C392      1.0  0.30115  0.18934  0.75587  1.0000
  H   H650      1.0  0.35783  0.30964  0.95089  1.0000
  C   C393      1.0  0.04408  0.23994  0.79673  1.0000
  C   C394      1.0  0.07544  0.21007  0.77066  1.0000
  C   C395      1.0  0.36891  0.31975  0.94250  1.0000
  H   H651      1.0  0.02799  0.24564  0.77511  1.0000
  H   H652      1.0  0.33460  0.15411  0.75897  1.0000
  H   H653      1.0  0.02462  0.16570  0.77840  1.0000
  C   C396      1.0  0.27347  0.04993  0.76748  1.0000
  H   H654      1.0  0.08309  0.23359  0.79128  1.0000
  C   C397      1.0  0.21641  0.11816  0.95452  1.0000
  H   H655      1.0  0.09716  0.23058  0.77183  1.0000
  H   H656      1.0  0.29011  0.19678  0.74861  1.0000
  C   C398      1.0  0.20734  0.97951  0.90597  1.0000
  H   H657      1.0  0.01699  0.18073  0.76510  1.0000
  H   H658      1.0  0.12636  0.28106  0.74268  1.0000
  H   H659      1.0  0.09227  0.23552  0.93770  1.0000
  H   H660      1.0  0.35926  0.03033  0.77757  1.0000
  H   H661      1.0  0.05312  0.26399  0.79395  1.0000
  H   H662      1.0  0.04991  0.24060  0.80632  1.0000
  H   H663      1.0  0.01920  0.23027  0.79595  1.0000
  H   H664      1.0  0.39472  0.27354  0.93243  1.0000
  H   H665      1.0  0.40574  0.31345  0.91043  1.0000
  H   H666      1.0  0.26000  0.16391  0.76541  1.0000
  H   H667      1.0  0.29249  0.18176  0.77505  1.0000
  C   C399      1.0  0.24102  0.12866  0.94699  1.0000
  H   H668      1.0  0.41248  0.32773  0.92524  1.0000
  H   H669      1.0  0.27705  0.11923  0.93952  1.0000
  H   H670      1.0  0.35334  0.03409  0.74449  1.0000
  H   H671      1.0  0.96978  0.32515  0.80861  1.0000
  H   H672      1.0  0.32833  0.29647  0.93205  1.0000
  Fe  Fe66      1.0  0.97412  0.24705  0.94920  1.0000
  C   C400      1.0  0.34500  0.28405  0.91055  1.0000
  H   H673      1.0  0.33899  0.24028  0.91889  1.0000
  H   H674      1.0  0.22334  0.02420  0.93592  1.0000
  C   C401      1.0  0.00865  0.37573  0.81966  1.0000
  C   C402      1.0  0.32575  0.25104  0.91429  1.0000
  H   H675      1.0  0.01841  0.37489  0.79599  1.0000
  N   N31       1.0  0.97802  0.37123  0.81466  1.0000
  S   S128      1.0  0.98795  0.28717  0.93667  1.0000
  H   H676      1.0  0.27055  0.04316  0.75795  1.0000
  H   H677      1.0  0.99119  0.24224  0.89715  1.0000
  H   H678      1.0  0.99084  0.40833  0.80213  1.0000
  H   H679      1.0  0.08531  0.31737  0.94037  1.0000
  H   H680      1.0  0.06254  0.31370  0.92127  1.0000
  H   H681      1.0  0.35835  0.28280  0.90276  1.0000
  H   H682      1.0  0.29881  0.16645  0.75285  1.0000
  H   H683      1.0  0.31609  0.04945  0.75306  1.0000
  H   H684      1.0  0.30192  0.11770  0.72419  1.0000
  C   C403      1.0  0.39684  0.30839  0.91954  1.0000
  C   C404      1.0  0.98992  0.26132  0.91453  1.0000
  H   H685      1.0  0.08939  0.26985  0.76326  1.0000
  H   H686      1.0  0.05204  0.19924  0.79462  1.0000
  H   H687      1.0  0.39279  0.32285  0.94334  1.0000
  H   H688      1.0  0.30697  0.25024  0.92000  1.0000
  H   H689      1.0  0.07071  0.20690  0.76096  1.0000
  Fe  Fe67      1.0  0.24236  0.20352  0.94587  1.0000
  H   H690      1.0  0.34001  0.05113  0.79598  1.0000
  H   H691      1.0  0.05560  0.40482  0.81571  1.0000
  S   S129      1.0  0.28633  0.24505  0.94626  1.0000
  S   S130      1.0  0.25073  0.16278  0.93917  1.0000
  H   H692      1.0  0.36752  0.34215  0.94194  1.0000
  C   C405      1.0  0.35204  0.18844  0.73999  1.0000
  H   H693      1.0  0.08726  0.27678  0.77894  1.0000
  H   H694      1.0  0.34368  0.33809  0.91881  1.0000
  H   H695      1.0  0.36376  0.16439  0.77001  1.0000
  C   C406      1.0  0.11755  0.25678  0.74075  1.0000
  C   C407      1.0  0.21195  0.03021  0.92843  1.0000
  Fe  Fe68      1.0  0.99171  0.19716  0.95797  1.0000
  H   H696      1.0  0.32657  0.15671  0.77446  1.0000
  H   H697      1.0  0.00712  0.37053  0.82925  1.0000
  H   H698      1.0  0.38184  0.26393  0.76745  1.0000
  H   H699      1.0  0.36144  0.19457  0.73101  1.0000
  H   H700      1.0  0.37957  0.09330  0.78646  1.0000
  C   C408      1.0  0.98982  0.27005  0.80187  1.0000
  C   C409      1.0  0.28130  0.18473  0.76686  1.0000
  C   C410      1.0  0.99266  0.18481  0.78042  1.0000
  N   N32       1.0  0.33376  0.21161  0.75756  1.0000
  C   C411      1.0  0.33362  0.24177  0.76151  1.0000
  H   H701      1.0  0.13946  0.24066  0.92865  1.0000
  C   C412      1.0  0.34918  0.21633  0.74578  1.0000
  C   C413      1.0  0.35063  0.20190  0.76680  1.0000
  C   C414      1.0  0.36473  0.26922  0.76253  1.0000
  C   C415      1.0  0.36620  0.33765  0.91737  1.0000
  H   H702      1.0  0.06051  0.29363  0.90731  1.0000
  H   H703      1.0  0.31910  0.24829  0.75540  1.0000
  H   H704      1.0  0.32356  0.24006  0.77040  1.0000
  H   H705      1.0  0.38600  0.07677  0.77283  1.0000
  H   H706      1.0  0.33734  0.22501  0.73925  1.0000
  H   H707      1.0  0.37277  0.23400  0.74657  1.0000
  H   H708      1.0  0.37550  0.21409  0.76568  1.0000
  H   H709      1.0  0.34615  0.20877  0.77582  1.0000
  H   H710      1.0  0.36222  0.28824  0.76746  1.0000
  H   H711      1.0  0.09438  0.29213  0.94991  1.0000
  H   H712      1.0  0.37314  0.27806  0.75366  1.0000
  H   H713      1.0  0.07114  0.25061  0.74142  1.0000
  H   H714      1.0  0.03751  0.23382  0.76151  1.0000
  H   H715      1.0  0.10941  0.22532  0.91790  1.0000
  C   C416      1.0  0.32492  0.03623  0.75877  1.0000
  N   N33       1.0  0.20509  0.32162  0.87526  1.0000
  C   C417      1.0  0.20662  0.30009  0.86562  1.0000
  C   C418      1.0  0.20493  0.30694  0.88698  1.0000
  C   C419      1.0  0.23312  0.35106  0.87455  1.0000
  C   C420      1.0  0.17677  0.32670  0.87303  1.0000
  C   C421      1.0  0.21111  0.31242  0.85291  1.0000
  C   C422      1.0  0.17789  0.27624  0.88890  1.0000
  C   C423      1.0  0.24308  0.37195  0.88576  1.0000
  C   C424      1.0  0.16843  0.34548  0.88241  1.0000
  H   H716      1.0  0.22536  0.29294  0.86755  1.0000
  H   H717      1.0  0.18559  0.27869  0.86515  1.0000
  H   H718      1.0  0.20551  0.32200  0.89461  1.0000
  H   H719      1.0  0.22594  0.30311  0.88812  1.0000
  H   H720      1.0  0.25310  0.34628  0.87225  1.0000
  H   H721      1.0  0.23056  0.36515  0.86729  1.0000
  H   H722      1.0  0.17838  0.33880  0.86462  1.0000
  H   H723      1.0  0.15665  0.30481  0.87133  1.0000
  H   H724      1.0  0.21266  0.29480  0.84677  1.0000
  H   H725      1.0  0.19181  0.31716  0.84967  1.0000
  H   H726      1.0  0.23246  0.33307  0.85208  1.0000
  H   H727      1.0  0.17951  0.26892  0.89808  1.0000
  H   H728      1.0  0.15593  0.27812  0.88799  1.0000
  H   H729      1.0  0.17831  0.25791  0.88289  1.0000
  H   H730      1.0  0.26228  0.39359  0.88352  1.0000
  H   H731      1.0  0.25162  0.36163  0.89285  1.0000
  H   H732      1.0  0.22510  0.37810  0.88923  1.0000
  H   H733      1.0  0.17919  0.37020  0.88051  1.0000
  H   H734      1.0  0.17385  0.34185  0.89163  1.0000
  H   H735      1.0  0.14351  0.33831  0.88210  1.0000
  N   N34       1.0  0.22887  0.03274  0.91709  1.0000
  C   C425      1.0  0.26019  0.05784  0.91902  1.0000
  C   C426      1.0  0.21390  0.04162  0.90692  1.0000
  Fe  Fe69      1.0  0.98181  0.25242  0.72403  1.0000
  H   H736      1.0  0.06472  0.16087  0.77114  1.0000
  C   C427      1.0  0.28232  0.05008  0.92690  1.0000
  C   C428      1.0  0.21070  0.07214  0.90853  1.0000
  C   C429      1.0  0.97443  0.42057  0.82300  1.0000
  H   H737      1.0  0.23291  0.09196  0.90950  1.0000
  H   H738      1.0  0.27151  0.06520  0.91039  1.0000
  H   H739      1.0  0.25902  0.07854  0.92313  1.0000
  S   S131      1.0  0.02512  0.17621  0.95419  1.0000
  H   H740      1.0  0.19074  0.02403  0.90496  1.0000
  H   H741      1.0  0.05323  0.23224  0.71650  1.0000
  H   H742      1.0  0.37090  0.06705  0.75378  1.0000
  H   H743      1.0  0.25414  0.43659  0.81689  1.0000
  H   H744      1.0  0.16468  0.01203  0.92163  1.0000
  H   H745      1.0  0.27162  0.03650  0.93469  1.0000
  H   H746      1.0  0.98274  0.23971  0.91888  1.0000
  H   H747      1.0  0.30096  0.07154  0.93025  1.0000
  H   H748      1.0  0.97015  0.32327  0.83089  1.0000
  H   H749      1.0  0.19940  0.07594  0.90047  1.0000
  H   H750      1.0  0.19630  0.07190  0.91611  1.0000
  C   C430      1.0  0.11575  0.19881  0.95369  1.0000
  H   H751      1.0  0.32340  0.00053  0.77641  1.0000
  H   H752      1.0  0.29046  0.43411  0.83285  1.0000
  Fe  Fe70      1.0  0.26415  0.00464  0.73381  1.0000
  H   H753      1.0  0.97030  0.24787  0.78499  1.0000
  H   H754      1.0  0.08428  0.18223  0.78444  1.0000
  N   N35       1.0  0.07987  0.26413  0.92618  1.0000
  C   C431      1.0  0.06035  0.26811  0.93578  1.0000
  C   C432      1.0  0.05987  0.23991  0.91744  1.0000
  C   C433      1.0  0.09605  0.29334  0.91970  1.0000
  C   C434      1.0  0.10320  0.25505  0.93184  1.0000
  C   C435      1.0  0.07622  0.29497  0.94468  1.0000
  C   C436      1.0  0.04346  0.20756  0.92234  1.0000
  C   C437      1.0  0.07585  0.30811  0.91447  1.0000
  C   C438      1.0  0.12295  0.24610  0.92330  1.0000
  H   H755      1.0  0.04031  0.27067  0.93192  1.0000
  H   H756      1.0  0.05074  0.24732  0.94120  1.0000
  H   H757      1.0  0.07278  0.23827  0.90958  1.0000
  H   H758      1.0  0.04173  0.24607  0.91381  1.0000
  H   H759      1.0  0.11374  0.31076  0.92550  1.0000
  H   H760      1.0  0.10845  0.28950  0.91207  1.0000
  H   H761      1.0  0.11912  0.27378  0.93771  1.0000
  H   H762      1.0  0.21213  0.05264  0.93114  1.0000
  C   C439      1.0  0.40100  0.27961  0.92312  1.0000
  C   C440      1.0  0.29045  0.03416  0.77447  1.0000
  S   S132      1.0  0.16777  0.24915  0.96100  1.0000
  H   H763      1.0  0.37414  0.37151  0.90383  1.0000
  H   H764      1.0  0.32783  0.45704  0.84788  1.0000
  H   H765      1.0  0.42529  0.28407  0.92247  1.0000
  S   S133      1.0  0.25081  0.28346  0.95618  1.0000
  H   H766      1.0  0.16919  0.00818  0.93714  1.0000
  H   H767      1.0  0.22669  0.04305  0.89865  1.0000
  H   H768      1.0  0.31414  0.98911  0.90494  1.0000
  C   C441      1.0  0.35182  0.29799  0.93208  1.0000
  H   H769      1.0  0.99318  0.18204  0.79014  1.0000
  H   H770      1.0  0.25343  0.00804  0.90931  1.0000
  C   C442      1.0  0.23205  0.00335  0.91408  1.0000
  H   H771      1.0  0.28449  0.07513  0.76844  1.0000
  H   H772      1.0  0.32809  0.29187  0.90689  1.0000
  C   C443      1.0  0.34001  0.07771  0.77427  1.0000
  C   C444      1.0  0.33517  0.02498  0.77910  1.0000
  S   S134      1.0  0.97055  0.20239  0.75227  1.0000
  S   S135      1.0  0.29637  0.98139  0.73287  1.0000
  C   C445      1.0  0.99481  0.26284  0.90221  1.0000
  H   H773      1.0  0.39977  0.35356  0.90316  1.0000
  H   H774      1.0  0.36106  0.33386  0.89768  1.0000
  H   H775      1.0  0.29299  0.03748  0.92170  1.0000
  H   H776      1.0  0.33046  0.08419  0.78226  1.0000
  H   H777      1.0  0.10561  0.27606  0.71220  1.0000
  H   H778      1.0  0.98775  0.20475  0.77834  1.0000
  C   C446      1.0  0.12831  0.22816  0.95886  1.0000
  S   S136      1.0  0.96735  0.20147  0.72269  1.0000
  H   H779      1.0  0.34554  0.01659  0.79717  1.0000
  H   H780      1.0  0.99869  0.43225  0.82548  1.0000
  H   H781      1.0  0.25027  0.04251  0.77095  1.0000
  C   C447      1.0  0.33194  0.02723  0.79263  1.0000
  S   S137      1.0  0.27559  0.00272  0.95952  1.0000
  C   C448      1.0  0.97934  0.38318  0.80232  1.0000
  H   H782      1.0  0.99275  0.46697  0.84880  1.0000
  H   H783      1.0  0.26249  0.06937  0.94935  1.0000
  C   C449      1.0  0.22383  0.07143  0.95770  1.0000
  H   H784      1.0  0.30756  0.18262  0.95705  1.0000
  H   H785      1.0  0.08025  0.46560  0.85322  1.0000
  C   C450      1.0  0.17876  0.00698  0.92834  1.0000
  C   C451      1.0  0.08400  0.27834  0.71347  1.0000
  H   H786      1.0  0.99673  0.38275  0.78466  1.0000
  C   C452      1.0  0.99505  0.37078  0.79312  1.0000
  C   C453      1.0  0.44087  0.46708  0.83589  1.0000
  H   H787      1.0  0.10943  0.22791  0.71218  1.0000
  Fe  Fe71      1.0  0.22755  0.99754  0.96076  1.0000
  H   H788      1.0  0.28046  0.45412  0.85563  1.0000
  C   C454      1.0  0.08406  0.18307  0.95236  1.0000
  H   H789      1.0  0.97413  0.25178  0.80702  1.0000
  C   C455      1.0  0.28830  0.45584  0.83097  1.0000
  H   H790      1.0  0.20950  0.98715  0.89667  1.0000
  H   H791      1.0  0.23391  0.99174  0.92228  1.0000
  H   H792      1.0  0.29151  0.44583  0.81203  1.0000
  H   H793      1.0  0.96475  0.37939  0.83222  1.0000
  H   H794      1.0  0.26890  0.45532  0.83626  1.0000
  H   H795      1.0  0.96953  0.42912  0.81452  1.0000
  H   H796      1.0  0.34446  0.46072  0.82769  1.0000
  C   C456      1.0  0.06476  0.19664  0.95605  1.0000
  C   C457      1.0  0.27788  0.45386  0.81787  1.0000
  C   C458      1.0  0.07739  0.22611  0.96111  1.0000
  H   H797      1.0  0.01720  0.18807  0.71155  1.0000
  H   H798      1.0  0.07126  0.19858  0.71234  1.0000
  S   S138      1.0  0.28466  0.97567  0.92732  1.0000
  H   H799      1.0  0.27574  0.91169  0.01994  1.0000
  H   H800      1.0  0.04136  0.59477  0.03839  1.0000
  H   H801      1.0  0.22686  0.97258  0.02521  1.0000
  H   H802      1.0  0.01835  0.53567  0.04569  1.0000
  H   H803      1.0  0.25126  0.94230  0.01826  1.0000
  H   H804      1.0  0.26546  0.96238  0.11461  1.0000
  C   C459      1.0  0.96537  0.62983  0.11636  1.0000
  S   S139      1.0  0.21426  0.96000  0.97405  1.0000
  H   H805      1.0  0.11437  0.72828  0.13562  1.0000
  Fe  Fe72      1.0  0.97189  0.66613  0.97379  1.0000
  H   H806      1.0  0.13602  0.78138  0.14506  1.0000
  H   H807      1.0  0.04189  0.68892  0.11218  1.0000
  H   H808      1.0  0.09867  0.75310  0.13068  1.0000
  H   H809      1.0  0.98551  0.53105  0.02143  1.0000
  Fe  Fe73      1.0  0.02089  0.72988  0.96820  1.0000
  Fe  Fe74      1.0  0.21849  0.92732  0.18322  1.0000
  S   S140      1.0  0.26225  0.92107  0.18115  1.0000
  S   S141      1.0  0.16716  0.89673  0.18242  1.0000
  H   H810      1.0  0.17149  0.83910  0.00651  1.0000
  C   C460      1.0  0.28503  0.96894  0.13233  1.0000
  C   C461      1.0  0.21712  0.91374  0.99878  1.0000
  H   H811      1.0  0.00555  0.50464  0.03512  1.0000
  H   H812      1.0  0.02418  0.55296  0.02478  1.0000
  S   S142      1.0  0.23504  0.95561  0.20017  1.0000
  H   H813      1.0  0.13883  0.84576  0.00960  1.0000
  Fe  Fe75      1.0  0.02635  0.72642  0.18049  1.0000
  S   S143      1.0  0.01481  0.67706  0.18448  1.0000
  S   S144      1.0  0.07738  0.75454  0.17792  1.0000
  H   H814      1.0  0.05758  0.73282  0.20230  1.0000
  H   H815      1.0  0.04413  0.60867  0.01978  1.0000
  C   C462      1.0  0.05579  0.69392  0.13072  1.0000
  S   S145      1.0  0.98925  0.71478  0.16648  1.0000
  S   S146      1.0  0.99722  0.73070  0.19508  1.0000
  H   H816      1.0  0.97303  0.67645  0.14073  1.0000
  C   C463      1.0  0.01834  0.59196  0.04099  1.0000
  H   H817      1.0  0.04932  0.66107  0.16348  1.0000
  C   C464      1.0  0.06562  0.79180  0.20807  1.0000
  H   H818      1.0  0.97609  0.67779  0.11872  1.0000
  S   S147      1.0  0.97006  0.63240  0.10074  1.0000
  C   C465      1.0  0.09929  0.73947  0.13838  1.0000
  C   C466      1.0  0.96402  0.65862  0.00925  1.0000
  S   S148      1.0  0.06513  0.76497  0.97646  1.0000
  H   H819      1.0  0.02702  0.63865  0.03544  1.0000
  H   H820      1.0  0.17292  0.95721  0.18955  1.0000
  H   H821      1.0  0.97350  0.68136  0.02647  1.0000
  H   H822      1.0  0.12399  0.92783  0.18131  1.0000
  C   C467      1.0  0.14284  0.85695  0.18128  1.0000
  C   C468      1.0  0.11127  0.84799  0.18135  1.0000
  C   C469      1.0  0.09093  0.81692  0.18037  1.0000
  C   C470      1.0  0.10186  0.79421  0.17933  1.0000
  C   C471      1.0  0.13341  0.80312  0.17926  1.0000
  C   C472      1.0  0.15377  0.83422  0.18025  1.0000
  H   H823      1.0  0.10244  0.86526  0.18210  1.0000
  H   H824      1.0  0.06678  0.81060  0.18031  1.0000
  H   H825      1.0  0.20812  0.89666  0.98052  1.0000
  H   H826      1.0  0.17793  0.84063  0.18014  1.0000
  C   C473      1.0  0.18049  0.88516  0.01401  1.0000
  H   H827      1.0  0.17003  0.95098  0.16881  1.0000
  H   H828      1.0  0.03703  0.65073  0.14851  1.0000
  C   C474      1.0  0.22966  0.88160  0.01353  1.0000
  C   C475      1.0  0.22683  0.92890  0.01990  1.0000
  H   H829      1.0  0.02503  0.67622  0.15687  1.0000
  H   H830      1.0  0.01513  0.58102  0.04978  1.0000
  H   H831      1.0  0.16200  0.85459  0.97412  1.0000
  N   N36       1.0  0.21350  0.90203  0.01125  1.0000
  H   H832      1.0  0.22101  0.86089  0.00771  1.0000
  H   H833      1.0  0.17794  0.87813  0.02344  1.0000
  H   H834      1.0  0.22531  0.87273  0.02269  1.0000
  Fe  Fe76      1.0  0.27942  0.95256  0.19743  1.0000
  C   C476      1.0  0.08999  0.79942  0.97004  1.0000
  H   H835      1.0  0.99727  0.62328  0.04607  1.0000
  H   H836      1.0  0.02304  0.71174  0.14428  1.0000
  H   H837      1.0  0.10155  0.77281  0.15267  1.0000
  C   C477      1.0  0.16220  0.85663  0.00624  1.0000
  H   H838      1.0  0.18977  0.94319  0.02354  1.0000
  C   C478      1.0  0.11588  0.76246  0.14858  1.0000
  H   H839      1.0  0.03195  0.71552  0.12008  1.0000
  C   C479      1.0  0.11719  0.94551  0.18515  1.0000
  H   H840      1.0  0.98698  0.60794  0.02307  1.0000
  H   H841      1.0  0.08108  0.71216  0.15949  1.0000
  C   C480      1.0  0.26432  0.89654  0.01219  1.0000
  H   H842      1.0  0.03346  0.67552  0.13273  1.0000
  H   H843      1.0  0.02528  0.62292  0.00966  1.0000
  C   C481      1.0  0.05018  0.70740  0.11913  1.0000
  H   H844      1.0  0.12526  0.93020  0.20252  1.0000
  H   H845      1.0  0.26344  0.95844  0.13657  1.0000
  H   H846      1.0  0.24202  0.89703  0.98640  1.0000
  H   H847      1.0  0.05897  0.77859  0.14395  1.0000
  N   N37       1.0  0.06837  0.71568  0.14121  1.0000
  C   C482      1.0  0.13961  0.84280  0.97026  1.0000
  S   S149      1.0  0.01780  0.68218  0.96562  1.0000
  H   H848      1.0  0.05843  0.76125  0.12957  1.0000
  H   H849      1.0  0.27116  0.90972  0.00400  1.0000
  H   H850      1.0  0.15987  0.86278  0.99696  1.0000
  C   C483      1.0  0.04416  0.66993  0.15511  1.0000
  C   C484      1.0  0.04669  0.72930  0.14495  1.0000
  C   C485      1.0  0.10749  0.93492  0.19779  1.0000
  S   S150      1.0  0.97653  0.71374  0.97759  1.0000
  H   H851      1.0  0.09014  0.68885  0.14923  1.0000
  Fe  Fe77      1.0  0.27791  0.96394  0.17028  1.0000
  H   H852      1.0  0.02424  0.75540  0.13676  1.0000
  C   C486      1.0  0.21255  0.95229  0.01964  1.0000
  H   H853      1.0  0.12433  0.75181  0.15557  1.0000
  H   H854      1.0  0.02361  0.58496  0.00729  1.0000
  H   H855      1.0  0.14225  0.78588  0.17840  1.0000
  H   H856      1.0  0.09659  0.94343  0.18001  1.0000
  C   C487      1.0  0.07264  0.69753  0.15133  1.0000
  C   C488      1.0  0.00072  0.52375  0.03879  1.0000
  C   C489      1.0  0.99392  0.58901  0.02115  1.0000
  C   C490      1.0  0.97077  0.65651  0.12316  1.0000
  C   C491      1.0  0.11902  0.81554  0.97517  1.0000
  C   C492      1.0  0.96322  0.62871  0.14154  1.0000
  C   C493      1.0  0.15429  0.95825  0.16393  1.0000
  H   H857      1.0  0.03592  0.63565  0.05063  1.0000
  N   N38       1.0  0.99445  0.57192  0.03215  1.0000
  H   H858      1.0  0.10107  0.95100  0.20300  1.0000
  H   H859      1.0  0.06978  0.68838  0.20055  1.0000
  C   C494      1.0  0.01939  0.62411  0.04330  1.0000
  C   C495      1.0  0.02348  0.60184  0.01413  1.0000
  H   H860      1.0  0.27310  0.87853  0.01180  1.0000
  H   H861      1.0  0.08721  0.91287  0.19720  1.0000
  H   H862      1.0  0.20583  0.86736  0.99027  1.0000
  H   H863      1.0  0.21161  0.96053  0.01060  1.0000
  C   C496      1.0  0.07217  0.70024  0.20930  1.0000
  H   H864      1.0  0.07095  0.72555  0.11573  1.0000
  C   C497      1.0  0.04776  0.75761  0.13830  1.0000
  H   H865      1.0  0.07089  0.68225  0.12864  1.0000
  C   C498      1.0  0.00129  0.54508  0.02864  1.0000
  H   H866      1.0  0.05064  0.73645  0.15449  1.0000
  H   H867      1.0  0.23847  0.93456  0.99826  1.0000
  H   H868      1.0  0.19879  0.92113  0.99645  1.0000
  H   H869      1.0  0.22580  0.92103  0.02918  1.0000
  H   H870      1.0  0.16827  0.90016  0.01299  1.0000
  C   C499      1.0  0.21826  0.89194  0.98871  1.0000
  H   H871      1.0  0.96480  0.55301  0.04690  1.0000
  Fe  Fe78      1.0  0.98349  0.68073  0.19845  1.0000
  C   C500      1.0  0.96932  0.65590  0.13565  1.0000
  H   H872      1.0  0.12569  0.80669  0.98292  1.0000
  H   H873      1.0  0.13314  0.93785  0.16172  1.0000
  H   H874      1.0  0.09677  0.74288  0.20095  1.0000
  Fe  Fe79      1.0  0.97595  0.66591  0.17126  1.0000
  S   S151      1.0  0.23364  0.96862  0.17147  1.0000
  H   H875      1.0  0.05790  0.77856  0.19964  1.0000
  H   H876      1.0  0.97729  0.67907  0.00455  1.0000
  H   H877      1.0  0.16482  0.96774  0.15540  1.0000
  H   H878      1.0  0.97623  0.57411  0.01471  1.0000
  H   H879      1.0  0.97834  0.51336  0.04297  1.0000
  Fe  Fe80      1.0  0.26181  0.96350  0.97202  1.0000
  C   C501      1.0  0.07788  0.73367  0.20724  1.0000
  H   H880      1.0  0.11007  0.79325  0.20736  1.0000
  S   S152      1.0  0.29324  0.96160  0.98723  1.0000
  H   H881      1.0  0.07391  0.81626  0.20582  1.0000
  C   C502      1.0  0.28626  0.97127  0.11985  1.0000
  H   H882      1.0  0.33278  0.95885  0.00600  1.0000
  S   S153      1.0  0.96349  0.62702  0.15731  1.0000
  C   C503      1.0  0.32158  0.97266  0.00934  1.0000
  H   H883      1.0  0.13979  0.75108  0.21070  1.0000
  C   C504      1.0  0.96406  0.56169  0.03789  1.0000
  H   H884      1.0  0.20788  0.90056  0.44980  1.0000
  H   H885      1.0  0.39719  0.95251  0.35327  1.0000
  H   H886      1.0  0.09116  0.69792  0.21409  1.0000
  H   H887      1.0  0.34684  0.86771  0.34760  1.0000
  S   S154      1.0  0.98886  0.58605  0.31545  1.0000
  H   H888      1.0  0.43894  0.93787  0.37975  1.0000
  Fe  Fe81      1.0  0.03500  0.61860  0.38760  1.0000
  S   S155      1.0  0.08515  0.63090  0.38782  1.0000
  S   S156      1.0  0.00101  0.60896  0.37192  1.0000
  Fe  Fe82      1.0  0.03385  0.62459  0.41527  1.0000
  S   S157      1.0  0.08410  0.63860  0.41723  1.0000
  S   S158      1.0  0.99787  0.61664  0.42941  1.0000
  Fe  Fe83      1.0  0.08959  0.66808  0.40128  1.0000
  S   S159      1.0  0.12028  0.71862  0.39798  1.0000
  Fe  Fe84      1.0  0.07604  0.60063  0.40370  1.0000
  S   S160      1.0  0.09669  0.56705  0.40781  1.0000
  S   S161      1.0  0.03950  0.65692  0.40039  1.0000
  S   S162      1.0  0.02578  0.58549  0.40244  1.0000
  Fe  Fe85      1.0  0.31577  0.90779  0.38570  1.0000
  S   S163      1.0  0.32951  0.86965  0.39032  1.0000
  S   S164      1.0  0.31178  0.91296  0.36558  1.0000
  Fe  Fe86      1.0  0.31034  0.92188  0.41244  1.0000
  S   S165      1.0  0.32377  0.88495  0.41826  1.0000
  H   H889      1.0  0.18666  0.84300  0.41974  1.0000
  Fe  Fe87      1.0  0.35926  0.90210  0.40443  1.0000
  S   S166      1.0  0.40932  0.91996  0.40906  1.0000
  Fe  Fe88      1.0  0.29196  0.85594  0.40359  1.0000
  S   S167      1.0  0.26064  0.80639  0.40788  1.0000
  S   S168      1.0  0.34742  0.94079  0.39922  1.0000
  S   S169      1.0  0.27661  0.89230  0.39837  1.0000
  C   C505      1.0  0.43280  0.90109  0.40579  1.0000
  C   C506      1.0  0.42142  0.87184  0.40055  1.0000
  H   H890      1.0  0.38503  0.88490  0.34278  1.0000
  H   H891      1.0  0.04605  0.78680  0.21391  1.0000
  H   H892      1.0  0.39747  0.85996  0.39853  1.0000
  H   H893      1.0  0.03745  0.69992  0.33581  1.0000
  C   C507      1.0  0.45108  0.48252  0.41285  1.0000
  C   C508      1.0  0.32275  0.93591  0.44707  1.0000
  H   H894      1.0  0.01140  0.70693  0.37477  1.0000
  H   H895      1.0  0.31966  0.91518  0.44227  1.0000
  C   C509      1.0  0.29011  0.95250  0.24656  1.0000
  C   C510      1.0  0.07331  0.52766  0.40695  1.0000
  C   C511      1.0  0.04597  0.51638  0.40049  1.0000
  H   H896      1.0  0.18086  0.48782  0.41490  1.0000
  C   C512      1.0  0.08250  0.50718  0.41274  1.0000
  H   H897      1.0  0.03872  0.53190  0.39594  1.0000
  C   C513      1.0  0.40735  0.90703  0.44228  1.0000
  C   C514      1.0  0.15964  0.74219  0.40052  1.0000
  C   C515      1.0  0.17180  0.77205  0.39617  1.0000
  C   C516      1.0  0.20265  0.79178  0.39809  1.0000
  C   C517      1.0  0.22185  0.78203  0.40449  1.0000
  C   C518      1.0  0.20968  0.75220  0.40885  1.0000
  C   C519      1.0  0.17889  0.73239  0.40687  1.0000
  H   H898      1.0  0.15724  0.77997  0.39125  1.0000
  H   H899      1.0  0.21153  0.81451  0.39459  1.0000
  H   H900      1.0  0.22419  0.74431  0.41383  1.0000
  H   H901      1.0  0.17003  0.70959  0.41030  1.0000
  N   N39       1.0  0.41699  0.96430  0.44351  1.0000
  C   C520      1.0  0.99686  0.60847  0.44480  1.0000
  C   C521      1.0  0.20777  0.81112  0.43371  1.0000
  S   S170      1.0  0.31938  0.97121  0.26825  1.0000
  C   C522      1.0  0.02710  0.67881  0.34090  1.0000
  C   C523      1.0  0.42488  0.51260  0.39871  1.0000
  C   C524      1.0  0.05361  0.72209  0.23566  1.0000
  H   H902      1.0  0.41470  0.52439  0.39331  1.0000
  C   C525      1.0  0.99145  0.59158  0.33120  1.0000
  C   C526      1.0  0.01898  0.59694  0.33715  1.0000
  C   C527      1.0  0.02213  0.60121  0.34961  1.0000
  C   C528      1.0  0.99796  0.60112  0.35628  1.0000
  H   H903      1.0  0.24556  0.90121  0.42016  1.0000
  H   H904      1.0  0.98445  0.52633  0.34057  1.0000
  H   H905      1.0  0.03798  0.59755  0.33209  1.0000
  H   H906      1.0  0.04329  0.60475  0.35402  1.0000
  H   H907      1.0  0.04441  0.61997  0.44710  1.0000
  H   H908      1.0  0.43237  0.83522  0.39394  1.0000
  H   H909      1.0  0.20825  0.89731  0.42461  1.0000
  C   C529      1.0  0.33111  0.94146  0.35505  1.0000
  C   C530      1.0  0.32731  0.93339  0.34288  1.0000
  H   H910      1.0  0.07033  0.73296  0.24300  1.0000
  H   H911      1.0  0.31277  0.91021  0.34013  1.0000
  H   H912      1.0  0.11633  0.67201  0.36188  1.0000
  C   C531      1.0  0.96902  0.59828  0.45060  1.0000
  H   H913      1.0  0.10697  0.69000  0.37409  1.0000
  C   C532      1.0  0.37846  0.89380  0.36166  1.0000
  H   H914      1.0  0.33754  0.89125  0.23586  1.0000
  C   C533      1.0  0.00149  0.51938  0.33665  1.0000
  H   H915      1.0  0.33805  0.91472  0.26656  1.0000
  C   C534      1.0  0.22093  0.88760  0.41901  1.0000
  H   H916      1.0  0.05471  0.57108  0.44747  1.0000
  H   H917      1.0  0.25659  0.85366  0.45385  1.0000
  H   H918      1.0  0.08520  0.74724  0.33833  1.0000
  C   C535      1.0  0.96716  0.59101  0.33789  1.0000
  C   C536      1.0  0.22422  0.89060  0.44754  1.0000
  H   H919      1.0  0.01178  0.49989  0.32122  1.0000
  H   H920      1.0  0.36569  0.87916  0.36897  1.0000
  C   C537      1.0  0.11120  0.75509  0.22520  1.0000
  H   H921      1.0  0.04540  0.74237  0.37436  1.0000
  N   N40       1.0  0.22004  0.84554  0.43327  1.0000
  C   C538      1.0  0.09182  0.78633  0.21399  1.0000
  C   C539      1.0  0.41493  0.92693  0.37666  1.0000
  C   C540      1.0  0.42303  0.88531  0.36705  1.0000
  H   H922      1.0  0.26271  0.82440  0.44532  1.0000
  C   C541      1.0  0.02278  0.61179  0.45136  1.0000
  N   N41       1.0  0.00490  0.52092  0.43473  1.0000
  C   C542      1.0  0.05381  0.70037  0.37362  1.0000
  H   H923      1.0  0.42071  0.87138  0.35882  1.0000
  H   H924      1.0  0.11797  0.74662  0.34547  1.0000
  C   C543      1.0  0.17359  0.79329  0.43102  1.0000
  H   H925      1.0  0.44293  0.48088  0.35860  1.0000
  H   H926      1.0  0.10710  0.73235  0.22871  1.0000
  C   C544      1.0  0.20641  0.85704  0.44315  1.0000
  H   H927      1.0  0.43314  0.97231  0.34711  1.0000
  H   H928      1.0  0.08899  0.71209  0.33960  1.0000
  C   C545      1.0  0.25404  0.85752  0.43436  1.0000
  H   H929      1.0  0.99548  0.49708  0.30081  1.0000
  N   N42       1.0  0.05897  0.69885  0.36050  1.0000
  H   H930      1.0  0.06381  0.74418  0.35610  1.0000
  H   H931      1.0  0.00297  0.66774  0.33792  1.0000
  H   H932      1.0  0.01673  0.70126  0.35539  1.0000
  H   H933      1.0  0.07563  0.71065  0.37871  1.0000
  H   H934      1.0  0.01337  0.66399  0.35854  1.0000
  H   H935      1.0  0.04170  0.67695  0.37702  1.0000
  H   H936      1.0  0.02276  0.54031  0.33615  1.0000
  C   C546      1.0  0.35394  0.91359  0.23957  1.0000
  H   H937      1.0  0.06074  0.65511  0.36295  1.0000
  H   H938      1.0  0.03685  0.66240  0.33846  1.0000
  H   H939      1.0  0.27000  0.94143  0.25169  1.0000
  H   H940      1.0  0.34156  0.92206  0.24582  1.0000
  H   H941      1.0  0.33837  0.94845  0.32487  1.0000
  C   C547      1.0  0.09308  0.73378  0.34432  1.0000
  H   H942      1.0  0.40722  0.93873  0.33978  1.0000
  H   H943      1.0  0.13588  0.50322  0.40638  1.0000
  H   H944      1.0  0.11517  0.77040  0.23318  1.0000
  H   H945      1.0  0.42571  0.90939  0.43608  1.0000
  C   C548      1.0  0.42232  0.96729  0.45677  1.0000
  H   H946      1.0  0.09606  0.74319  0.36317  1.0000
  H   H947      1.0  0.12842  0.51726  0.39290  1.0000
  C   C549      1.0  0.14137  0.76569  0.21862  1.0000
  C   C550      1.0  0.97358  0.47681  0.30013  1.0000
  H   H948      1.0  0.45220  0.94719  0.35939  1.0000
  H   H949      1.0  0.36239  0.89488  0.26872  1.0000
  H   H950      1.0  0.18312  0.85415  0.44054  1.0000
  H   H951      1.0  0.21984  0.80211  0.42744  1.0000
  H   H952      1.0  0.36201  0.92248  0.27920  1.0000
  S   S171      1.0  0.98491  0.67432  0.21862  1.0000
  H   H953      1.0  0.03552  0.73536  0.22023  1.0000
  H   H954      1.0  0.40416  0.88088  0.26205  1.0000
  H   H955      1.0  0.40253  0.91079  0.38365  1.0000
  H   H956      1.0  0.03612  0.72021  0.38737  1.0000
  N   N43       1.0  0.14473  0.48162  0.39077  1.0000
  H   H957      1.0  0.96924  0.50643  0.44751  1.0000
  H   H958      1.0  0.38870  0.88442  0.44011  1.0000
  H   H959      1.0  0.05610  0.76515  0.23059  1.0000
  C   C551      1.0  0.36086  0.91709  0.26956  1.0000
  C   C552      1.0  0.97242  0.65031  0.24093  1.0000
  C   C553      1.0  0.02816  0.48482  0.39970  1.0000
  H   H960      1.0  0.00701  0.47625  0.39467  1.0000
  C   C554      1.0  0.99243  0.50509  0.32406  1.0000
  C   C555      1.0  0.97937  0.51144  0.42559  1.0000
  C   C556      1.0  0.02828  0.68563  0.35434  1.0000
  H   H961      1.0  0.10060  0.80310  0.22157  1.0000
  H   H962      1.0  0.26289  0.84898  0.42671  1.0000
  C   C557      1.0  0.31405  0.96232  0.22733  1.0000
  N   N44       1.0  0.08428  0.75431  0.21810  1.0000
  H   H963      1.0  0.05066  0.68805  0.21389  1.0000
  H   H964      1.0  0.38848  0.92926  0.43089  1.0000
  C   C558      1.0  0.45415  0.52867  0.40363  1.0000
  H   H965      1.0  0.12217  0.71106  0.36088  1.0000
  H   H966      1.0  0.43583  0.91704  0.34865  1.0000
  C   C559      1.0  0.01038  0.52139  0.45781  1.0000
  H   H967      1.0  0.44065  0.96440  0.42738  1.0000
  H   H968      1.0  0.03082  0.71479  0.23951  1.0000
  C   C560      1.0  0.07775  0.73069  0.35647  1.0000
  C   C561      1.0  0.97040  0.64355  0.22865  1.0000
  H   H969      1.0  0.00654  0.50405  0.34270  1.0000
  C   C562      1.0  0.31797  0.96932  0.25246  1.0000
  H   H970      1.0  0.22123  0.84417  0.41413  1.0000
  H   H971      1.0  0.20378  0.84294  0.45113  1.0000
  H   H972      1.0  0.03675  0.50222  0.44065  1.0000
  H   H973      1.0  0.98729  0.50753  0.41673  1.0000
  H   H974      1.0  0.07419  0.58545  0.43424  1.0000
  H   H975      1.0  0.03534  0.54890  0.42166  1.0000
  C   C563      1.0  0.17486  0.53726  0.39843  1.0000
  H   H976      1.0  0.26664  0.93542  0.22972  1.0000
  C   C564      1.0  0.05672  0.74494  0.22578  1.0000
  C   C565      1.0  0.28808  0.94925  0.23408  1.0000
  C   C566      1.0  0.41558  0.94912  0.34872  1.0000
  C   C567      1.0  0.02890  0.55092  0.43096  1.0000
  C   C568      1.0  0.31610  0.95812  0.44141  1.0000
  H   H977      1.0  0.05570  0.70117  0.23251  1.0000
  H   H978      1.0  0.15888  0.76397  0.22466  1.0000
  H   H979      1.0  0.99252  0.52358  0.31820  1.0000
  H   H980      1.0  0.13989  0.50071  0.37400  1.0000
  H   H981      1.0  0.37247  0.85150  0.35191  1.0000
  C   C569      1.0  0.40873  0.48137  0.40074  1.0000
  H   H982      1.0  0.19061  0.48778  0.39481  1.0000
  H   H983      1.0  0.19264  0.53228  0.40299  1.0000
  H   H984      1.0  0.18286  0.54739  0.38971  1.0000
  C   C570      1.0  0.43014  0.93063  0.35554  1.0000
  C   C571      1.0  0.15393  0.48998  0.37818  1.0000
  H   H985      1.0  0.10310  0.51594  0.41811  1.0000
  H   H986      1.0  0.17159  0.55515  0.40388  1.0000
  C   C572      1.0  0.05847  0.56423  0.43842  1.0000
  H   H987      1.0  0.21187  0.80383  0.44262  1.0000
  C   C573      1.0  0.14435  0.50914  0.39728  1.0000
  C   C574      1.0  0.01750  0.49698  0.43435  1.0000
  N   N45       1.0  0.41161  0.90980  0.36501  1.0000
  H   H988      1.0  0.99077  0.54641  0.44749  1.0000
  H   H989      1.0  0.16673  0.76910  0.43345  1.0000
  C   C575      1.0  0.07439  0.67742  0.35892  1.0000
  C   C576      1.0  0.33372  0.94066  0.45892  1.0000
  H   H990      1.0  0.07039  0.54892  0.43864  1.0000
  C   C577      1.0  0.10674  0.68870  0.36428  1.0000
  C   C578      1.0  0.26645  0.84879  0.44570  1.0000
  H   H991      1.0  0.98190  0.67385  0.24402  1.0000
  C   C579      1.0  0.40408  0.95284  0.37692  1.0000
  H   H992      1.0  0.36885  0.96126  0.42574  1.0000
  C   C580      1.0  0.34990  0.97161  0.35841  1.0000
  C   C581      1.0  0.38077  0.90949  0.24560  1.0000
  H   H993      1.0  0.21509  0.89014  0.40966  1.0000
  H   H994      1.0  0.02024  0.56901  0.43103  1.0000
  H   H995      1.0  0.41451  0.90630  0.45158  1.0000
  C   C582      1.0  0.34183  0.95505  0.33417  1.0000
  C   C583      1.0  0.42023  0.90283  0.26608  1.0000
  H   H996      1.0  0.15961  0.80238  0.43613  1.0000
  C   C584      1.0  0.21156  0.85350  0.42129  1.0000
  C   C585      1.0  0.03559  0.71868  0.37752  1.0000
  H   H997      1.0  0.26531  0.88264  0.43377  1.0000
  H   H998      1.0  0.07589  0.67146  0.34953  1.0000
  H   H999      1.0  0.17757  0.50760  0.37795  1.0000
  C   C586      1.0  0.45657  0.89644  0.37105  1.0000
  C   C587      1.0  0.37075  0.87345  0.35030  1.0000
  H   H1000     1.0  0.37438  0.92532  0.44539  1.0000
  C   C588      1.0  0.97050  0.59594  0.35031  1.0000
  H   H1001     1.0  0.40920  0.86903  0.37379  1.0000
  H   H1002     1.0  0.40716  0.96251  0.38610  1.0000
  H   H1003     1.0  0.16828  0.79272  0.42139  1.0000
  C   C589      1.0  0.44119  0.85787  0.39799  1.0000
  H   H1004     1.0  0.37970  0.94473  0.37465  1.0000
  H   H1005     1.0  0.36789  0.90999  0.36049  1.0000
  H   H1006     1.0  0.29131  0.86217  0.44636  1.0000
  S   S172      1.0  0.30259  0.95306  0.42640  1.0000
  H   H1007     1.0  0.02721  0.49652  0.42551  1.0000
  H   H1008     1.0  0.97900  0.55454  0.41935  1.0000
  H   H1009     1.0  0.37107  0.88815  0.25057  1.0000
  C   C590      1.0  0.39555  0.93186  0.44036  1.0000
  C   C591      1.0  0.99272  0.52417  0.44669  1.0000
  H   H1010     1.0  0.08563  0.48144  0.38668  1.0000
  H   H1011     1.0  0.14984  0.78994  0.21612  1.0000
  H   H1012     1.0  0.46082  0.90651  0.38016  1.0000
  H   H1013     1.0  0.23690  0.89164  0.45594  1.0000
  H   H1014     1.0  0.39366  0.90431  0.23842  1.0000
  H   H1015     1.0  0.23984  0.90609  0.44115  1.0000
  S   S173      1.0  0.31373  0.95368  0.21190  1.0000
  H   H1016     1.0  0.41192  0.90763  0.27466  1.0000
  H   H1017     1.0  0.44951  0.52529  0.37333  1.0000
  C   C592      1.0  0.41435  0.96328  0.24524  1.0000
  C   C593      1.0  0.44580  0.97383  0.43663  1.0000
  H   H1018     1.0  0.45310  0.48449  0.38296  1.0000
  C   C594      1.0  0.42783  0.92976  0.25772  1.0000
  H   H1019     1.0  0.03450  0.52660  0.45656  1.0000
  H   H1020     1.0  0.40259  0.95794  0.27032  1.0000
  H   H1021     1.0  0.41790  0.97189  0.37125  1.0000
  H   H1022     1.0  0.36141  0.92914  0.23199  1.0000
  N   N46       1.0  0.40164  0.93621  0.25322  1.0000
  C   C595      1.0  0.38584  0.94403  0.26337  1.0000
  H   H1023     1.0  0.43294  0.95238  0.46004  1.0000
  H   H1024     1.0  0.42385  0.95739  0.23710  1.0000
  H   H1025     1.0  0.39619  0.96996  0.24204  1.0000
  H   H1026     1.0  0.96492  0.63255  0.25867  1.0000
  H   H1027     1.0  0.44139  0.90004  0.26822  1.0000
  H   H1028     1.0  0.44442  0.94969  0.26287  1.0000
  N   N47       1.0  0.96294  0.47708  0.32259  1.0000
  H   H1029     1.0  0.44045  0.92583  0.25015  1.0000
  C   C596      1.0  0.06497  0.47550  0.41176  1.0000
  H   H1030     1.0  0.37469  0.95876  0.26027  1.0000
  C   C597      1.0  0.96413  0.53376  0.42393  1.0000
  H   H1031     1.0  0.46258  0.87648  0.37135  1.0000
  H   H1032     1.0  0.20990  0.89941  0.67520  1.0000
  H   H1033     1.0  0.34213  0.87097  0.66539  1.0000
  Fe  Fe89      1.0  0.03408  0.61702  0.61086  1.0000
  S   S174      1.0  0.07935  0.61446  0.61119  1.0000
  S   S175      1.0  0.00416  0.59244  0.59459  1.0000
  Fe  Fe90      1.0  0.04450  0.64359  0.63658  1.0000
  S   S176      1.0  0.09006  0.64185  0.63817  1.0000
  S   S177      1.0  0.02924  0.66825  0.65106  1.0000
  Fe  Fe91      1.0  0.09809  0.66115  0.61995  1.0000
  S   S178      1.0  0.14618  0.69370  0.61519  1.0000
  Fe  Fe92      1.0  0.06772  0.59545  0.62927  1.0000
  S   S179      1.0  0.08381  0.55884  0.63424  1.0000
  S   S180      1.0  0.05360  0.66535  0.61850  1.0000
  S   S181      1.0  0.02134  0.59557  0.62883  1.0000
  Fe  Fe93      1.0  0.31147  0.91917  0.63466  1.0000
  S   S182      1.0  0.30004  0.86888  0.63337  1.0000
  S   S183      1.0  0.31417  0.94816  0.65140  1.0000
  Fe  Fe94      1.0  0.32059  0.92705  0.60729  1.0000
  S   S184      1.0  0.30942  0.87714  0.60432  1.0000
  H   H1034     1.0  0.33890  0.92332  0.46316  1.0000
  Fe  Fe95      1.0  0.27162  0.86783  0.61721  1.0000
  S   S185      1.0  0.22122  0.83834  0.61346  1.0000
  Fe  Fe96      1.0  0.33884  0.88235  0.62064  1.0000
  S   S186      1.0  0.37207  0.85991  0.62096  1.0000
  S   S187      1.0  0.28104  0.91769  0.61925  1.0000
  S   S188      1.0  0.35213  0.93266  0.62292  1.0000
  H   H1035     1.0  0.04111  0.60829  0.46856  1.0000
  H   H1036     1.0  0.01482  0.69802  0.69167  1.0000
  H   H1037     1.0  0.01377  0.60861  0.68765  1.0000
  S   S189      1.0  0.97760  0.56313  0.51650  1.0000
  H   H1038     1.0  0.13879  0.68473  0.58422  1.0000
  C   C598      1.0  0.98260  0.57577  0.57167  1.0000
  C   C599      1.0  0.42109  0.51706  0.61693  1.0000
  H   H1039     1.0  0.41843  0.83741  0.62192  1.0000
  C   C600      1.0  0.45146  0.49450  0.63258  1.0000
  H   H1040     1.0  0.27968  0.88729  0.56803  1.0000
  H   H1041     1.0  0.31745  0.52469  0.60308  1.0000
  C   C601      1.0  0.33589  0.94162  0.57088  1.0000
  C   C602      1.0  0.33930  0.94407  0.55847  1.0000
  H   H1042     1.0  0.25566  0.93516  0.55334  1.0000
  H   H1043     1.0  0.33267  0.92055  0.57511  1.0000
  H   H1044     1.0  0.33834  0.92459  0.55324  1.0000
  H   H1045     1.0  0.41261  0.94227  0.67408  1.0000
  C   C603      1.0  0.99715  0.62900  0.57676  1.0000
  C   C604      1.0  0.98904  0.63364  0.56512  1.0000
  H   H1046     1.0  0.21064  0.86324  0.56780  1.0000
  H   H1047     1.0  0.40792  0.96529  0.65819  1.0000
  H   H1048     1.0  0.00522  0.64772  0.58319  1.0000
  H   H1049     1.0  0.07506  0.59288  0.56160  1.0000
  C   C605      1.0  0.16627  0.73409  0.61535  1.0000
  C   C606      1.0  0.19804  0.74676  0.61650  1.0000
  C   C607      1.0  0.21516  0.77860  0.61624  1.0000
  C   C608      1.0  0.20071  0.79818  0.61459  1.0000
  C   C609      1.0  0.16892  0.78551  0.61340  1.0000
  C   C610      1.0  0.15177  0.75368  0.61382  1.0000
  H   H1050     1.0  0.20954  0.73183  0.61758  1.0000
  H   H1051     1.0  0.23957  0.78791  0.61709  1.0000
  H   H1052     1.0  0.15751  0.80042  0.61203  1.0000
  H   H1053     1.0  0.12746  0.74428  0.61262  1.0000
  C   C611      1.0  0.42582  0.91033  0.62603  1.0000
  C   C612      1.0  0.41165  0.87889  0.62366  1.0000
  C   C613      1.0  0.42918  0.86175  0.62378  1.0000
  H   H1054     1.0  0.41269  0.92384  0.62578  1.0000
  H   H1055     1.0  0.24933  0.85131  0.57198  1.0000
  H   H1056     1.0  0.14856  0.89749  0.68251  1.0000
  C   C614      1.0  0.07680  0.49926  0.63289  1.0000
  C   C615      1.0  0.06192  0.51895  0.63314  1.0000
  C   C616      1.0  0.03028  0.50643  0.63298  1.0000
  H   H1057     1.0  0.10127  0.50878  0.63310  1.0000
  H   H1058     1.0  0.01859  0.52136  0.63327  1.0000
  C   C617      1.0  0.27952  0.92768  0.68967  1.0000
  C   C618      1.0  0.27635  0.90359  0.68167  1.0000
  C   C619      1.0  0.28603  0.90926  0.66986  1.0000
  C   C620      1.0  0.29945  0.93923  0.66592  1.0000
  H   H1059     1.0  0.98004  0.55321  0.57413  1.0000
  C   C621      1.0  0.29242  0.95757  0.68566  1.0000
  H   H1060     1.0  0.26654  0.88038  0.68468  1.0000
  H   H1061     1.0  0.28362  0.89052  0.66388  1.0000
  C   C622      1.0  0.01351  0.65272  0.69123  1.0000
  C   C623      1.0  0.01623  0.63001  0.68389  1.0000
  C   C624      1.0  0.02180  0.63457  0.67166  1.0000
  C   C625      1.0  0.02402  0.66170  0.66655  1.0000
  C   C626      1.0  0.02142  0.68444  0.67392  1.0000
  C   C627      1.0  0.01668  0.68022  0.68618  1.0000
  H   H1062     1.0  0.02367  0.61680  0.66613  1.0000
  H   H1063     1.0  0.02303  0.70551  0.67009  1.0000
  H   H1064     1.0  0.40943  0.52597  0.61087  1.0000
  C   C628      1.0  0.24706  0.94398  0.59651  1.0000
  C   C629      1.0  0.45203  0.53439  0.61974  1.0000
  H   H1065     1.0  0.25042  0.87471  0.59251  1.0000
  S   S190      1.0  0.99234  0.58785  0.48485  1.0000
  C   C630      1.0  0.30250  0.96326  0.67390  1.0000
  H   H1066     1.0  0.44204  0.47834  0.60469  1.0000
  C   C631      1.0  0.99401  0.59997  0.58012  1.0000
  H   H1067     1.0  0.45700  0.49089  0.47476  1.0000
  H   H1068     1.0  0.18946  0.92030  0.66988  1.0000
  H   H1069     1.0  0.18818  0.88152  0.57328  1.0000
  H   H1070     1.0  0.06615  0.67064  0.56888  1.0000
  S   S191      1.0  0.96725  0.61640  0.54219  1.0000
  C   C632      1.0  0.26810  0.87247  0.57539  1.0000
  H   H1071     1.0  0.35238  0.91492  0.65400  1.0000
  H   H1072     1.0  0.41614  0.89464  0.64931  1.0000
  C   C633      1.0  0.36482  0.87144  0.66356  1.0000
  N   N48       1.0  0.09812  0.65273  0.57513  1.0000
  C   C634      1.0  0.40532  0.48822  0.62181  1.0000
  C   C635      1.0  0.11332  0.65518  0.56341  1.0000
  C   C636      1.0  0.33865  0.96786  0.46527  1.0000
  C   C637      1.0  0.07283  0.62163  0.57675  1.0000
  C   C638      1.0  0.09318  0.65280  0.55236  1.0000
  H   H1073     1.0  0.39508  0.90724  0.68111  1.0000
  C   C639      1.0  0.07676  0.59368  0.57142  1.0000
  H   H1074     1.0  0.32264  0.49447  0.61030  1.0000
  H   H1075     1.0  0.05703  0.65849  0.59125  1.0000
  H   H1076     1.0  0.96616  0.56159  0.55363  1.0000
  S   S192      1.0  0.35542  0.97341  0.47978  1.0000
  C   C640      1.0  0.31074  0.49964  0.60276  1.0000
  C   C641      1.0  0.97778  0.60942  0.55667  1.0000
  H   H1077     1.0  0.43701  0.89988  0.67562  1.0000
  C   C642      1.0  0.34424  0.97153  0.55279  1.0000
  N   N49       1.0  0.38763  0.90381  0.66204  1.0000
  H   H1078     1.0  0.15744  0.65112  0.59300  1.0000
  C   C643      1.0  0.02083  0.60524  0.46355  1.0000
  C   C644      1.0  0.97472  0.58046  0.56001  1.0000
  C   C645      1.0  0.41776  0.90484  0.65834  1.0000
  C   C646      1.0  0.12161  0.66080  0.58503  1.0000
  C   C647      1.0  0.19078  0.84662  0.58442  1.0000
  C   C648      1.0  0.42067  0.47712  0.62970  1.0000
  S   S193      1.0  0.26756  0.91898  0.70455  1.0000
  H   H1079     1.0  0.26579  0.49000  0.59588  1.0000
  H   H1080     1.0  0.38116  0.84679  0.65049  1.0000
  S   S194      1.0  0.34905  0.97317  0.53712  1.0000
  C   C649      1.0  0.36016  0.84919  0.65293  1.0000
  H   H1081     1.0  0.13353  0.67735  0.56300  1.0000
  H   H1082     1.0  0.34350  0.90836  0.67774  1.0000
  C   C650      1.0  0.99302  0.59529  0.46939  1.0000
  H   H1083     1.0  0.12232  0.63751  0.56227  1.0000
  C   C651      1.0  0.08503  0.67637  0.57552  1.0000
  H   H1084     1.0  0.05822  0.69397  0.58615  1.0000
  H   H1085     1.0  0.09025  0.69378  0.59403  1.0000
  C   C652      1.0  0.13883  0.64031  0.58629  1.0000
  H   H1086     1.0  0.34355  0.82614  0.65530  1.0000
  C   C653      1.0  0.11212  0.86436  0.70070  1.0000
  H   H1087     1.0  0.36984  0.93954  0.68645  1.0000
  H   H1088     1.0  0.14621  0.92336  0.69789  1.0000
  H   H1089     1.0  0.00965  0.53771  0.46480  1.0000
  H   H1090     1.0  0.13096  0.83438  0.69342  1.0000
  C   C654      1.0  0.43214  0.88908  0.66662  1.0000
  C   C655      1.0  0.19503  0.91069  0.67798  1.0000
  N   N50       1.0  0.12546  0.73208  0.65741  1.0000
  C   C656      1.0  0.11140  0.72155  0.64523  1.0000
  C   C657      1.0  0.13343  0.70729  0.66241  1.0000
  C   C658      1.0  0.15377  0.76111  0.65685  1.0000
  C   C659      1.0  0.10318  0.73819  0.66504  1.0000
  C   C660      1.0  0.10312  0.74442  0.63824  1.0000
  C   C661      1.0  0.10681  0.67949  0.66727  1.0000
  C   C662      1.0  0.17784  0.76012  0.64827  1.0000
  C   C663      1.0  0.11335  0.74791  0.67808  1.0000
  H   H1091     1.0  0.12622  0.71461  0.63954  1.0000
  H   H1092     1.0  0.09020  0.70066  0.64581  1.0000
  H   H1093     1.0  0.15094  0.71629  0.66964  1.0000
  H   H1094     1.0  0.14407  0.69815  0.65555  1.0000
  H   H1095     1.0  0.14836  0.78067  0.65441  1.0000
  H   H1096     1.0  0.16506  0.76756  0.66576  1.0000
  H   H1097     1.0  0.09804  0.75689  0.66139  1.0000
  H   H1098     1.0  0.08076  0.71838  0.66484  1.0000
  H   H1099     1.0  0.08490  0.74903  0.64249  1.0000
  H   H1100     1.0  0.12300  0.76603  0.63673  1.0000
  H   H1101     1.0  0.09393  0.73403  0.62939  1.0000
  H   H1102     1.0  0.08752  0.66997  0.66088  1.0000
  H   H1103     1.0  0.11442  0.66109  0.66912  1.0000
  H   H1104     1.0  0.09866  0.68516  0.67573  1.0000
  H   H1105     1.0  0.19845  0.78181  0.64921  1.0000
  H   H1106     1.0  0.16998  0.75829  0.63892  1.0000
  H   H1107     1.0  0.18467  0.74125  0.65015  1.0000
  H   H1108     1.0  0.12329  0.77316  0.67921  1.0000
  H   H1109     1.0  0.13006  0.73961  0.68146  1.0000
  H   H1110     1.0  0.09347  0.73808  0.68389  1.0000
  H   H1111     1.0  0.37444  0.90590  0.64382  1.0000
  C   C664      1.0  0.07199  0.68060  0.58749  1.0000
  H   H1112     1.0  0.06806  0.61735  0.58629  1.0000
  C   C665      1.0  0.20574  0.87337  0.57598  1.0000
  N   N51       1.0  0.23351  0.89977  0.58087  1.0000
  C   C666      1.0  0.37610  0.91801  0.65248  1.0000
  H   H1113     1.0  0.41247  0.95453  0.64328  1.0000
  C   C667      1.0  0.36516  0.92882  0.67741  1.0000
  H   H1114     1.0  0.28498  0.86535  0.57955  1.0000
  H   H1115     1.0  0.35049  0.85576  0.64508  1.0000
  H   H1116     1.0  0.41800  0.86428  0.66719  1.0000
  H   H1117     1.0  0.09101  0.67464  0.55097  1.0000
  H   H1118     1.0  0.99128  0.65610  0.56267  1.0000
  H   H1119     1.0  0.10238  0.69918  0.57313  1.0000
  H   H1120     1.0  0.05133  0.62045  0.57271  1.0000
  H   H1121     1.0  0.27850  0.90949  0.58786  1.0000
  H   H1122     1.0  0.18358  0.84481  0.68904  1.0000
  H   H1123     1.0  0.20255  0.91483  0.58993  1.0000
  H   H1124     1.0  0.26976  0.93962  0.57376  1.0000
  H   H1125     1.0  0.14945  0.63750  0.57801  1.0000
  H   H1126     1.0  0.15663  0.86713  0.67733  1.0000
  C   C668      1.0  0.19075  0.86400  0.69571  1.0000
  C   C669      1.0  0.39569  0.95207  0.65022  1.0000
  H   H1127     1.0  0.12409  0.61790  0.58989  1.0000
  H   H1128     1.0  0.11623  0.88112  0.70814  1.0000
  H   H1129     1.0  0.09147  0.84405  0.70299  1.0000
  H   H1130     1.0  0.11128  0.66013  0.59379  1.0000
  H   H1131     1.0  0.14062  0.84607  0.70844  1.0000
  C   C670      1.0  0.16550  0.88768  0.68336  1.0000
  H   H1132     1.0  0.99896  0.49845  0.46164  1.0000
  H   H1133     1.0  0.31904  0.49427  0.59429  1.0000
  C   C671      1.0  0.22417  0.91250  0.59170  1.0000
  H   H1134     1.0  0.21637  0.84574  0.70664  1.0000
  C   C672      1.0  0.16784  0.93045  0.70287  1.0000
  C   C673      1.0  0.19661  0.85164  0.70758  1.0000
  H   H1135     1.0  0.20625  0.83587  0.58696  1.0000
  N   N52       1.0  0.16846  0.87862  0.69588  1.0000
  H   H1136     1.0  0.27954  0.47499  0.62678  1.0000
  C   C674      1.0  0.45697  0.92419  0.62898  1.0000
  H   H1137     1.0  0.10684  0.87307  0.69235  1.0000
  C   C675      1.0  0.33691  0.96650  0.57778  1.0000
  H   H1138     1.0  0.37067  0.86118  0.67144  1.0000
  H   H1139     1.0  0.40191  0.96811  0.54809  1.0000
  H   H1140     1.0  0.09806  0.59232  0.57421  1.0000
  S   S195      1.0  0.33206  0.96468  0.59344  1.0000
  C   C676      1.0  0.17991  0.90546  0.70455  1.0000
  C   C677      1.0  0.24541  0.92474  0.57188  1.0000
  C   C678      1.0  0.25780  0.88967  0.58473  1.0000
  H   H1141     1.0  0.18222  0.85353  0.59252  1.0000
  C   C679      1.0  0.46048  0.87572  0.62643  1.0000
  C   C680      1.0  0.39166  0.92077  0.67378  1.0000
  H   H1142     1.0  0.43920  0.95003  0.53035  1.0000
  H   H1143     1.0  0.20802  0.93008  0.68413  1.0000
  H   H1144     1.0  0.24971  0.89698  0.55646  1.0000
  H   H1145     1.0  0.17091  0.82863  0.57980  1.0000
  H   H1146     1.0  0.21807  0.90733  0.55549  1.0000
  H   H1147     1.0  0.07019  0.63424  0.55293  1.0000
  C   C681      1.0  0.24196  0.91504  0.55861  1.0000
  H   H1148     1.0  0.23345  0.94015  0.57252  1.0000
  H   H1149     1.0  0.96391  0.71966  0.68817  1.0000
  H   H1150     1.0  0.21328  0.88052  0.69291  1.0000
  H   H1151     1.0  0.21974  0.89672  0.59925  1.0000
  H   H1152     1.0  0.05794  0.57266  0.57446  1.0000
  H   H1153     1.0  0.10381  0.64817  0.54434  1.0000
  H   H1154     1.0  0.26987  0.94466  0.59796  1.0000
  H   H1155     1.0  0.36244  0.94565  0.67144  1.0000
  H   H1156     1.0  0.39921  0.93537  0.53213  1.0000
  C   C682      1.0  0.42045  0.95653  0.53272  1.0000
  H   H1157     1.0  0.43462  0.92888  0.65761  1.0000
  C   C683      1.0  0.13851  0.85464  0.69959  1.0000
  H   H1158     1.0  0.26980  0.49372  0.61133  1.0000
  S   S196      1.0  0.00399  0.64495  0.70640  1.0000
  H   H1159     1.0  0.43002  0.95447  0.55128  1.0000
  H   H1160     1.0  0.45413  0.89147  0.66293  1.0000
  H   H1161     1.0  0.38083  0.96323  0.64726  1.0000
  H   H1162     1.0  0.23947  0.94894  0.60523  1.0000
  H   H1163     1.0  0.18517  0.95081  0.69875  1.0000
  C   C684      1.0  0.42466  0.97016  0.54545  1.0000
  C   C685      1.0  0.27601  0.48320  0.60360  1.0000
  H   H1164     1.0  0.20502  0.91731  0.70417  1.0000
  C   C686      1.0  0.96704  0.59163  0.46279  1.0000
  H   H1165     1.0  0.24869  0.96277  0.59062  1.0000
  H   H1166     1.0  0.17724  0.83042  0.71000  1.0000
  H   H1167     1.0  0.45231  0.48759  0.58281  1.0000
  H   H1168     1.0  0.41832  0.97219  0.52609  1.0000
  H   H1169     1.0  0.40030  0.95921  0.46140  1.0000
  Fe  Fe97      1.0  0.04237  0.74706  0.72896  1.0000
  S   S197      1.0  0.04564  0.70291  0.73262  1.0000
  S   S198      1.0  0.08796  0.78203  0.72334  1.0000
  Fe  Fe98      1.0  0.00560  0.68084  0.72035  1.0000
  Fe  Fe99      1.0  0.01373  0.69779  0.74754  1.0000
  S   S199      1.0  0.03415  0.68603  0.76433  1.0000
  H   H1170     1.0  0.38438  0.97437  0.88273  1.0000
  S   S200      1.0  0.01228  0.74354  0.74440  1.0000
  Fe  Fe100     1.0  0.06390  0.60599  0.84881  1.0000
  S   S201      1.0  0.01548  0.59972  0.84700  1.0000
  S   S202      1.0  0.08055  0.56774  0.85007  1.0000
  Fe  Fe101     1.0  0.08703  0.67590  0.85063  1.0000
  S   S203      1.0  0.03979  0.67333  0.84911  1.0000
  S   S204      1.0  0.12083  0.72458  0.85479  1.0000
  Fe  Fe102     1.0  0.02717  0.63515  0.86192  1.0000
  S   S205      1.0  0.99463  0.62996  0.87716  1.0000
  Fe  Fe103     1.0  0.03279  0.63888  0.83430  1.0000
  S   S206      1.0  0.00535  0.64101  0.81775  1.0000
  S   S207      1.0  0.07474  0.63960  0.86430  1.0000
  S   S208      1.0  0.08085  0.64319  0.83520  1.0000
  Fe  Fe104     1.0  0.21000  0.94369  0.73621  1.0000
  S   S209      1.0  0.23845  0.91703  0.73564  1.0000
  S   S210      1.0  0.15893  0.92149  0.73767  1.0000
  Fe  Fe105     1.0  0.26194  0.94683  0.72045  1.0000
  Fe  Fe106     1.0  0.27012  0.95359  0.74808  1.0000
  S   S211      1.0  0.29527  0.94217  0.76329  1.0000
  H   H1171     1.0  0.10030  0.74918  0.79202  1.0000
  C   C687      1.0  0.06624  0.47807  0.85211  1.0000
  Fe  Fe107     1.0  0.27709  0.85197  0.84113  1.0000
  S   S212      1.0  0.25510  0.88438  0.84345  1.0000
  S   S213      1.0  0.25001  0.80368  0.83390  1.0000
  Fe  Fe108     1.0  0.33984  0.90060  0.84850  1.0000
  S   S214      1.0  0.32146  0.93670  0.85114  1.0000
  S   S215      1.0  0.38845  0.91178  0.85506  1.0000
  Fe  Fe109     1.0  0.28282  0.90053  0.86043  1.0000
  S   S216      1.0  0.25766  0.90147  0.87753  1.0000
  Fe  Fe110     1.0  0.29522  0.91760  0.83389  1.0000
  H   H1172     1.0  0.11721  0.73177  0.92358  1.0000
  S   S217      1.0  0.30225  0.86535  0.85862  1.0000
  S   S218      1.0  0.31620  0.88423  0.83070  1.0000
  Fe  Fe111     1.0  0.99520  0.68195  0.94792  1.0000
  S   S219      1.0  0.00003  0.73048  0.95038  1.0000
  S   S220      1.0  0.01909  0.66998  0.93229  1.0000
  H   H1173     1.0  0.96964  0.54306  0.74602  1.0000
  C   C688      1.0  0.43532  0.50632  0.84797  1.0000
  Fe  Fe112     1.0  0.97322  0.71711  0.73156  1.0000
  H   H1174     1.0  0.41526  0.90706  0.89395  1.0000
  H   H1175     1.0  0.11162  0.78749  0.79720  1.0000
  S   S221      1.0  0.15662  0.88757  0.95315  1.0000
  H   H1176     1.0  0.37922  0.89350  0.92320  1.0000
  C   C689      1.0  0.26507  0.92318  0.89114  1.0000
  C   C690      1.0  0.28948  0.95161  0.89273  1.0000
  H   H1177     1.0  0.15411  0.78445  0.92495  1.0000
  C   C691      1.0  0.27615  0.95493  0.91348  1.0000
  C   C692      1.0  0.25135  0.92682  0.91184  1.0000
  C   C693      1.0  0.24590  0.91110  0.90075  1.0000
  H   H1178     1.0  0.07287  0.64850  0.72820  1.0000
  H   H1179     1.0  0.08063  0.60399  0.88900  1.0000
  H   H1180     1.0  0.23650  0.91705  0.91913  1.0000
  H   H1181     1.0  0.22682  0.88923  0.89963  1.0000
  C   C694      1.0  0.28983  0.94097  0.77887  1.0000
  C   C695      1.0  0.30905  0.93303  0.78620  1.0000
  C   C696      1.0  0.30691  0.93341  0.79865  1.0000
  C   C697      1.0  0.28564  0.94204  0.80396  1.0000
  H   H1182     1.0  0.13829  0.77046  0.82206  1.0000
  H   H1183     1.0  0.21061  0.95792  0.90590  1.0000
  H   H1184     1.0  0.32606  0.92694  0.78221  1.0000
  H   H1185     1.0  0.32221  0.92770  0.80415  1.0000
  C   C698      1.0  0.15693  0.74547  0.84893  1.0000
  C   C699      1.0  0.17328  0.77570  0.85302  1.0000
  C   C700      1.0  0.20178  0.79369  0.84848  1.0000
  C   C701      1.0  0.21419  0.78160  0.83977  1.0000
  C   C702      1.0  0.19767  0.75147  0.83552  1.0000
  C   C703      1.0  0.16911  0.73341  0.84009  1.0000
  H   H1186     1.0  0.16396  0.78524  0.85983  1.0000
  H   H1187     1.0  0.21426  0.81681  0.85184  1.0000
  H   H1188     1.0  0.20723  0.74191  0.82881  1.0000
  H   H1189     1.0  0.15673  0.71013  0.83690  1.0000
  C   C704      1.0  0.00235  0.64299  0.89229  1.0000
  H   H1190     1.0  0.35872  0.94612  0.90139  1.0000
  C   C705      1.0  0.98312  0.65125  0.91151  1.0000
  C   C706      1.0  0.01182  0.66021  0.91684  1.0000
  C   C707      1.0  0.03573  0.66059  0.90978  1.0000
  C   C708      1.0  0.03117  0.65246  0.89758  1.0000
  C   C709      1.0  0.32088  0.89232  0.89070  1.0000
  C   C710      1.0  0.04925  0.75809  0.92584  1.0000
  H   H1191     1.0  0.05796  0.66711  0.91380  1.0000
  H   H1192     1.0  0.04984  0.65298  0.89231  1.0000
  C   C711      1.0  0.10623  0.81903  0.72973  1.0000
  C   C712      1.0  0.09083  0.83771  0.73158  1.0000
  C   C713      1.0  0.10716  0.86896  0.73443  1.0000
  C   C714      1.0  0.13888  0.88163  0.73546  1.0000
  C   C715      1.0  0.15404  0.86255  0.73416  1.0000
  C   C716      1.0  0.13779  0.83143  0.73128  1.0000
  H   H1193     1.0  0.10742  0.71025  0.80512  1.0000
  H   H1194     1.0  0.11624  0.78551  0.94713  1.0000
  H   H1195     1.0  0.17831  0.87182  0.73514  1.0000
  H   H1196     1.0  0.14983  0.81708  0.72987  1.0000
  C   C717      1.0  0.02590  0.67512  0.77936  1.0000
  C   C718      1.0  0.99755  0.66838  0.78422  1.0000
  C   C719      1.0  0.99186  0.65829  0.79598  1.0000
  C   C720      1.0  0.01434  0.65483  0.80309  1.0000
  C   C721      1.0  0.04271  0.66166  0.79823  1.0000
  C   C722      1.0  0.04845  0.67185  0.78649  1.0000
  H   H1197     1.0  0.03394  0.59488  0.88163  1.0000
  S   S222      1.0  0.00383  0.72508  0.71589  1.0000
  H   H1198     1.0  0.05996  0.65836  0.80344  1.0000
  H   H1199     1.0  0.07041  0.67674  0.78283  1.0000
  C   C723      1.0  0.06201  0.52709  0.85031  1.0000
  C   C724      1.0  0.03054  0.51120  0.84925  1.0000
  C   C725      1.0  0.07968  0.51026  0.85175  1.0000
  H   H1200     1.0  0.01661  0.52373  0.84810  1.0000
  H   H1201     1.0  0.10402  0.52223  0.85259  1.0000
  C   C726      1.0  0.41901  0.89399  0.83766  1.0000
  C   C727      1.0  0.41971  0.90602  0.84911  1.0000
  H   H1202     1.0  0.13639  0.72650  0.81681  1.0000
  H   H1203     1.0  0.39885  0.88764  0.83213  1.0000
  H   H1204     1.0  0.07287  0.62001  0.74616  1.0000
  C   C728      1.0  0.11841  0.77136  0.82642  1.0000
  N   N53       1.0  0.01373  0.54776  0.88676  1.0000
  H   H1205     1.0  0.38211  0.51093  0.83782  1.0000
  C   C729      1.0  0.02085  0.54802  0.89984  1.0000
  C   C730      1.0  0.00901  0.51728  0.88121  1.0000
  C   C731      1.0  0.03753  0.57356  0.88033  1.0000
  H   H1206     1.0  0.01601  0.72958  0.83257  1.0000
  H   H1207     1.0  0.33970  0.90086  0.91296  1.0000
  H   H1208     1.0  0.32083  0.54472  0.84794  1.0000
  C   C732      1.0  0.07106  0.58195  0.88391  1.0000
  C   C733      1.0  0.13129  0.85434  0.96019  1.0000
  H   H1209     1.0  0.01077  0.59285  0.76845  1.0000
  H   H1210     1.0  0.04151  0.54422  0.90158  1.0000
  H   H1211     1.0  0.98678  0.56259  0.86681  1.0000
  H   H1212     1.0  0.13434  0.79891  0.91518  1.0000
  C   C734      1.0  0.01708  0.47897  0.84963  1.0000
  H   H1213     1.0  0.03518  0.56875  0.87058  1.0000
  C   C735      1.0  0.29507  0.96724  0.90383  1.0000
  N   N54       1.0  0.10646  0.76973  0.92875  1.0000
  C   C736      1.0  0.33305  0.54051  0.84033  1.0000
  H   H1214     1.0  0.16405  0.93855  0.71174  1.0000
  C   C737      1.0  0.13622  0.79339  0.92461  1.0000
  C   C738      1.0  0.14877  0.82442  0.93146  1.0000
  C   C739      1.0  0.30017  0.85789  0.89087  1.0000
  H   H1215     1.0  0.13196  0.83451  0.93206  1.0000
  H   H1216     1.0  0.25307  0.95508  0.77867  1.0000
  H   H1217     1.0  0.08462  0.58583  0.87576  1.0000
  H   H1218     1.0  0.07556  0.56464  0.88886  1.0000
  H   H1219     1.0  0.29406  0.85001  0.90002  1.0000
  H   H1220     1.0  0.12165  0.76689  0.83587  1.0000
  C   C740      1.0  0.36720  0.95040  0.88270  1.0000
  S   S223      1.0  0.24839  0.92780  0.95701  1.0000
  C   C741      1.0  0.31210  0.51179  0.83301  1.0000
  C   C742      1.0  0.08397  0.73977  0.94773  1.0000
  C   C743      1.0  0.98405  0.55099  0.88572  1.0000
  H   H1221     1.0  0.98652  0.57374  0.88919  1.0000
  H   H1222     1.0  0.30381  0.96173  0.88536  1.0000
  H   H1223     1.0  0.09525  0.88355  0.73548  1.0000
  H   H1224     1.0  0.31012  0.84375  0.88626  1.0000
  H   H1225     1.0  0.28853  0.50770  0.83541  1.0000
  C   C744      1.0  0.26818  0.94912  0.78417  1.0000
  C   C745      1.0  0.08243  0.78185  0.92714  1.0000
  H   H1226     1.0  0.12889  0.76414  0.80333  1.0000
  H   H1227     1.0  0.11670  0.81093  0.81712  1.0000
  C   C746      1.0  0.12196  0.80473  0.82600  1.0000
  H   H1228     1.0  0.08768  0.72010  0.90387  1.0000
  H   H1229     1.0  0.10795  0.80962  0.83271  1.0000
  C   C747      1.0  0.01808  0.57280  0.74502  1.0000
  H   H1230     1.0  0.14583  0.82009  0.82830  1.0000
  H   H1231     1.0  0.07623  0.71698  0.94333  1.0000
  H   H1232     1.0  0.11138  0.68742  0.81658  1.0000
  C   C748      1.0  0.30023  0.47649  0.85635  1.0000
  C   C749      1.0  0.03130  0.60609  0.76343  1.0000
  H   H1233     1.0  0.07820  0.72200  0.92411  1.0000
  H   H1234     1.0  0.31961  0.89927  0.88144  1.0000
  H   H1235     1.0  0.02890  0.48511  0.87757  1.0000
  H   H1236     1.0  0.03836  0.62994  0.76675  1.0000
  H   H1237     1.0  0.06930  0.74351  0.83899  1.0000
  N   N55       1.0  0.23309  0.83986  0.79991  1.0000
  C   C750      1.0  0.21095  0.83853  0.80943  1.0000
  C   C751      1.0  0.22328  0.80793  0.79481  1.0000
  C   C752      1.0  0.23117  0.86093  0.79048  1.0000
  C   C753      1.0  0.26428  0.85204  0.80563  1.0000
  C   C754      1.0  0.21339  0.86956  0.81448  1.0000
  C   C755      1.0  0.22430  0.78399  0.80352  1.0000
  C   C756      1.0  0.24361  0.85847  0.77819  1.0000
  C   C757      1.0  0.29030  0.85049  0.79832  1.0000
  H   H1238     1.0  0.18718  0.82593  0.80610  1.0000
  H   H1239     1.0  0.21353  0.82579  0.81721  1.0000
  H   H1240     1.0  0.23697  0.80701  0.78716  1.0000
  H   H1241     1.0  0.19975  0.79954  0.79109  1.0000
  H   H1242     1.0  0.20717  0.85722  0.78880  1.0000
  H   H1243     1.0  0.24309  0.88515  0.79354  1.0000
  H   H1244     1.0  0.27168  0.87639  0.80837  1.0000
  H   H1245     1.0  0.26419  0.84091  0.81417  1.0000
  H   H1246     1.0  0.20740  0.88288  0.80778  1.0000
  H   H1247     1.0  0.19733  0.86554  0.82184  1.0000
  H   H1248     1.0  0.23617  0.88350  0.81828  1.0000
  H   H1249     1.0  0.24727  0.79049  0.80746  1.0000
  H   H1250     1.0  0.20775  0.77976  0.81068  1.0000
  H   H1251     1.0  0.21821  0.76189  0.79866  1.0000
  H   H1252     1.0  0.24315  0.87719  0.77265  1.0000
  H   H1253     1.0  0.22918  0.83683  0.77343  1.0000
  H   H1254     1.0  0.26734  0.86120  0.77855  1.0000
  H   H1255     1.0  0.30242  0.87208  0.79364  1.0000
  H   H1256     1.0  0.28344  0.83115  0.79189  1.0000
  H   H1257     1.0  0.30681  0.84717  0.80443  1.0000
  N   N56       1.0  0.08883  0.74747  0.82155  1.0000
  C   C758      1.0  0.06443  0.74788  0.82967  1.0000
  C   C759      1.0  0.08947  0.71646  0.82234  1.0000
  C   C760      1.0  0.08122  0.75322  0.80907  1.0000
  C   C761      1.0  0.03168  0.72520  0.82648  1.0000
  C   C762      1.0  0.11274  0.71053  0.81471  1.0000
  C   C763      1.0  0.10730  0.76416  0.80013  1.0000
  Fe  Fe113     1.0  0.25841  0.96688  0.94467  1.0000
  H   H1258     1.0  0.06374  0.77069  0.82990  1.0000
  H   H1259     1.0  0.09358  0.71193  0.83168  1.0000
  H   H1260     1.0  0.06723  0.69812  0.81966  1.0000
  H   H1261     1.0  0.06293  0.73215  0.80512  1.0000
  H   H1262     1.0  0.07151  0.77061  0.80919  1.0000
  H   H1263     1.0  0.27854  0.85377  0.88612  1.0000
  H   H1264     1.0  0.02453  0.72769  0.81733  1.0000
  H   H1265     1.0  0.99481  0.52470  0.74896  1.0000
  H   H1266     1.0  0.34612  0.49636  0.85055  1.0000
  C   C764      1.0  0.44629  0.91420  0.85613  1.0000
  H   H1267     1.0  0.36244  0.86259  0.88941  1.0000
  H   H1268     1.0  0.96976  0.65292  0.79960  1.0000
  C   C765      1.0  0.36787  0.88634  0.88664  1.0000
  H   H1269     1.0  0.06653  0.82844  0.73027  1.0000
  H   H1270     1.0  0.41009  0.88723  0.88002  1.0000
  H   H1271     1.0  0.39876  0.92344  0.91343  1.0000
  C   C766      1.0  0.97023  0.54784  0.87311  1.0000
  N   N57       1.0  0.02515  0.60416  0.75021  1.0000
  H   H1272     1.0  0.06506  0.74683  0.94866  1.0000
  H   H1273     1.0  0.33913  0.56087  0.83474  1.0000
  H   H1274     1.0  0.08359  0.79778  0.93460  1.0000
  H   H1275     1.0  0.04208  0.75319  0.91636  1.0000
  N   N58       1.0  0.35332  0.90154  0.89475  1.0000
  H   H1276     1.0  0.33608  0.48348  0.81723  1.0000
  H   H1277     1.0  0.38969  0.50399  0.82302  1.0000
  H   H1278     1.0  0.07851  0.61038  0.76471  1.0000
  H   H1279     1.0  0.98984  0.54817  0.76006  1.0000
  H   H1280     1.0  0.04984  0.60877  0.72611  1.0000
  S   S224      1.0  0.23151  0.97178  0.72042  1.0000
  C   C767      1.0  0.99142  0.54602  0.75035  1.0000
  H   H1281     1.0  0.39301  0.94442  0.89724  1.0000
  H   H1282     1.0  0.24986  0.95676  0.80066  1.0000
  C   C768      1.0  0.97840  0.64238  0.89937  1.0000
  H   H1283     1.0  0.03833  0.56740  0.74517  1.0000
  H   H1284     1.0  0.00887  0.63921  0.74676  1.0000
  H   H1285     1.0  0.15729  0.82276  0.94048  1.0000
  H   H1286     1.0  0.00295  0.57925  0.90802  1.0000
  H   H1287     1.0  0.06057  0.64970  0.74871  1.0000
  H   H1288     1.0  0.00292  0.51632  0.87163  1.0000
  C   C769      1.0  0.42265  0.47642  0.84302  1.0000
  H   H1289     1.0  0.29246  0.49506  0.85552  1.0000
  H   H1290     1.0  0.16844  0.84091  0.92672  1.0000
  H   H1291     1.0  0.34050  0.86601  0.90778  1.0000
  H   H1292     1.0  0.20248  0.86885  0.71492  1.0000
  C   C770      1.0  0.11086  0.76440  0.94165  1.0000
  C   C771      1.0  0.97350  0.60516  0.75593  1.0000
  H   H1293     1.0  0.35837  0.88383  0.87743  1.0000
  C   C772      1.0  0.09817  0.74334  0.90804  1.0000
  H   H1294     1.0  0.03428  0.76814  0.92966  1.0000
  H   H1295     1.0  0.31002  0.90429  0.89621  1.0000
  H   H1296     1.0  0.04410  0.73651  0.93040  1.0000
  H   H1297     1.0  0.03392  0.57684  0.91590  1.0000
  H   H1298     1.0  0.42173  0.51388  0.85359  1.0000
  H   H1299     1.0  0.97990  0.67063  0.77889  1.0000
  H   H1300     1.0  0.08668  0.79554  0.91898  1.0000
  C   C773      1.0  0.38329  0.89897  0.91368  1.0000
  H   H1301     1.0  0.01232  0.57185  0.73540  1.0000
  H   H1302     1.0  0.44735  0.92386  0.86494  1.0000
  C   C774      1.0  0.99992  0.61394  0.74728  1.0000
  C   C775      1.0  0.05170  0.62965  0.73105  1.0000
  S   S225      1.0  0.28324  0.94462  0.81963  1.0000
  H   H1303     1.0  0.09544  0.84718  0.94740  1.0000
  H   H1304     1.0  0.37153  0.93812  0.87507  1.0000
  C   C776      1.0  0.09977  0.74069  0.92163  1.0000
  H   H1305     1.0  0.04428  0.50739  0.89072  1.0000
  H   H1306     1.0  0.40948  0.92388  0.88060  1.0000
  H   H1307     1.0  0.12111  0.75467  0.90435  1.0000
  H   H1308     1.0  0.31410  0.51805  0.82351  1.0000
  H   H1309     1.0  0.39428  0.88442  0.91020  1.0000
  H   H1310     1.0  0.13057  0.75832  0.94281  1.0000
  H   H1311     1.0  0.05000  0.57132  0.76508  1.0000
  C   C777      1.0  0.05564  0.59541  0.76771  1.0000
  H   H1312     1.0  0.05684  0.59676  0.77756  1.0000
  H   H1313     1.0  0.17516  0.89754  0.71380  1.0000
  C   C778      1.0  0.02483  0.57739  0.90685  1.0000
  H   H1314     1.0  0.98967  0.49861  0.88537  1.0000
  H   H1315     1.0  0.18407  0.97401  0.90886  1.0000
  C   C779      1.0  0.35261  0.89123  0.90734  1.0000
  H   H1316     1.0  0.35461  0.54047  0.84358  1.0000
  C   C780      1.0  0.36873  0.93592  0.89466  1.0000
  H   H1317     1.0  0.02816  0.70129  0.82781  1.0000
  H   H1318     1.0  0.03288  0.63569  0.72831  1.0000
  H   H1319     1.0  0.96444  0.65063  0.91679  1.0000
  H   H1320     1.0  0.34485  0.95103  0.88123  1.0000
  C   C781      1.0  0.40257  0.90229  0.88543  1.0000
  S   S226      1.0  0.97305  0.67107  0.73545  1.0000
  H   H1321     1.0  0.08427  0.75565  0.90533  1.0000
  H   H1322     1.0  0.05482  0.52356  0.87611  1.0000
  C   C782      1.0  0.26635  0.94996  0.79664  1.0000
  C   C783      1.0  0.44461  0.89041  0.83333  1.0000
  Fe  Fe114     1.0  0.20172  0.92719  0.95829  1.0000
  N   N59       1.0  0.31706  0.48303  0.83458  1.0000
  H   H1323     1.0  0.00263  0.52857  0.90416  1.0000
  C   C784      1.0  0.03611  0.50839  0.88160  1.0000
  H   H1324     1.0  0.98084  0.61867  0.76438  1.0000
  H   H1325     1.0  0.04096  0.59825  0.90267  1.0000
  H   H1326     1.0  0.98985  0.60517  0.73831  1.0000
  C   C785      1.0  0.05358  0.62640  0.74460  1.0000
  H   H1327     1.0  0.37361  0.53080  0.82570  1.0000
  C   C786      1.0  0.37335  0.50879  0.82860  1.0000
  H   H1328     1.0  0.44382  0.88126  0.82444  1.0000
  C   C787      1.0  0.32437  0.47847  0.84724  1.0000
  H   H1329     1.0  0.09108  0.73725  0.95691  1.0000
  S   S227      1.0  0.21139  0.96467  0.94521  1.0000
  C   C788      1.0  0.34182  0.48255  0.82673  1.0000
  C   C789      1.0  0.10218  0.83832  0.95513  1.0000
  H   H1330     1.0  0.96652  0.53396  0.89124  1.0000
  H   H1331     1.0  0.31005  0.47825  0.86543  1.0000
  H   H1332     1.0  0.05926  0.79907  0.95606  1.0000
  C   C790      1.0  0.08162  0.81103  0.96001  1.0000
  H   H1333     1.0  0.96322  0.58056  0.75779  1.0000
  H   H1334     1.0  0.27819  0.47565  0.81470  1.0000
  H   H1335     1.0  0.80089  0.03756  0.97884  1.0000
  H   H1336     1.0  0.82343  0.12834  0.12600  1.0000
  Fe  Fe115     1.0  0.62337  0.04171  0.06792  1.0000
  S   S228      1.0  0.58623  0.05939  0.07026  1.0000
  Fe  Fe116     1.0  0.69227  0.06397  0.07101  1.0000
  S   S229      1.0  0.68859  0.01607  0.06909  1.0000
  S   S230      1.0  0.74192  0.09496  0.07444  1.0000
  Fe  Fe117     1.0  0.65687  0.01057  0.05365  1.0000
  Fe  Fe118     1.0  0.64924  0.00272  0.08113  1.0000
  S   S231      1.0  0.66221  0.05942  0.05503  1.0000
  S   S232      1.0  0.65459  0.05084  0.08402  1.0000
  N   N60       1.0  0.75490  0.03079  0.10253  1.0000
  S   S233      1.0  0.80948  0.00253  0.18510  1.0000
  S   S234      1.0  0.73075  0.00542  0.17991  1.0000
  Fe  Fe119     1.0  0.90244  0.27705  0.05763  1.0000
  S   S235      1.0  0.87145  0.29976  0.06273  1.0000
  H   H1337     1.0  0.86651  0.16653  0.12088  1.0000
  S   S236      1.0  0.88629  0.29216  0.09055  1.0000
  Fe  Fe120     1.0  0.85388  0.26340  0.07631  1.0000
  S   S237      1.0  0.80312  0.23951  0.07839  1.0000
  Fe  Fe121     1.0  0.90671  0.32699  0.07645  1.0000
  H   H1338     1.0  0.49075  0.12202  0.08413  1.0000
  S   S238      1.0  0.88304  0.23965  0.07083  1.0000
  Fe  Fe122     1.0  0.92932  0.17641  0.17791  1.0000
  S   S239      1.0  0.92866  0.22249  0.18017  1.0000
  S   S240      1.0  0.88163  0.14208  0.17280  1.0000
  S   S241      1.0  0.92056  0.37580  0.08387  1.0000
  C   C791      1.0  0.48532  0.43480  0.06363  1.0000
  H   H1339     1.0  0.88180  0.23878  0.01394  1.0000
  C   C792      1.0  0.79895  0.09390  0.98202  1.0000
  C   C793      1.0  0.52800  0.41049  0.06668  1.0000
  C   C794      1.0  0.49681  0.39099  0.06639  1.0000
  H   H1340     1.0  0.71632  0.05481  0.96810  1.0000
  C   C795      1.0  0.81814  0.08733  0.20784  1.0000
  H   H1341     1.0  0.88369  0.13441  0.13210  1.0000
  C   C796      1.0  0.95392  0.25070  0.00688  1.0000
  C   C797      1.0  0.94561  0.25589  0.11256  1.0000
  C   C798      1.0  0.82976  0.04111  0.18145  1.0000
  C   C799      1.0  0.85991  0.05689  0.18548  1.0000
  C   C800      1.0  0.87627  0.08794  0.18298  1.0000
  C   C801      1.0  0.86251  0.10330  0.17638  1.0000
  C   C802      1.0  0.83239  0.08749  0.17237  1.0000
  C   C803      1.0  0.81608  0.05656  0.17488  1.0000
  H   H1342     1.0  0.87066  0.04505  0.19056  1.0000
  H   H1343     1.0  0.89948  0.09990  0.18610  1.0000
  H   H1344     1.0  0.82151  0.09921  0.16732  1.0000
  H   H1345     1.0  0.79296  0.04466  0.17169  1.0000
  C   C804      1.0  0.75767  0.13503  0.07608  1.0000
  C   C805      1.0  0.74053  0.15204  0.07442  1.0000
  C   C806      1.0  0.75458  0.18413  0.07536  1.0000
  C   C807      1.0  0.78579  0.19928  0.07786  1.0000
  C   C808      1.0  0.80273  0.18215  0.07970  1.0000
  C   C809      1.0  0.78870  0.15017  0.07883  1.0000
  H   H1346     1.0  0.71656  0.14054  0.07235  1.0000
  H   H1347     1.0  0.74131  0.19728  0.07402  1.0000
  H   H1348     1.0  0.82666  0.19357  0.08180  1.0000
  H   H1349     1.0  0.80203  0.13711  0.08018  1.0000
  C   C810      1.0  0.66482  0.00645  0.11619  1.0000
  H   H1350     1.0  0.66240  0.02426  0.11115  1.0000
  H   H1351     1.0  0.68219  0.03497  0.13194  1.0000
  H   H1352     1.0  0.83593  0.10487  0.13527  1.0000
  C   C811      1.0  0.92085  0.40932  0.07732  1.0000
  H   H1353     1.0  0.91767  0.34208  0.10737  1.0000
  H   H1354     1.0  0.52319  0.44240  0.09802  1.0000
  H   H1355     1.0  0.46716  0.05699  0.05270  1.0000
  C   C812      1.0  0.83241  0.10740  0.98619  1.0000
  C   C813      1.0  0.54601  0.04142  0.06869  1.0000
  C   C814      1.0  0.52875  0.05597  0.07369  1.0000
  C   C815      1.0  0.49680  0.04218  0.07307  1.0000
  C   C816      1.0  0.48162  0.01401  0.06715  1.0000
  C   C817      1.0  0.53082  0.01302  0.06291  1.0000
  H   H1356     1.0  0.54018  0.07777  0.07829  1.0000
  H   H1357     1.0  0.48382  0.05305  0.07732  1.0000
  H   H1358     1.0  0.82879  0.18701  0.12824  1.0000
  C   C818      1.0  0.65585  0.00736  0.01662  1.0000
  C   C819      1.0  0.65630  0.00905  0.00414  1.0000
  H   H1359     1.0  0.64260  0.01659  0.02168  1.0000
  H   H1360     1.0  0.64343  0.01980  0.99972  1.0000
  C   C820      1.0  0.56377  0.00829  0.10343  1.0000
  H   H1361     1.0  0.54441  0.40086  0.06798  1.0000
  H   H1362     1.0  0.78262  0.04486  0.12934  1.0000
  C   C821      1.0  0.59434  0.00780  0.10713  1.0000
  H   H1363     1.0  0.75229  0.02361  0.21084  1.0000
  H   H1364     1.0  0.49422  0.09643  0.06610  1.0000
  H   H1365     1.0  0.76050  0.04307  0.96949  1.0000
  C   C822      1.0  0.92600  0.43510  0.08465  1.0000
  H   H1366     1.0  0.75697  0.44987  0.06524  1.0000
  H   H1367     1.0  0.74824  0.08984  0.97096  1.0000
  H   H1368     1.0  0.74558  0.04631  0.00093  1.0000
  H   H1369     1.0  0.48953  0.36672  0.06748  1.0000
  C   C823      1.0  0.79420  0.04244  0.98778  1.0000
  C   C824      1.0  0.75223  0.04873  0.97799  1.0000
  C   C825      1.0  0.75362  0.00469  0.09451  1.0000
  C   C826      1.0  0.73405  0.06767  0.97487  1.0000
  H   H1370     1.0  0.48739  0.97761  0.05758  1.0000
  C   C827      1.0  0.76153  0.04447  0.12521  1.0000
  H   H1371     1.0  0.70585  0.98082  0.08857  1.0000
  C   C828      1.0  0.95102  0.26618  0.02757  1.0000
  S   S242      1.0  0.93947  0.30718  0.07053  1.0000
  H   H1372     1.0  0.77435  0.46578  0.07906  1.0000
  C   C829      1.0  0.68846  0.98063  0.01567  1.0000
  C   C830      1.0  0.90583  0.24532  0.01515  1.0000
  H   H1373     1.0  0.77879  0.99342  0.20995  1.0000
  H   H1374     1.0  0.46888  0.44449  0.06259  1.0000
  C   C831      1.0  0.78725  0.07913  0.00919  1.0000
  S   S243      1.0  0.96111  0.18425  0.19361  1.0000
  H   H1375     1.0  0.80936  0.10534  0.20736  1.0000
  H   H1376     1.0  0.82504  0.03805  0.20802  1.0000
  H   H1377     1.0  0.75503  0.99770  0.98883  1.0000
  H   H1378     1.0  0.59168  0.98793  0.11257  1.0000
  H   H1379     1.0  0.72184  0.06334  0.11391  1.0000
  C   C832      1.0  0.73041  0.04014  0.09828  1.0000
  H   H1380     1.0  0.84447  0.09427  0.98228  1.0000
  H   H1381     1.0  0.83228  0.42345  0.08356  1.0000
  S   S244      1.0  0.67071  0.99765  0.98158  1.0000
  C   C833      1.0  0.54186  0.13595  0.05203  1.0000
  H   H1382     1.0  0.72528  0.00621  0.11648  1.0000
  H   H1383     1.0  0.76290  0.08438  0.19922  1.0000
  C   C834      1.0  0.67601  0.01246  0.12800  1.0000
  H   H1384     1.0  0.70772  0.02128  0.09909  1.0000
  H   H1385     1.0  0.73286  0.04499  0.08867  1.0000
  C   C835      1.0  0.51644  0.14726  0.05081  1.0000
  S   S245      1.0  0.89716  0.26161  0.03792  1.0000
  C   C836      1.0  0.49422  0.13470  0.07576  1.0000
  H   H1386     1.0  0.80498  0.07029  0.00929  1.0000
  H   H1387     1.0  0.78747  0.06455  0.09157  1.0000
  H   H1388     1.0  0.74941  0.08909  0.10383  1.0000
  C   C837      1.0  0.81301  0.05000  0.10392  1.0000
  H   H1389     1.0  0.91285  0.27498  0.11485  1.0000
  C   C838      1.0  0.91708  0.41132  0.06510  1.0000
  C   C839      1.0  0.92771  0.46265  0.07985  1.0000
  C   C840      1.0  0.79444  0.43781  0.06993  1.0000
  H   H1390     1.0  0.71034  0.07270  0.10013  1.0000
  H   H1391     1.0  0.83364  0.07176  0.10437  1.0000
  H   H1392     1.0  0.54427  0.12474  0.04364  1.0000
  S   S246      1.0  0.94388  0.25417  0.09678  1.0000
  H   H1393     1.0  0.77405  0.03805  0.19828  1.0000
  N   N61       1.0  0.54118  0.97978  0.09717  1.0000
  H   H1394     1.0  0.74482  0.03793  0.13242  1.0000
  H   H1395     1.0  0.79028  0.99813  0.99356  1.0000
  C   C841      1.0  0.83798  0.45539  0.05632  1.0000
  C   C842      1.0  0.48209  0.11137  0.06531  1.0000
  C   C843      1.0  0.83034  0.39773  0.06770  1.0000
  H   H1396     1.0  0.78742  0.42517  0.07832  1.0000
  C   C844      1.0  0.78531  0.05685  0.10092  1.0000
  C   C845      1.0  0.74978  0.01990  0.11511  1.0000
  H   H1397     1.0  0.86368  0.12299  0.20719  1.0000
  H   H1398     1.0  0.56891  0.02862  0.09779  1.0000
  H   H1399     1.0  0.81980  0.08062  0.19848  1.0000
  N   N62       1.0  0.48476  0.12447  0.05312  1.0000
  C   C846      1.0  0.67253  0.99629  0.99733  1.0000
  H   H1400     1.0  0.80217  0.10926  0.13842  1.0000
  H   H1401     1.0  0.75939  0.01248  0.08526  1.0000
  C   C847      1.0  0.54682  0.45823  0.09613  1.0000
  H   H1402     1.0  0.72180  0.07112  0.98259  1.0000
  H   H1403     1.0  0.81507  0.46662  0.09160  1.0000
  N   N63       1.0  0.87373  0.17087  0.13996  1.0000
  C   C848      1.0  0.89287  0.15286  0.13902  1.0000
  H   H1404     1.0  0.79800  0.10445  0.00968  1.0000
  C   C849      1.0  0.88812  0.19585  0.14937  1.0000
  C   C850      1.0  0.51653  0.45424  0.06373  1.0000
  C   C851      1.0  0.86697  0.20542  0.15691  1.0000
  H   H1405     1.0  0.89275  0.14129  0.14751  1.0000
  H   H1406     1.0  0.91157  0.23258  0.99711  1.0000
  S   S247      1.0  0.67973  0.98773  0.20744  1.0000
  H   H1407     1.0  0.90170  0.18947  0.15595  1.0000
  H   H1408     1.0  0.90465  0.21684  0.14541  1.0000
  H   H1409     1.0  0.93897  0.15685  0.13710  1.0000
  N   N64       1.0  0.82849  0.45097  0.06906  1.0000
  H   H1410     1.0  0.85461  0.18748  0.16330  1.0000
  H   H1411     1.0  0.85063  0.21083  0.15156  1.0000
  H   H1412     1.0  0.88092  0.22629  0.16225  1.0000
  N   N65       1.0  0.80878  0.18698  0.03911  1.0000
  C   C852      1.0  0.80964  0.21808  0.03652  1.0000
  C   C853      1.0  0.82001  0.17648  0.02825  1.0000
  C   C854      1.0  0.83045  0.19093  0.04936  1.0000
  C   C855      1.0  0.77686  0.16603  0.04225  1.0000
  C   C856      1.0  0.80249  0.23509  0.04694  1.0000
  C   C857      1.0  0.80160  0.17378  0.01670  1.0000
  C   C858      1.0  0.83461  0.16235  0.05326  1.0000
  C   C859      1.0  0.76751  0.13122  0.04064  1.0000
  H   H1413     1.0  0.83225  0.23354  0.03325  1.0000
  H   H1414     1.0  0.79309  0.21647  0.02933  1.0000
  H   H1415     1.0  0.82109  0.15418  0.02942  1.0000
  H   H1416     1.0  0.84391  0.19248  0.02660  1.0000
  H   H1417     1.0  0.85330  0.20846  0.04735  1.0000
  H   H1418     1.0  0.82328  0.19952  0.05741  1.0000
  H   H1419     1.0  0.77244  0.17039  0.05161  1.0000
  H   H1420     1.0  0.76027  0.17122  0.03682  1.0000
  H   H1421     1.0  0.78124  0.22089  0.05137  1.0000
  H   H1422     1.0  0.82147  0.24374  0.05352  1.0000
  H   H1423     1.0  0.79990  0.25548  0.04358  1.0000
  H   H1424     1.0  0.80885  0.16159  0.00979  1.0000
  H   H1425     1.0  0.77697  0.16088  0.01786  1.0000
  H   H1426     1.0  0.80609  0.19663  0.01319  1.0000
  H   H1427     1.0  0.84354  0.15236  0.04616  1.0000
  H   H1428     1.0  0.81352  0.14506  0.05683  1.0000
  H   H1429     1.0  0.85161  0.16909  0.06067  1.0000
  H   H1430     1.0  0.75362  0.11946  0.04827  1.0000
  H   H1431     1.0  0.78620  0.12382  0.04025  1.0000
  H   H1432     1.0  0.75245  0.12214  0.03269  1.0000
  H   H1433     1.0  0.56359  0.15574  0.05416  1.0000
  H   H1434     1.0  0.60824  0.00845  0.09936  1.0000
  H   H1435     1.0  0.53893  0.12031  0.05942  1.0000
  C   C860      1.0  0.95308  0.35443  0.12138  1.0000
  C   C861      1.0  0.67955  0.98973  0.13475  1.0000
  C   C862      1.0  0.84253  0.14924  0.14358  1.0000
  H   H1436     1.0  0.83533  0.10882  0.99594  1.0000
  H   H1437     1.0  0.76503  0.06776  0.12278  1.0000
  C   C863      1.0  0.67150  0.99263  0.02246  1.0000
  H   H1438     1.0  0.81667  0.03552  0.09689  1.0000
  H   H1439     1.0  0.47563  0.99280  0.10071  1.0000
  C   C864      1.0  0.92862  0.26771  0.11927  1.0000
  C   C865      1.0  0.92625  0.17129  0.13583  1.0000
  H   H1440     1.0  0.86071  0.22212  0.13287  1.0000
  C   C866      1.0  0.49887  0.99947  0.06215  1.0000
  C   C867      1.0  0.82552  0.12154  0.13517  1.0000
  C   C868      1.0  0.53815  0.44223  0.06534  1.0000
  H   H1441     1.0  0.73546  0.02671  0.98120  1.0000
  C   C869      1.0  0.76513  0.06759  0.99845  1.0000
  H   H1442     1.0  0.80568  0.38669  0.06572  1.0000
  C   C870      1.0  0.87326  0.18442  0.12805  1.0000
  S   S248      1.0  0.61630  0.99250  0.06559  1.0000
  H   H1443     1.0  0.47546  0.05671  0.03743  1.0000
  C   C871      1.0  0.91922  0.43901  0.06028  1.0000
  C   C872      1.0  0.72850  0.06798  0.10457  1.0000
  H   H1444     1.0  0.84319  0.39992  0.05945  1.0000
  H   H1445     1.0  0.85454  0.21033  0.11768  1.0000
  H   H1446     1.0  0.54367  0.00157  0.05895  1.0000
  H   H1447     1.0  0.81580  0.05302  0.99291  1.0000
  C   C873      1.0  0.85294  0.20180  0.12684  1.0000
  S   S249      1.0  0.69553  0.99956  0.14936  1.0000
  H   H1448     1.0  0.75486  0.08434  0.99759  1.0000
  C   C874      1.0  0.68921  0.98266  0.00320  1.0000
  C   C875      1.0  0.72312  0.97639  0.09378  1.0000
  H   H1449     1.0  0.79017  0.11156  0.98393  1.0000
  C   C876      1.0  0.77638  0.01164  0.99366  1.0000
  H   H1450     1.0  0.78362  0.42062  0.06264  1.0000
  H   H1451     1.0  0.72914  0.05041  0.19989  1.0000
  H   H1452     1.0  0.48188  0.14953  0.07665  1.0000
  C   C877      1.0  0.51413  0.98613  0.09377  1.0000
  H   H1453     1.0  0.89635  0.20103  0.12578  1.0000
  C   C878      1.0  0.48137  0.07132  0.04563  1.0000
  Fe  Fe123     1.0  0.91711  0.27127  0.08416  1.0000
  C   C879      1.0  0.77935  0.46070  0.06990  1.0000
  C   C880      1.0  0.95346  0.26207  0.13763  1.0000
  H   H1454     1.0  0.82732  0.16111  0.14464  1.0000
  H   H1455     1.0  0.55438  0.01322  0.11174  1.0000
  C   C881      1.0  0.91984  0.25756  0.02622  1.0000
  H   H1456     1.0  0.95746  0.31897  0.10336  1.0000
  H   H1457     1.0  0.84383  0.14005  0.15246  1.0000
  Fe  Fe124     1.0  0.75926  0.97892  0.18067  1.0000
  H   H1458     1.0  0.84384  0.13095  0.98287  1.0000
  C   C882      1.0  0.65686  0.97751  0.11095  1.0000
  N   N66       1.0  0.77815  0.06343  0.98683  1.0000
  H   H1459     1.0  0.91687  0.44042  0.05079  1.0000
  H   H1460     1.0  0.55878  0.44384  0.09349  1.0000
  S   S250      1.0  0.96017  0.26970  0.15316  1.0000
  H   H1461     1.0  0.91322  0.39176  0.05934  1.0000
  H   H1462     1.0  0.79968  0.09247  0.97218  1.0000
  H   H1463     1.0  0.78801  0.07739  0.10624  1.0000
  H   H1464     1.0  0.77453  0.07068  0.01743  1.0000
  C   C883      1.0  0.92468  0.46485  0.06760  1.0000
  H   H1465     1.0  0.91007  0.35846  0.12046  1.0000
  C   C884      1.0  0.75047  0.06463  0.20482  1.0000
  H   H1466     1.0  0.60760  0.02864  0.11260  1.0000
  H   H1467     1.0  0.82825  0.43343  0.05117  1.0000
  S   S251      1.0  0.57788  0.46567  0.06655  1.0000
  H   H1468     1.0  0.93752  0.19201  0.14152  1.0000
  H   H1469     1.0  0.81110  0.03899  0.11259  1.0000
  H   H1470     1.0  0.77065  0.99607  0.09741  1.0000
  C   C885      1.0  0.76848  0.04514  0.20706  1.0000
  H   H1471     1.0  0.92899  0.43382  0.09411  1.0000
  C   C886      1.0  0.92837  0.35996  0.11435  1.0000
  H   H1472     1.0  0.48244  0.17257  0.03792  1.0000
  C   C887      1.0  0.83993  0.42882  0.07430  1.0000
  H   H1473     1.0  0.92017  0.28099  0.13680  1.0000
  H   H1474     1.0  0.48330  0.10849  0.03486  1.0000
  H   H1475     1.0  0.86507  0.43914  0.07491  1.0000
  H   H1476     1.0  0.49251  0.97686  0.11130  1.0000
  H   H1477     1.0  0.92842  0.17781  0.12639  1.0000
  H   H1478     1.0  0.83609  0.38212  0.07339  1.0000
  H   H1479     1.0  0.56085  0.46297  0.11456  1.0000
  H   H1480     1.0  0.52270  0.16845  0.05637  1.0000
  H   H1481     1.0  0.47109  0.16024  0.05906  1.0000
  C   C888      1.0  0.93281  0.27109  0.13171  1.0000
  C   C889      1.0  0.49755  0.99349  0.10411  1.0000
  H   H1482     1.0  0.51797  0.15558  0.04161  1.0000
  H   H1483     1.0  0.56440  0.99586  0.08080  1.0000
  H   H1484     1.0  0.51055  0.01694  0.10778  1.0000
  H   H1485     1.0  0.77155  0.01470  0.00305  1.0000
  S   S252      1.0  0.95386  0.17956  0.97104  1.0000
  C   C890      1.0  0.47518  0.40304  0.06497  1.0000
  H   H1486     1.0  0.93650  0.38265  0.11038  1.0000
  H   H1487     1.0  0.51884  0.14881  0.07518  1.0000
  H   H1488     1.0  0.60792  0.46618  0.10938  1.0000
  H   H1489     1.0  0.54564  0.47199  0.08854  1.0000
  C   C891      1.0  0.47415  0.09933  0.04364  1.0000
  C   C892      1.0  0.92268  0.24182  0.00556  1.0000
  H   H1490     1.0  0.52110  0.00582  0.08780  1.0000
  H   H1491     1.0  0.76073  0.00393  0.11674  1.0000
  H   H1492     1.0  0.94160  0.33076  0.12460  1.0000
  Fe  Fe125     1.0  0.68917  0.97769  0.96660  1.0000
  H   H1493     1.0  0.50548  0.07729  0.04777  1.0000
  H   H1494     1.0  0.95872  0.36966  0.12943  1.0000
  H   H1495     1.0  0.80379  0.46740  0.04746  1.0000
  S   S253      1.0  0.66888  0.98643  0.03801  1.0000
  H   H1496     1.0  0.86303  0.46361  0.05581  1.0000
  C   C893      1.0  0.46392  0.14071  0.05258  1.0000
  S   S254      1.0  0.93549  0.23478  0.96187  1.0000
  H   H1497     1.0  0.85313  0.46915  0.09388  1.0000
  H   H1498     1.0  0.96090  0.35332  0.09721  1.0000
  S   S255      1.0  0.95193  0.25531  0.21123  1.0000
  H   H1499     1.0  0.96220  0.27573  0.03598  1.0000
  Fe  Fe126     1.0  0.96265  0.23168  0.19508  1.0000
  H   H1500     1.0  0.60805  0.47486  0.09416  1.0000
  Fe  Fe127     1.0  0.66920  0.00459  0.27958  1.0000
  S   S256      1.0  0.67892  0.05468  0.28067  1.0000
  H   H1501     1.0  0.52212  0.31188  0.29414  1.0000
  Fe  Fe128     1.0  0.65331  0.99590  0.30659  1.0000
  S   S257      1.0  0.66351  0.04558  0.30919  1.0000
  Fe  Fe129     1.0  0.63725  0.04012  0.29199  1.0000
  S   S258      1.0  0.60273  0.06119  0.29256  1.0000
  Fe  Fe130     1.0  0.70402  0.05573  0.29771  1.0000
  S   S259      1.0  0.75317  0.08793  0.30224  1.0000
  S   S260      1.0  0.69577  0.00604  0.29635  1.0000
  Fe  Fe131     1.0  0.87864  0.25653  0.29423  1.0000
  S   S261      1.0  0.91776  0.24430  0.29871  1.0000
  S   S262      1.0  0.82795  0.23046  0.29704  1.0000
  Fe  Fe132     1.0  0.92007  0.31911  0.28497  1.0000
  S   S263      1.0  0.92596  0.36247  0.27551  1.0000
  Fe  Fe133     1.0  0.93489  0.26376  0.28074  1.0000
  H   H1502     1.0  0.89600  0.36420  0.29750  1.0000
  H   H1503     1.0  0.50884  0.97598  0.27800  1.0000
  S   S264      1.0  0.89463  0.27322  0.27601  1.0000
  S   S265      1.0  0.90079  0.30364  0.30279  1.0000
  H   H1504     1.0  0.56185  0.04123  0.33338  1.0000
  C   C894      1.0  0.93325  0.35545  0.24260  1.0000
  H   H1505     1.0  0.48740  0.25043  0.26802  1.0000
  H   H1506     1.0  0.66920  0.00255  0.33908  1.0000
  C   C895      1.0  0.77265  0.12669  0.29842  1.0000
  C   C896      1.0  0.80424  0.13866  0.29722  1.0000
  C   C897      1.0  0.82136  0.17024  0.29602  1.0000
  C   C898      1.0  0.80708  0.19028  0.29630  1.0000
  C   C899      1.0  0.77539  0.17825  0.29711  1.0000
  C   C900      1.0  0.75820  0.14659  0.29808  1.0000
  H   H1507     1.0  0.81559  0.12343  0.29747  1.0000
  H   H1508     1.0  0.84568  0.17911  0.29531  1.0000
  H   H1509     1.0  0.76410  0.19354  0.29736  1.0000
  H   H1510     1.0  0.73397  0.13773  0.29911  1.0000
  C   C901      1.0  0.89451  0.43292  0.29132  1.0000
  C   C902      1.0  0.88906  0.40580  0.29726  1.0000
  C   C903      1.0  0.89967  0.38463  0.29273  1.0000
  C   C904      1.0  0.91478  0.38985  0.28201  1.0000
  C   C905      1.0  0.92025  0.41696  0.27607  1.0000
  C   C906      1.0  0.91044  0.43861  0.28077  1.0000
  C   C907      1.0  0.85090  0.10332  0.21283  1.0000
  H   H1511     1.0  0.77682  0.03632  0.23987  1.0000
  C   C908      1.0  0.53678  0.44704  0.28161  1.0000
  C   C909      1.0  0.54985  0.42908  0.28687  1.0000
  C   C910      1.0  0.53229  0.39777  0.28861  1.0000
  C   C911      1.0  0.50147  0.38413  0.28519  1.0000
  C   C912      1.0  0.48839  0.40213  0.27997  1.0000
  C   C913      1.0  0.50599  0.43335  0.27815  1.0000
  H   H1512     1.0  0.94329  0.43942  0.30977  1.0000
  C   C914      1.0  0.52746  0.98550  0.32574  1.0000
  H   H1513     1.0  0.49568  0.44700  0.27404  1.0000
  C   C915      1.0  0.49985  0.01316  0.28527  1.0000
  C   C916      1.0  0.51869  0.99858  0.28208  1.0000
  C   C917      1.0  0.55023  0.01297  0.28418  1.0000
  C   C918      1.0  0.56327  0.04222  0.28945  1.0000
  C   C919      1.0  0.54443  0.05684  0.29257  1.0000
  C   C920      1.0  0.51288  0.04240  0.29052  1.0000
  H   H1514     1.0  0.55431  0.07950  0.29661  1.0000
  H   H1515     1.0  0.49868  0.05390  0.29300  1.0000
  N   N67       1.0  0.56154  0.99962  0.32539  1.0000
  S   S266      1.0  0.62565  0.99005  0.28967  1.0000
  H   H1516     1.0  0.92622  0.35102  0.23312  1.0000
  H   H1517     1.0  0.56447  0.00152  0.28169  1.0000
  H   H1518     1.0  0.58588  0.02591  0.34895  1.0000
  H   H1519     1.0  0.47686  0.45876  0.32150  1.0000
  H   H1520     1.0  0.50385  0.42158  0.30683  1.0000
  N   N68       1.0  0.81360  0.29757  0.27513  1.0000
  C   C921      1.0  0.78572  0.27171  0.27958  1.0000
  C   C922      1.0  0.83749  0.30622  0.28487  1.0000
  C   C923      1.0  0.82406  0.28536  0.26450  1.0000
  C   C924      1.0  0.80548  0.32368  0.27187  1.0000
  C   C925      1.0  0.75917  0.25684  0.27057  1.0000
  C   C926      1.0  0.82845  0.31521  0.29694  1.0000
  C   C927      1.0  0.85267  0.30757  0.25848  1.0000
  C   C928      1.0  0.83160  0.35604  0.27198  1.0000
  H   H1521     1.0  0.79152  0.25307  0.28297  1.0000
  H   H1522     1.0  0.77619  0.27948  0.28722  1.0000
  H   H1523     1.0  0.85887  0.32512  0.28242  1.0000
  H   H1524     1.0  0.84407  0.28700  0.28645  1.0000
  H   H1525     1.0  0.82809  0.26490  0.26694  1.0000
  H   H1526     1.0  0.80641  0.27758  0.25732  1.0000
  H   H1527     1.0  0.79421  0.31937  0.26294  1.0000
  H   H1528     1.0  0.78867  0.32527  0.27818  1.0000
  H   H1529     1.0  0.75328  0.27390  0.26596  1.0000
  H   H1530     1.0  0.76387  0.24193  0.26401  1.0000
  H   H1531     1.0  0.73880  0.24175  0.27536  1.0000
  H   H1532     1.0  0.81271  0.29479  0.30155  1.0000
  H   H1533     1.0  0.84883  0.32568  0.30282  1.0000
  H   H1534     1.0  0.81834  0.33200  0.29608  1.0000
  H   H1535     1.0  0.85892  0.29487  0.25145  1.0000
  H   H1536     1.0  0.87238  0.31728  0.26465  1.0000
  H   H1537     1.0  0.82671  0.36971  0.26509  1.0000
  H   H1538     1.0  0.85423  0.35696  0.27009  1.0000
  H   H1539     1.0  0.83259  0.36844  0.28049  1.0000
  C   C929      1.0  0.47198  0.21455  0.29171  1.0000
  C   C930      1.0  0.50156  0.44253  0.30987  1.0000
  H   H1540     1.0  0.78622  0.09212  0.22548  1.0000
  H   H1541     1.0  0.69532  0.02218  0.45181  1.0000
  C   C931      1.0  0.79157  0.00474  0.21819  1.0000
  S   S267      1.0  0.95605  0.24227  0.26740  1.0000
  H   H1542     1.0  0.48451  0.20701  0.30993  1.0000
  C   C932      1.0  0.47621  0.43605  0.31891  1.0000
  Fe  Fe134     1.0  0.94114  0.29273  0.30616  1.0000
  C   C933      1.0  0.79151  0.07178  0.22641  1.0000
  H   H1543     1.0  0.85188  0.11257  0.22197  1.0000
  C   C934      1.0  0.95813  0.45665  0.33306  1.0000
  H   H1544     1.0  0.51594  0.30253  0.27846  1.0000
  H   H1545     1.0  0.49620  0.47175  0.39575  1.0000
  H   H1546     1.0  0.51094  0.47254  0.24324  1.0000
  H   H1547     1.0  0.56753  0.00210  0.30638  1.0000
  C   C935      1.0  0.66723  0.00124  0.23001  1.0000
  H   H1548     1.0  0.51611  0.98424  0.30659  1.0000
  H   H1549     1.0  0.82924  0.04646  0.22349  1.0000
  C   C936      1.0  0.76714  0.04887  0.23419  1.0000
  H   H1550     1.0  0.75765  0.06143  0.24005  1.0000
  H   H1551     1.0  0.91459  0.26161  0.22968  1.0000
  H   H1552     1.0  0.48229  0.38193  0.32032  1.0000
  C   C937      1.0  0.66712  0.00001  0.24251  1.0000
  C   C938      1.0  0.93128  0.25173  0.24622  1.0000
  H   H1553     1.0  0.52033  0.25279  0.28182  1.0000
  C   C939      1.0  0.57249  0.99083  0.31409  1.0000
  H   H1554     1.0  0.48917  0.98558  0.44621  1.0000
  H   H1555     1.0  0.51544  0.01674  0.31473  1.0000
  N   N69       1.0  0.82691  0.17188  0.33443  1.0000
  C   C940      1.0  0.85023  0.16826  0.32658  1.0000
  C   C941      1.0  0.80934  0.14166  0.34010  1.0000
  C   C942      1.0  0.84155  0.19597  0.34400  1.0000
  C   C943      1.0  0.80655  0.18146  0.32694  1.0000
  C   C944      1.0  0.87377  0.19781  0.32140  1.0000
  C   C945      1.0  0.78712  0.11620  0.33178  1.0000
  C   C946      1.0  0.86513  0.19111  0.35203  1.0000
  C   C947      1.0  0.78051  0.18553  0.33339  1.0000
  H   H1556     1.0  0.86300  0.15699  0.33131  1.0000
  H   H1557     1.0  0.83908  0.15273  0.31888  1.0000
  H   H1558     1.0  0.79635  0.14421  0.34777  1.0000
  H   H1559     1.0  0.82498  0.13240  0.34397  1.0000
  H   H1560     1.0  0.85252  0.21904  0.34015  1.0000
  H   H1561     1.0  0.82415  0.19755  0.34998  1.0000
  H   H1562     1.0  0.81966  0.20372  0.32280  1.0000
  H   H1563     1.0  0.79683  0.16560  0.31923  1.0000
  H   H1564     1.0  0.88903  0.19172  0.31568  1.0000
  H   H1565     1.0  0.86323  0.20942  0.31569  1.0000
  H   H1566     1.0  0.88831  0.21408  0.32832  1.0000
  H   H1567     1.0  0.77734  0.09454  0.33664  1.0000
  H   H1568     1.0  0.76781  0.12128  0.32879  1.0000
  H   H1569     1.0  0.79838  0.11181  0.32393  1.0000
  H   H1570     1.0  0.88445  0.19074  0.34700  1.0000
  H   H1571     1.0  0.85479  0.16997  0.35714  1.0000
  H   H1572     1.0  0.87462  0.21047  0.35857  1.0000
  H   H1573     1.0  0.78775  0.20947  0.33667  1.0000
  H   H1574     1.0  0.77179  0.17015  0.34089  1.0000
  H   H1575     1.0  0.76096  0.17977  0.32709  1.0000
  C   C948      1.0  0.46465  0.24846  0.27038  1.0000
  C   C949      1.0  0.95015  0.24660  0.22657  1.0000
  H   H1576     1.0  0.95023  0.26106  0.33665  1.0000
  H   H1577     1.0  0.51965  0.99347  0.33382  1.0000
  H   H1578     1.0  0.49410  0.25806  0.31097  1.0000
  H   H1579     1.0  0.55098  0.30801  0.28551  1.0000
  C   C950      1.0  0.95209  0.24245  0.25167  1.0000
  C   C951      1.0  0.68243  0.98496  0.24838  1.0000
  C   C952      1.0  0.57240  0.03384  0.32596  1.0000
  H   H1580     1.0  0.68716  0.05103  0.45889  1.0000
  C   C953      1.0  0.93039  0.25384  0.23377  1.0000
  C   C954      1.0  0.51077  0.99220  0.31516  1.0000
  H   H1581     1.0  0.93609  0.31233  0.24513  1.0000
  H   H1582     1.0  0.65453  0.01216  0.22558  1.0000
  N   N70       1.0  0.48144  0.24858  0.29228  1.0000
  S   S268      1.0  0.88058  0.45869  0.29733  1.0000
  H   H1583     1.0  0.54761  0.99694  0.35016  1.0000
  C   C955      1.0  0.48824  0.20208  0.30060  1.0000
  H   H1584     1.0  0.54266  0.38408  0.29264  1.0000
  H   H1585     1.0  0.87688  0.40133  0.30546  1.0000
  S   S269      1.0  0.48014  0.34479  0.28785  1.0000
  H   H1586     1.0  0.57351  0.43927  0.28955  1.0000
  N   N71       1.0  0.79701  0.06019  0.21455  1.0000
  H   H1587     1.0  0.74733  0.03251  0.22913  1.0000
  H   H1588     1.0  0.48287  0.42753  0.32709  1.0000
  C   C956      1.0  0.51453  0.26429  0.28943  1.0000
  H   H1589     1.0  0.47573  0.20695  0.28273  1.0000
  C   C957      1.0  0.92900  0.42685  0.33261  1.0000
  H   H1590     1.0  0.59759  0.99937  0.31434  1.0000
  H   H1591     1.0  0.92925  0.41083  0.32545  1.0000
  C   C958      1.0  0.81217  0.03851  0.21608  1.0000
  S   S270      1.0  0.68007  0.97934  0.26398  1.0000
  H   H1592     1.0  0.77565  0.00158  0.22546  1.0000
  H   H1593     1.0  0.91468  0.45941  0.27612  1.0000
  H   H1594     1.0  0.61272  0.07034  0.33399  1.0000
  H   H1595     1.0  0.46591  0.45634  0.37967  1.0000
  C   C959      1.0  0.95099  0.33693  0.24668  1.0000
  H   H1596     1.0  0.91613  0.25763  0.25161  1.0000
  H   H1597     1.0  0.52358  0.45768  0.31412  1.0000
  H   H1598     1.0  0.61550  0.06411  0.31844  1.0000
  H   H1599     1.0  0.48138  0.28398  0.30443  1.0000
  H   H1600     1.0  0.51282  0.21084  0.29896  1.0000
  H   H1601     1.0  0.62010  0.03883  0.32890  1.0000
  H   H1602     1.0  0.92737  0.41486  0.34107  1.0000
  H   H1603     1.0  0.52889  0.26253  0.29691  1.0000
  H   H1604     1.0  0.94611  0.38025  0.24443  1.0000
  C   C960      1.0  0.62022  0.97938  0.45712  1.0000
  C   C961      1.0  0.52616  0.29857  0.28676  1.0000
  H   H1605     1.0  0.52005  0.47129  0.34869  1.0000
  H   H1606     1.0  0.80590  0.99251  0.22053  1.0000
  H   H1607     1.0  0.84860  0.32595  0.25403  1.0000
  C   C962      1.0  0.68297  0.98792  0.22321  1.0000
  H   H1608     1.0  0.81262  0.08069  0.23197  1.0000
  H   H1609     1.0  0.91594  0.46603  0.31776  1.0000
  H   H1610     1.0  0.86304  0.08816  0.21249  1.0000
  C   C963      1.0  0.47720  0.25940  0.30448  1.0000
  H   H1611     1.0  0.48598  0.97978  0.31623  1.0000
  S   S271      1.0  0.96157  0.31083  0.28855  1.0000
  H   H1612     1.0  0.72266  0.06060  0.45139  1.0000
  H   H1613     1.0  0.66954  0.99958  0.36107  1.0000
  H   H1614     1.0  0.65442  0.00987  0.24758  1.0000
  H   H1615     1.0  0.95630  0.31325  0.22655  1.0000
  H   H1616     1.0  0.93199  0.42122  0.26777  1.0000
  C   C964      1.0  0.60707  0.05244  0.32689  1.0000
  H   H1617     1.0  0.74380  0.07230  0.21320  1.0000
  H   H1618     1.0  0.90834  0.43125  0.33175  1.0000
  H   H1619     1.0  0.47883  0.17682  0.29944  1.0000
  H   H1620     1.0  0.56478  0.04194  0.31788  1.0000
  H   H1621     1.0  0.61012  0.99380  0.45350  1.0000
  H   H1622     1.0  0.91222  0.34840  0.24776  1.0000
  H   H1623     1.0  0.46479  0.39194  0.27721  1.0000
  C   C965      1.0  0.57360  0.98811  0.33573  1.0000
  H   H1624     1.0  0.50871  0.46402  0.36911  1.0000
  H   H1625     1.0  0.49832  0.45474  0.30210  1.0000
  C   C966      1.0  0.65266  0.98293  0.34334  1.0000
  H   H1626     1.0  0.48409  0.47309  0.34970  1.0000
  C   C967      1.0  0.70565  0.04391  0.45710  1.0000
  H   H1627     1.0  0.95314  0.33975  0.25645  1.0000
  C   C968      1.0  0.57122  0.00118  0.34805  1.0000
  H   H1628     1.0  0.57938  0.98972  0.35487  1.0000
  C   C969      1.0  0.65273  0.98119  0.35583  1.0000
  H   H1629     1.0  0.59768  0.99231  0.33458  1.0000
  H   H1630     1.0  0.46563  0.28061  0.28440  1.0000
  H   H1631     1.0  0.95760  0.46846  0.34152  1.0000
  H   H1632     1.0  0.96083  0.25328  0.35772  1.0000
  H   H1633     1.0  0.77070  0.09150  0.46726  1.0000
  S   S272      1.0  0.88210  0.27231  0.53037  1.0000
  Fe  Fe135     1.0  0.92321  0.29385  0.49962  1.0000
  S   S273      1.0  0.87256  0.27662  0.50120  1.0000
  Fe  Fe136     1.0  0.88265  0.30762  0.51738  1.0000
  S   S274      1.0  0.85909  0.33952  0.51912  1.0000
  Fe  Fe137     1.0  0.87525  0.24213  0.51396  1.0000
  S   S275      1.0  0.84444  0.19046  0.51338  1.0000
  S   S276      1.0  0.92584  0.25734  0.51132  1.0000
  Fe  Fe138     1.0  0.64991  0.01091  0.53126  1.0000
  S   S277      1.0  0.63428  0.04843  0.52831  1.0000
  Fe  Fe139     1.0  0.65048  0.99935  0.50384  1.0000
  S   S278      1.0  0.63493  0.03601  0.49973  1.0000
  Fe  Fe140     1.0  0.66899  0.06398  0.51392  1.0000
  S   S279      1.0  0.70005  0.11448  0.51144  1.0000
  Fe  Fe141     1.0  0.60237  0.01678  0.51448  1.0000
  H   H1634     1.0  0.48778  0.43464  0.60011  1.0000
  S   S280      1.0  0.68621  0.02816  0.51741  1.0000
  H   H1635     1.0  0.93822  0.33944  0.60758  1.0000
  S   S281      1.0  0.93254  0.32662  0.51517  1.0000
  C   C970      1.0  0.80419  0.16989  0.51293  1.0000
  C   C971      1.0  0.78446  0.18445  0.51240  1.0000
  C   C972      1.0  0.75280  0.16714  0.51195  1.0000
  C   C973      1.0  0.74028  0.13504  0.51213  1.0000
  C   C974      1.0  0.75996  0.12040  0.51269  1.0000
  C   C975      1.0  0.79164  0.13771  0.51306  1.0000
  H   H1636     1.0  0.79361  0.20911  0.51228  1.0000
  H   H1637     1.0  0.73791  0.17881  0.51148  1.0000
  H   H1638     1.0  0.75083  0.09579  0.51280  1.0000
  H   H1639     1.0  0.80663  0.12616  0.51345  1.0000
  C   C976      1.0  0.49401  0.05378  0.51150  1.0000
  S   S282      1.0  0.60829  0.46964  0.50686  1.0000
  C   C977      1.0  0.49875  0.00555  0.50965  1.0000
  C   C978      1.0  0.53009  0.02033  0.51179  1.0000
  C   C979      1.0  0.54346  0.05196  0.51370  1.0000
  C   C980      1.0  0.52542  0.06863  0.51355  1.0000
  H   H1640     1.0  0.77427  0.05847  0.48134  1.0000
  H   H1641     1.0  0.80996  0.07544  0.69808  1.0000
  H   H1642     1.0  0.56762  0.06353  0.51535  1.0000
  H   H1643     1.0  0.53584  0.09309  0.51509  1.0000
  C   C981      1.0  0.92210  0.44093  0.52268  1.0000
  C   C982      1.0  0.93160  0.41884  0.52677  1.0000
  C   C983      1.0  0.91190  0.38778  0.52624  1.0000
  C   C984      1.0  0.88261  0.37856  0.52150  1.0000
  C   C985      1.0  0.87250  0.40077  0.51803  1.0000
  C   C986      1.0  0.89227  0.43194  0.51855  1.0000
  H   H1644     1.0  0.71427  0.06509  0.68244  1.0000
  H   H1645     1.0  0.91959  0.37094  0.52929  1.0000
  H   H1646     1.0  0.84969  0.39377  0.51452  1.0000
  H   H1647     1.0  0.88471  0.44887  0.51545  1.0000
  C   C987      1.0  0.50445  0.42295  0.50697  1.0000
  C   C988      1.0  0.52154  0.40561  0.50749  1.0000
  C   C989      1.0  0.55339  0.42018  0.50739  1.0000
  C   C990      1.0  0.56830  0.45213  0.50694  1.0000
  H   H1648     1.0  0.89463  0.43863  0.47967  1.0000
  C   C991      1.0  0.51936  0.45482  0.50630  1.0000
  H   H1649     1.0  0.51028  0.38102  0.50795  1.0000
  H   H1650     1.0  0.56654  0.40666  0.50778  1.0000
  H   H1651     1.0  0.51499  0.41900  0.53464  1.0000
  H   H1652     1.0  0.69699  0.09484  0.47181  1.0000
  H   H1653     1.0  0.53845  0.97536  0.48277  1.0000
  C   C992      1.0  0.48076  0.02219  0.50950  1.0000
  C   C993      1.0  0.55111  0.46936  0.50639  1.0000
  C   C994      1.0  0.64164  0.97996  0.56199  1.0000
  C   C995      1.0  0.93520  0.43868  0.48885  1.0000
  C   C996      1.0  0.76461  0.12168  0.48039  1.0000
  S   S283      1.0  0.55128  0.99807  0.51220  1.0000
  H   H1654     1.0  0.71966  0.02125  0.49672  1.0000
  C   C997      1.0  0.81304  0.11599  0.70717  1.0000
  H   H1655     1.0  0.77243  0.07575  0.68600  1.0000
  H   H1656     1.0  0.72771  0.03631  0.68051  1.0000
  H   H1657     1.0  0.78848  0.17365  0.54296  1.0000
  C   C998      1.0  0.74012  0.02497  0.49162  1.0000
  H   H1658     1.0  0.47623  0.38518  0.59331  1.0000
  C   C999      1.0  0.46781  0.42651  0.59390  1.0000
  H   H1659     1.0  0.94126  0.37724  0.47428  1.0000
  H   H1660     1.0  0.79512  0.02397  0.69890  1.0000
  H   H1661     1.0  0.47096  0.44961  0.46754  1.0000
  C   C1000     1.0  0.94573  0.35287  0.59943  1.0000
  C   C1001     1.0  0.56194  0.97739  0.48200  1.0000
  H   H1662     1.0  0.73488  0.00616  0.48494  1.0000
  C   C1002     1.0  0.46412  0.38748  0.47594  1.0000
  C   C1003     1.0  0.53214  0.46708  0.53947  1.0000
  H   H1663     1.0  0.76165  0.16429  0.55447  1.0000
  H   H1664     1.0  0.96153  0.39644  0.60822  1.0000
  H   H1665     1.0  0.92668  0.35106  0.65772  1.0000
  C   C1004     1.0  0.94820  0.39769  0.49683  1.0000
  H   H1666     1.0  0.95693  0.36572  0.64769  1.0000
  H   H1667     1.0  0.93769  0.33396  0.67701  1.0000
  H   H1668     1.0  0.75969  0.99244  0.69658  1.0000
  H   H1669     1.0  0.56866  0.97855  0.47263  1.0000
  H   H1670     1.0  0.73871  0.03160  0.46540  1.0000
  H   H1671     1.0  0.66534  0.06036  0.47553  1.0000
  H   H1672     1.0  0.88875  0.39125  0.49564  1.0000
  H   H1673     1.0  0.77610  0.14239  0.47510  1.0000
  H   H1674     1.0  0.58280  0.99711  0.61037  1.0000
  C   C1005     1.0  0.95232  0.29154  0.56273  1.0000
  H   H1675     1.0  0.92760  0.44900  0.47038  1.0000
  H   H1676     1.0  0.55467  0.43833  0.53311  1.0000
  H   H1677     1.0  0.70749  0.07211  0.70804  1.0000
  H   H1678     1.0  0.89641  0.34265  0.47925  1.0000
  C   C1006     1.0  0.77103  0.01771  0.69641  1.0000
  C   C1007     1.0  0.70731  0.06547  0.48489  1.0000
  H   H1679     1.0  0.74683  0.12526  0.48545  1.0000
  C   C1008     1.0  0.94958  0.35209  0.65584  1.0000
  H   H1680     1.0  0.95253  0.33896  0.59317  1.0000
  S   S284      1.0  0.47194  0.07522  0.51174  1.0000
  H   H1681     1.0  0.54647  0.99683  0.60761  1.0000
  H   H1682     1.0  0.94354  0.38979  0.67199  1.0000
  C   C1009     1.0  0.55905  0.98210  0.60775  1.0000
  H   H1683     1.0  0.46903  0.44516  0.62162  1.0000
  C   C1010     1.0  0.89859  0.38577  0.48754  1.0000
  H   H1684     1.0  0.68058  0.09246  0.48571  1.0000
  H   H1685     1.0  0.75708  0.02329  0.49796  1.0000
  H   H1686     1.0  0.80435  0.12678  0.70032  1.0000
  C   C1011     1.0  0.95642  0.29155  0.57516  1.0000
  C   C1012     1.0  0.89022  0.35111  0.48756  1.0000
  H   H1687     1.0  0.46425  0.40714  0.61682  1.0000
  H   H1688     1.0  0.90039  0.34451  0.49527  1.0000
  H   H1689     1.0  0.47739  0.43746  0.58545  1.0000
  H   H1690     1.0  0.92991  0.28040  0.55873  1.0000
  H   H1691     1.0  0.48830  0.98109  0.50813  1.0000
  H   H1692     1.0  0.95201  0.41661  0.58955  1.0000
  H   H1693     1.0  0.59369  0.46204  0.54657  1.0000
  C   C1013     1.0  0.68665  0.07888  0.47898  1.0000
  S   S285      1.0  0.66117  0.00665  0.55088  1.0000
  N   N72       1.0  0.93193  0.40627  0.48698  1.0000
  H   H1694     1.0  0.50626  0.46838  0.50589  1.0000
  H   H1695     1.0  0.56441  0.46696  0.55965  1.0000
  H   H1696     1.0  0.71615  0.07841  0.49340  1.0000
  H   H1697     1.0  0.58033  0.46491  0.46755  1.0000
  C   C1014     1.0  0.72455  0.05170  0.68731  1.0000
  H   H1698     1.0  0.75662  0.03919  0.53839  1.0000
  H   H1699     1.0  0.76923  0.02459  0.68722  1.0000
  C   C1015     1.0  0.75142  0.09342  0.47193  1.0000
  H   H1700     1.0  0.83795  0.12464  0.70621  1.0000
  N   N73       1.0  0.74071  0.09871  0.55053  1.0000
  C   C1016     1.0  0.74763  0.07075  0.55017  1.0000
  C   C1017     1.0  0.73562  0.10457  0.56332  1.0000
  C   C1018     1.0  0.76822  0.12520  0.54627  1.0000
  C   C1019     1.0  0.71342  0.09274  0.54258  1.0000
  C   C1020     1.0  0.75780  0.06276  0.53816  1.0000
  C   C1021     1.0  0.70970  0.07821  0.56928  1.0000
  C   C1022     1.0  0.76627  0.15631  0.54576  1.0000
  C   C1023     1.0  0.69479  0.11167  0.54518  1.0000
  H   H1701     1.0  0.76560  0.07298  0.55687  1.0000
  H   H1702     1.0  0.72742  0.05004  0.55256  1.0000
  H   H1703     1.0  0.73113  0.12521  0.56454  1.0000
  H   H1704     1.0  0.75659  0.10960  0.56876  1.0000
  H   H1705     1.0  0.78851  0.12832  0.55185  1.0000
  H   H1706     1.0  0.77361  0.12079  0.53710  1.0000
  H   H1707     1.0  0.72014  0.09602  0.53316  1.0000
  H   H1708     1.0  0.69712  0.06842  0.54305  1.0000
  H   H1709     1.0  0.74306  0.06337  0.53069  1.0000
  H   H1710     1.0  0.78167  0.07810  0.53643  1.0000
  H   H1711     1.0  0.47165  0.06595  0.54969  1.0000
  H   H1712     1.0  0.68849  0.06930  0.56385  1.0000
  H   H1713     1.0  0.71617  0.05911  0.57124  1.0000
  H   H1714     1.0  0.70478  0.08650  0.57791  1.0000
  H   H1715     1.0  0.51437  0.97909  0.58781  1.0000
  H   H1716     1.0  0.74953  0.15606  0.53891  1.0000
  H   H1717     1.0  0.53827  0.42837  0.54772  1.0000
  H   H1718     1.0  0.68656  0.11696  0.53664  1.0000
  H   H1719     1.0  0.70708  0.13378  0.54987  1.0000
  H   H1720     1.0  0.67400  0.09790  0.55001  1.0000
  H   H1721     1.0  0.48391  0.98702  0.54705  1.0000
  C   C1024     1.0  0.75607  0.03149  0.70540  1.0000
  H   H1722     1.0  0.63054  0.00307  0.47422  1.0000
  H   H1723     1.0  0.88575  0.38940  0.47993  1.0000
  H   H1724     1.0  0.53897  0.43700  0.48092  1.0000
  H   H1725     1.0  0.51037  0.04395  0.55285  1.0000
  C   C1025     1.0  0.79895  0.08086  0.70584  1.0000
  C   C1026     1.0  0.91963  0.45050  0.47942  1.0000
  H   H1726     1.0  0.75519  0.09696  0.69360  1.0000
  N   N74       1.0  0.76485  0.06533  0.70453  1.0000
  H   H1727     1.0  0.47536  0.99783  0.53297  1.0000
  C   C1027     1.0  0.75543  0.07392  0.69282  1.0000
  H   H1728     1.0  0.46837  0.03268  0.56260  1.0000
  H   H1729     1.0  0.51020  0.46258  0.54377  1.0000
  H   H1730     1.0  0.50105  0.19813  0.48888  1.0000
  C   C1028     1.0  0.75347  0.05668  0.48598  1.0000
  H   H1731     1.0  0.69200  0.04236  0.48779  1.0000
  H   H1732     1.0  0.70749  0.03793  0.69365  1.0000
  H   H1733     1.0  0.52378  0.46482  0.47970  1.0000
  H   H1734     1.0  0.76146  0.07358  0.49351  1.0000
  H   H1735     1.0  0.73135  0.01802  0.70452  1.0000
  H   H1736     1.0  0.47863  0.40903  0.48068  1.0000
  C   C1029     1.0  0.53577  0.43675  0.53888  1.0000
  H   H1737     1.0  0.56656  0.98738  0.58937  1.0000
  H   H1738     1.0  0.86532  0.33881  0.48836  1.0000
  H   H1739     1.0  0.93369  0.39040  0.50469  1.0000
  C   C1030     1.0  0.72034  0.03812  0.46845  1.0000
  N   N75       1.0  0.73254  0.06371  0.47768  1.0000
  H   H1740     1.0  0.50173  0.05209  0.53786  1.0000
  Fe  Fe142     1.0  0.93211  0.28949  0.52705  1.0000
  H   H1741     1.0  0.52505  0.03229  0.54025  1.0000
  H   H1742     1.0  0.66702  0.01018  0.57639  1.0000
  C   C1031     1.0  0.50486  0.03509  0.54360  1.0000
  C   C1032     1.0  0.63178  0.98469  0.46890  1.0000
  H   H1743     1.0  0.92612  0.44128  0.49761  1.0000
  H   H1744     1.0  0.92587  0.35584  0.59566  1.0000
  C   C1033     1.0  0.64976  0.98786  0.57404  1.0000
  H   H1745     1.0  0.70306  0.01721  0.47233  1.0000
  H   H1746     1.0  0.93271  0.30260  0.65906  1.0000
  H   H1747     1.0  0.92762  0.40172  0.46770  1.0000
  H   H1748     1.0  0.52912  0.47201  0.53010  1.0000
  H   H1749     1.0  0.73877  0.09915  0.46484  1.0000
  H   H1750     1.0  0.93119  0.31214  0.64394  1.0000
  C   C1034     1.0  0.47748  0.00404  0.54257  1.0000
  H   H1751     1.0  0.52552  0.44263  0.46678  1.0000
  C   C1035     1.0  0.94279  0.40095  0.47506  1.0000
  H   H1752     1.0  0.78202  0.12056  0.48661  1.0000
  H   H1753     1.0  0.95261  0.37751  0.49415  1.0000
  H   H1754     1.0  0.47910  0.37750  0.47209  1.0000
  C   C1036     1.0  0.53745  0.45468  0.47505  1.0000
  H   H1755     1.0  0.95025  0.38619  0.58038  1.0000
  C   C1037     1.0  0.94505  0.31928  0.65227  1.0000
  H   H1756     1.0  0.93696  0.28037  0.58060  1.0000
  S   S286      1.0  0.66310  0.97799  0.70623  1.0000
  S   S287      1.0  0.95008  0.32081  0.48380  1.0000
  H   H1757     1.0  0.95917  0.45531  0.48935  1.0000
  H   H1758     1.0  0.57655  0.99982  0.48620  1.0000
  H   H1759     1.0  0.95455  0.42571  0.53011  1.0000
  H   H1760     1.0  0.95342  0.26672  0.47216  1.0000
  C   C1038     1.0  0.96276  0.34483  0.67617  1.0000
  H   H1761     1.0  0.96203  0.41296  0.65216  1.0000
  S   S288      1.0  0.61634  0.97841  0.51805  1.0000
  C   C1039     1.0  0.47913  0.13152  0.47927  1.0000
  S   S289      1.0  0.46452  0.40636  0.50695  1.0000
  H   H1762     1.0  0.47833  0.13694  0.51678  1.0000
  H   H1763     1.0  0.49258  0.18671  0.50875  1.0000
  H   H1764     1.0  0.49477  0.14303  0.49711  1.0000
  C   C1040     1.0  0.46806  0.17159  0.50750  1.0000
  C   C1041     1.0  0.46566  0.21452  0.48886  1.0000
  H   H1765     1.0  0.47329  0.18233  0.47757  1.0000
  H   H1766     1.0  0.47841  0.23321  0.48281  1.0000
  H   H1767     1.0  0.49892  0.15119  0.47597  1.0000
  C   C1042     1.0  0.47278  0.13706  0.49226  1.0000
  C   C1043     1.0  0.47612  0.18839  0.48716  1.0000
  H   H1768     1.0  0.47029  0.22459  0.49798  1.0000
  H   H1769     1.0  0.48504  0.11149  0.47886  1.0000
  H   H1770     1.0  0.57356  0.98609  0.81790  1.0000
  C   C1044     1.0  0.90624  0.22581  0.92886  1.0000
  S   S290      1.0  0.80412  0.02189  0.73156  1.0000
  H   H1771     1.0  0.85730  0.17069  0.92735  1.0000
  S   S291      1.0  0.71639  0.00611  0.73598  1.0000
  C   C1045     1.0  0.94990  0.32059  0.82557  1.0000
  Fe  Fe143     1.0  0.93618  0.19847  0.73782  1.0000
  C   C1046     1.0  0.81730  0.05376  0.95360  1.0000
  S   S292      1.0  0.88553  0.16601  0.73872  1.0000
  C   C1047     1.0  0.82264  0.10489  0.94877  1.0000
  H   H1772     1.0  0.83288  0.21874  0.92150  1.0000
  C   C1048     1.0  0.71704  0.06316  0.71526  1.0000
  C   C1049     1.0  0.83627  0.20138  0.92691  1.0000
  S   S293      1.0  0.71044  0.00621  0.95082  1.0000
  C   C1050     1.0  0.90337  0.19154  0.91202  1.0000
  C   C1051     1.0  0.85333  0.11743  0.95241  1.0000
  S   S294      1.0  0.94869  0.24964  0.73833  1.0000
  C   C1052     1.0  0.90272  0.16364  0.91877  1.0000
  C   C1053     1.0  0.86589  0.09796  0.95668  1.0000
  H   H1773     1.0  0.87231  0.21877  0.90092  1.0000
  C   C1054     1.0  0.95846  0.33731  0.81376  1.0000
  H   H1774     1.0  0.93253  0.26744  0.91152  1.0000
  H   H1775     1.0  0.91970  0.15611  0.91504  1.0000
  H   H1776     1.0  0.93087  0.23374  0.92724  1.0000
  C   C1055     1.0  0.85653  0.18779  0.92099  1.0000
  Fe  Fe144     1.0  0.74479  0.98614  0.95262  1.0000
  H   H1777     1.0  0.89316  0.18287  0.90304  1.0000
  H   H1778     1.0  0.92760  0.24318  0.89847  1.0000
  H   H1779     1.0  0.91285  0.27152  0.89865  1.0000
  H   H1780     1.0  0.81351  0.18274  0.92807  1.0000
  C   C1056     1.0  0.82675  0.06170  0.73444  1.0000
  C   C1057     1.0  0.81467  0.08161  0.73890  1.0000
  C   C1058     1.0  0.83303  0.11325  0.74020  1.0000
  C   C1059     1.0  0.86384  0.12557  0.73723  1.0000
  C   C1060     1.0  0.87599  0.10560  0.73290  1.0000
  C   C1061     1.0  0.85754  0.07401  0.73147  1.0000
  H   H1781     1.0  0.79119  0.07267  0.74134  1.0000
  C   C1062     1.0  0.80468  0.07325  0.94937  1.0000
  H   H1782     1.0  0.89954  0.11454  0.73054  1.0000
  H   H1783     1.0  0.86723  0.05898  0.72799  1.0000
  H   H1784     1.0  0.76014  0.07073  0.72336  1.0000
  C   C1063     1.0  0.88610  0.23165  0.90880  1.0000
  H   H1785     1.0  0.84413  0.17453  0.91292  1.0000
  H   H1786     1.0  0.92766  0.20615  0.91053  1.0000
  H   H1787     1.0  0.84492  0.21055  0.93595  1.0000
  C   C1064     1.0  0.90210  0.25424  0.93368  1.0000
  H   H1788     1.0  0.75919  0.10115  0.71487  1.0000
  N   N76       1.0  0.88803  0.20981  0.91788  1.0000
  H   H1789     1.0  0.93680  0.33264  0.80887  1.0000
  H   H1790     1.0  0.88033  0.14403  0.91771  1.0000
  H   H1791     1.0  0.90109  0.25347  0.94349  1.0000
  H   H1792     1.0  0.82332  0.12834  0.74361  1.0000
  Fe  Fe145     1.0  0.92470  0.18579  0.95647  1.0000
  Fe  Fe146     1.0  0.75375  0.99026  0.73388  1.0000
  H   H1793     1.0  0.92222  0.27543  0.93176  1.0000
  H   H1794     1.0  0.76197  0.02620  0.71440  1.0000
  H   H1795     1.0  0.88154  0.25662  0.93058  1.0000
  H   H1796     1.0  0.93810  0.37637  0.82068  1.0000
  S   S295      1.0  0.87479  0.15748  0.95151  1.0000
  H   H1797     1.0  0.87402  0.24529  0.91208  1.0000
  H   H1798     1.0  0.90161  0.20957  0.93622  1.0000
  H   H1799     1.0  0.81268  0.11971  0.94543  1.0000
  C   C1065     1.0  0.91669  0.25455  0.90422  1.0000
  H   H1800     1.0  0.78118  0.06393  0.94647  1.0000
  H   H1801     1.0  0.90815  0.16875  0.92833  1.0000
  H   H1802     1.0  0.66369  0.98963  0.79014  1.0000
  S   S296      1.0  0.79590  0.01373  0.95459  1.0000
  H   H1803     1.0  0.71070  0.07087  0.72373  1.0000
  H   H1804     1.0  0.85800  0.05145  0.96046  1.0000
  H   H1805     1.0  0.93734  0.29574  0.82364  1.0000
  H   H1806     1.0  0.96231  0.42751  0.82994  1.0000
  H   H1807     1.0  0.80960  0.12358  0.71617  1.0000
  C   C1066     1.0  0.96280  0.38551  0.82285  1.0000
  H   H1808     1.0  0.80696  0.07214  0.71362  1.0000
  C   C1067     1.0  0.84797  0.06634  0.95724  1.0000
  C   C1068     1.0  0.75175  0.07600  0.71481  1.0000
  H   H1809     1.0  0.70619  0.03796  0.71513  1.0000
  H   H1810     1.0  0.93489  0.32799  0.83086  1.0000
  H   H1811     1.0  0.88945  0.10721  0.95947  1.0000
  H   H1812     1.0  0.69524  0.98160  0.88459  1.0000
  H   H1813     1.0  0.69760  0.98076  0.90665  1.0000
  H   H1814     1.0  0.95606  0.37796  0.79883  1.0000
  S   S297      1.0  0.96149  0.19888  0.94295  1.0000
  S   S298      1.0  0.67754  0.97621  0.76659  1.0000
  H   H1815     1.0  0.85553  0.62199  0.14569  1.0000
  H   H1816     1.0  0.51567  0.94994  0.07439  1.0000
  Fe  Fe147     1.0  0.95919  0.71488  0.18152  1.0000
  Fe  Fe148     1.0  0.69117  0.66488  0.96908  1.0000
  S   S299      1.0  0.67082  0.62834  0.98317  1.0000
  C   C1069     1.0  0.64734  0.50464  0.10414  1.0000
  H   H1817     1.0  0.95399  0.58171  0.11714  1.0000
  S   S300      1.0  0.92712  0.73821  0.18120  1.0000
  Fe  Fe149     1.0  0.92887  0.60212  0.05883  1.0000
  S   S301      1.0  0.89245  0.55447  0.05834  1.0000
  Fe  Fe150     1.0  0.94317  0.59897  0.08568  1.0000
  S   S302      1.0  0.90870  0.55044  0.08682  1.0000
  Fe  Fe151     1.0  0.92511  0.54196  0.06908  1.0000
  H   H1818     1.0  0.74729  0.66951  0.01052  1.0000
  Fe  Fe152     1.0  0.87873  0.56613  0.07599  1.0000
  S   S303      1.0  0.83210  0.55361  0.08318  1.0000
  S   S304      1.0  0.91207  0.61489  0.07574  1.0000
  H   H1819     1.0  0.71089  0.62202  0.01261  1.0000
  C   C1070     1.0  0.53356  0.95328  0.10535  1.0000
  H   H1820     1.0  0.93946  0.51474  0.03046  1.0000
  C   C1071     1.0  0.79214  0.64379  0.19526  1.0000
  H   H1821     1.0  0.50710  0.90405  0.10398  1.0000
  H   H1822     1.0  0.79259  0.62041  0.01162  1.0000
  H   H1823     1.0  0.65542  0.50961  0.11351  1.0000
  H   H1824     1.0  0.78403  0.66024  0.19149  1.0000
  Fe  Fe153     1.0  0.70489  0.91781  0.17775  1.0000
  S   S305      1.0  0.68229  0.86539  0.17717  1.0000
  C   C1072     1.0  0.69524  0.70795  0.12108  1.0000
  Fe  Fe154     1.0  0.68753  0.65646  0.16207  1.0000
  S   S306      1.0  0.73227  0.69605  0.15993  1.0000
  S   S307      1.0  0.65380  0.63753  0.14636  1.0000
  Fe  Fe155     1.0  0.70017  0.65187  0.18907  1.0000
  H   H1825     1.0  0.92075  0.69785  0.00213  1.0000
  Fe  Fe156     1.0  0.72247  0.71443  0.17715  1.0000
  S   S308      1.0  0.73939  0.76650  0.17884  1.0000
  Fe  Fe157     1.0  0.75169  0.67033  0.17119  1.0000
  S   S309      1.0  0.79042  0.65844  0.16567  1.0000
  S   S310      1.0  0.67610  0.67606  0.17883  1.0000
  S   S311      1.0  0.70750  0.62950  0.17234  1.0000
  Fe  Fe158     1.0  0.64217  0.57690  0.05138  1.0000
  S   S312      1.0  0.63765  0.52976  0.04619  1.0000
  S   S313      1.0  0.64158  0.61353  0.03864  1.0000
  Fe  Fe159     1.0  0.65880  0.57065  0.07760  1.0000
  S   S314      1.0  0.65607  0.52348  0.07370  1.0000
  S   S315      1.0  0.68028  0.59176  0.09576  1.0000
  Fe  Fe160     1.0  0.68049  0.54195  0.05705  1.0000
  S   S316      1.0  0.71967  0.53371  0.04941  1.0000
  Fe  Fe161     1.0  0.61293  0.51460  0.06335  1.0000
  S   S317      1.0  0.94359  0.66538  0.18564  1.0000
  S   S318      1.0  0.68628  0.58962  0.06142  1.0000
  S   S319      1.0  0.61442  0.56135  0.06805  1.0000
  C   C1073     1.0  0.67218  0.60475  0.10965  1.0000
  C   C1074     1.0  0.64439  0.60596  0.11196  1.0000
  C   C1075     1.0  0.63913  0.61600  0.12322  1.0000
  C   C1076     1.0  0.66156  0.62510  0.13230  1.0000
  C   C1077     1.0  0.68944  0.62423  0.12994  1.0000
  C   C1078     1.0  0.69463  0.61408  0.11871  1.0000
  H   H1826     1.0  0.62706  0.59935  0.10505  1.0000
  H   H1827     1.0  0.61755  0.61679  0.12490  1.0000
  H   H1828     1.0  0.70697  0.63118  0.13680  1.0000
  H   H1829     1.0  0.71626  0.61337  0.11705  1.0000
  H   H1830     1.0  0.70502  0.92155  0.99015  1.0000
  C   C1079     1.0  0.72277  0.79344  0.17865  1.0000
  C   C1080     1.0  0.69145  0.78466  0.17837  1.0000
  C   C1081     1.0  0.67953  0.80697  0.17790  1.0000
  C   C1082     1.0  0.69869  0.83832  0.17781  1.0000
  C   C1083     1.0  0.72999  0.84709  0.17820  1.0000
  C   C1084     1.0  0.74190  0.82477  0.17860  1.0000
  H   H1831     1.0  0.67645  0.76074  0.17859  1.0000
  H   H1832     1.0  0.65528  0.79990  0.17765  1.0000
  H   H1833     1.0  0.74507  0.87105  0.17814  1.0000
  H   H1834     1.0  0.90410  0.68323  0.97575  1.0000
  N   N77       1.0  0.64345  0.88463  0.99398  1.0000
  H   H1835     1.0  0.65462  0.90122  0.97628  1.0000
  C   C1085     1.0  0.85128  0.61933  0.12643  1.0000
  C   C1086     1.0  0.75669  0.65207  0.00945  1.0000
  C   C1087     1.0  0.86180  0.65324  0.00063  1.0000
  H   H1836     1.0  0.72011  0.71697  0.12018  1.0000
  H   H1837     1.0  0.69670  0.69904  0.13965  1.0000
  C   C1088     1.0  0.80168  0.54964  0.07359  1.0000
  C   C1089     1.0  0.77469  0.54822  0.07845  1.0000
  C   C1090     1.0  0.74960  0.54402  0.07108  1.0000
  C   C1091     1.0  0.75120  0.54053  0.05882  1.0000
  C   C1092     1.0  0.77822  0.54193  0.05395  1.0000
  C   C1093     1.0  0.80355  0.54682  0.06130  1.0000
  H   H1838     1.0  0.82990  0.64893  0.97411  1.0000
  H   H1839     1.0  0.77310  0.55039  0.08794  1.0000
  H   H1840     1.0  0.77952  0.53921  0.04447  1.0000
  H   H1841     1.0  0.82429  0.54795  0.05749  1.0000
  C   C1094     1.0  0.88929  0.71617  0.17661  1.0000
  C   C1095     1.0  0.86789  0.72883  0.17735  1.0000
  C   C1096     1.0  0.83748  0.71152  0.17391  1.0000
  C   C1097     1.0  0.82841  0.68151  0.16965  1.0000
  C   C1098     1.0  0.84987  0.66899  0.16879  1.0000
  C   C1099     1.0  0.88018  0.68619  0.17229  1.0000
  H   H1842     1.0  0.87486  0.75211  0.18059  1.0000
  H   H1843     1.0  0.82114  0.72146  0.17447  1.0000
  H   H1844     1.0  0.84297  0.64578  0.16549  1.0000
  H   H1845     1.0  0.89651  0.67633  0.17155  1.0000
  H   H1846     1.0  0.65337  0.69489  0.15445  1.0000
  C   C1100     1.0  0.87685  0.63528  0.97628  1.0000
  H   H1847     1.0  0.64743  0.85556  0.19910  1.0000
  C   C1101     1.0  0.66233  0.62520  0.99857  1.0000
  C   C1102     1.0  0.66797  0.65056  0.00609  1.0000
  C   C1103     1.0  0.66113  0.64657  0.01826  1.0000
  C   C1104     1.0  0.64909  0.61731  0.02314  1.0000
  C   C1105     1.0  0.64333  0.59200  0.01559  1.0000
  C   C1106     1.0  0.64991  0.59595  0.00343  1.0000
  H   H1848     1.0  0.67738  0.67320  0.00252  1.0000
  H   H1849     1.0  0.66539  0.66633  0.02395  1.0000
  H   H1850     1.0  0.63349  0.56931  0.01911  1.0000
  H   H1851     1.0  0.64522  0.57612  0.99772  1.0000
  H   H1852     1.0  0.66753  0.91861  0.00765  1.0000
  C   C1107     1.0  0.64564  0.89858  0.00624  1.0000
  H   H1853     1.0  0.91621  0.53216  0.03609  1.0000
  H   H1854     1.0  0.69617  0.88294  0.20630  1.0000
  C   C1108     1.0  0.92960  0.60597  0.02169  1.0000
  H   H1855     1.0  0.76085  0.65132  0.99982  1.0000
  H   H1856     1.0  0.58525  0.55476  0.11669  1.0000
  C   C1109     1.0  0.62102  0.90580  0.21096  1.0000
  C   C1110     1.0  0.89486  0.66622  0.98279  1.0000
  H   H1857     1.0  0.73190  0.60364  0.00586  1.0000
  H   H1858     1.0  0.80938  0.64395  0.18886  1.0000
  H   H1859     1.0  0.58677  0.82019  0.98016  1.0000
  C   C1111     1.0  0.63777  0.87296  0.19914  1.0000
  H   H1860     1.0  0.80477  0.59885  0.02138  1.0000
  C   C1112     1.0  0.90216  0.70375  0.99876  1.0000
  H   H1861     1.0  0.83635  0.50020  0.05332  1.0000
  H   H1862     1.0  0.93336  0.54371  0.02214  1.0000
  H   H1863     1.0  0.70435  0.54087  0.02219  1.0000
  C   C1113     1.0  0.67129  0.96067  0.12955  1.0000
  H   H1864     1.0  0.61138  0.84677  0.18390  1.0000
  H   H1865     1.0  0.66165  0.69654  0.13433  1.0000
  H   H1866     1.0  0.63813  0.72159  0.12699  1.0000
  H   H1867     1.0  0.85112  0.70312  0.99218  1.0000
  C   C1114     1.0  0.57079  0.53542  0.09425  1.0000
  H   H1868     1.0  0.83754  0.49882  0.07260  1.0000
  H   H1869     1.0  0.53113  0.92580  0.08182  1.0000
  H   H1870     1.0  0.62755  0.53879  0.11623  1.0000
  S   S320      1.0  0.73002  0.94555  0.19387  1.0000
  H   H1871     1.0  0.61507  0.85205  0.97315  1.0000
  H   H1872     1.0  0.60671  0.50535  0.12429  1.0000
  H   H1873     1.0  0.61783  0.54319  0.09608  1.0000
  H   H1874     1.0  0.65432  0.52635  0.09943  1.0000
  C   C1115     1.0  0.91762  0.73371  0.99202  1.0000
  H   H1875     1.0  0.68543  0.71888  0.11472  1.0000
  H   H1876     1.0  0.72037  0.65765  0.02862  1.0000
  C   C1116     1.0  0.94485  0.63352  0.02803  1.0000
  H   H1877     1.0  0.89004  0.62730  0.00074  1.0000
  C   C1117     1.0  0.84411  0.48083  0.07589  1.0000
  S   S321      1.0  0.92788  0.49927  0.06096  1.0000
  H   H1878     1.0  0.93197  0.48231  0.08560  1.0000
  S   S322      1.0  0.95172  0.62788  0.98724  1.0000
  H   H1879     1.0  0.58156  0.56071  0.09388  1.0000
  H   H1880     1.0  0.55400  0.52958  0.10129  1.0000
  H   H1881     1.0  0.55829  0.52712  0.08566  1.0000
  C   C1118     1.0  0.66952  0.87523  0.99285  1.0000
  C   C1119     1.0  0.61473  0.85588  0.99279  1.0000
  C   C1120     1.0  0.70154  0.90063  0.99500  1.0000
  C   C1121     1.0  0.61050  0.83750  0.98102  1.0000
  H   H1882     1.0  0.66707  0.85657  0.99903  1.0000
  H   H1883     1.0  0.66971  0.86566  0.98382  1.0000
  H   H1884     1.0  0.61359  0.84017  0.00010  1.0000
  H   H1885     1.0  0.64510  0.88198  0.01310  1.0000
  H   H1886     1.0  0.77890  0.66011  0.01408  1.0000
  H   H1887     1.0  0.70660  0.90626  0.00459  1.0000
  H   H1888     1.0  0.71847  0.89237  0.99175  1.0000
  H   H1889     1.0  0.72888  0.54300  0.07490  1.0000
  H   H1890     1.0  0.93673  0.75014  0.99754  1.0000
  H   H1891     1.0  0.86269  0.55776  0.10754  1.0000
  N   N78       1.0  0.87858  0.67717  0.99181  1.0000
  H   H1892     1.0  0.68619  0.68334  0.11847  1.0000
  H   H1893     1.0  0.59566  0.51133  0.08705  1.0000
  S   S323      1.0  0.67249  0.94098  0.17693  1.0000
  H   H1894     1.0  0.84223  0.63397  0.99653  1.0000
  C   C1122     1.0  0.69280  0.55636  0.02093  1.0000
  S   S324      1.0  0.68670  0.61790  0.20439  1.0000
  C   C1123     1.0  0.74247  0.79133  0.14479  1.0000
  H   H1895     1.0  0.73623  0.80777  0.13991  1.0000
  H   H1896     1.0  0.73638  0.79130  0.15421  1.0000
  H   H1897     1.0  0.76753  0.80009  0.14471  1.0000
  H   H1898     1.0  0.68390  0.76487  0.15389  1.0000
  N   N79       1.0  0.59307  0.50233  0.10580  1.0000
  C   C1124     1.0  0.86973  0.62227  0.13801  1.0000
  H   H1899     1.0  0.83107  0.59719  0.12652  1.0000
  H   H1900     1.0  0.66283  0.93047  0.98726  1.0000
  H   H1901     1.0  0.73884  0.74526  0.14368  1.0000
  H   H1902     1.0  0.70017  0.73911  0.15762  1.0000
  H   H1903     1.0  0.60714  0.89783  0.97229  1.0000
  H   H1904     1.0  0.89167  0.62288  0.97526  1.0000
  H   H1905     1.0  0.91581  0.58573  0.02636  1.0000
  H   H1906     1.0  0.55200  0.94508  0.10543  1.0000
  H   H1907     1.0  0.76617  0.83188  0.17885  1.0000
  H   H1908     1.0  0.75982  0.58298  0.03305  1.0000
  H   H1909     1.0  0.54979  0.94846  0.06976  1.0000
  H   H1910     1.0  0.84177  0.63681  0.12716  1.0000
  H   H1911     1.0  0.54542  0.48827  0.11002  1.0000
  H   H1912     1.0  0.59427  0.86038  0.99386  1.0000
  H   H1913     1.0  0.77124  0.65154  0.03271  1.0000
  H   H1914     1.0  0.59854  0.90386  0.98742  1.0000
  C   C1125     1.0  0.95715  0.60192  0.13472  1.0000
  H   H1915     1.0  0.86615  0.62130  0.01316  1.0000
  H   H1916     1.0  0.69455  0.76665  0.12240  1.0000
  C   C1126     1.0  0.79159  0.61305  0.02091  1.0000
  C   C1127     1.0  0.72869  0.75904  0.13893  1.0000
  C   C1128     1.0  0.68406  0.74248  0.15127  1.0000
  H   H1917     1.0  0.63450  0.71681  0.14808  1.0000
  H   H1918     1.0  0.53252  0.96095  0.11466  1.0000
  C   C1129     1.0  0.62158  0.91050  0.00939  1.0000
  H   H1919     1.0  0.81143  0.61985  0.09494  1.0000
  H   H1920     1.0  0.62519  0.82485  0.98083  1.0000
  S   S325      1.0  0.64317  0.96894  0.09598  1.0000
  H   H1921     1.0  0.84004  0.65414  0.10116  1.0000
  C   C1130     1.0  0.72795  0.65052  0.03687  1.0000
  C   C1131     1.0  0.64589  0.90734  0.98454  1.0000
  C   C1132     1.0  0.53645  0.94812  0.07772  1.0000
  H   H1922     1.0  0.80312  0.63281  0.02707  1.0000
  H   H1923     1.0  0.70914  0.57834  0.03801  1.0000
  H   H1924     1.0  0.63397  0.92497  0.20507  1.0000
  C   C1133     1.0  0.68625  0.71090  0.13395  1.0000
  H   H1925     1.0  0.92060  0.58314  0.00446  1.0000
  H   H1926     1.0  0.84848  0.56311  0.12163  1.0000
  C   C1134     1.0  0.65277  0.71769  0.15421  1.0000
  H   H1927     1.0  0.88360  0.56009  0.12120  1.0000
  C   C1135     1.0  0.61644  0.91047  0.98079  1.0000
  C   C1136     1.0  0.73312  0.62037  0.01303  1.0000
  H   H1928     1.0  0.74044  0.67137  0.04243  1.0000
  N   N80       1.0  0.69455  0.74299  0.13868  1.0000
  H   H1929     1.0  0.68730  0.78355  0.13511  1.0000
  C   C1137     1.0  0.58573  0.53670  0.12251  1.0000
  N   N81       1.0  0.86841  0.62277  0.11509  1.0000
  C   C1138     1.0  0.82640  0.62974  0.10288  1.0000
  C   C1139     1.0  0.86917  0.56935  0.11640  1.0000
  H   H1930     1.0  0.87758  0.67102  0.11570  1.0000
  H   H1931     1.0  0.85785  0.61187  0.09637  1.0000
  H   H1932     1.0  0.62530  0.91883  0.01879  1.0000
  H   H1933     1.0  0.73771  0.76169  0.12983  1.0000
  C   C1140     1.0  0.50335  0.92517  0.10284  1.0000
  H   H1934     1.0  0.64399  0.75499  0.11941  1.0000
  C   C1141     1.0  0.88958  0.65596  0.11407  1.0000
  C   C1142     1.0  0.84616  0.61188  0.10479  1.0000
  H   H1935     1.0  0.90777  0.66276  0.12105  1.0000
  H   H1936     1.0  0.74346  0.61487  0.19554  1.0000
  H   H1937     1.0  0.89025  0.64400  0.13870  1.0000
  H   H1938     1.0  0.87624  0.60281  0.13900  1.0000
  C   C1143     1.0  0.85719  0.68852  0.98586  1.0000
  H   H1939     1.0  0.89939  0.65586  0.01263  1.0000
  C   C1144     1.0  0.74861  0.63376  0.03454  1.0000
  C   C1145     1.0  0.68244  0.76082  0.13093  1.0000
  H   H1940     1.0  0.64666  0.72240  0.16325  1.0000
  C   C1146     1.0  0.83912  0.47936  0.08938  1.0000
  C   C1147     1.0  0.60449  0.52040  0.11728  1.0000
  H   H1941     1.0  0.65344  0.89215  0.19387  1.0000
  H   H1942     1.0  0.66909  0.54343  0.02361  1.0000
  C   C1148     1.0  0.88690  0.60412  0.11512  1.0000
  S   S326      1.0  0.74577  0.69144  0.18836  1.0000
  H   H1943     1.0  0.81476  0.67645  0.97616  1.0000
  H   H1944     1.0  0.86845  0.70342  0.97840  1.0000
  H   H1945     1.0  0.62403  0.93054  0.00407  1.0000
  H   H1946     1.0  0.90519  0.61264  0.12204  1.0000
  H   H1947     1.0  0.81143  0.62761  0.11047  1.0000
  H   H1948     1.0  0.48636  0.92424  0.10950  1.0000
  H   H1949     1.0  0.62201  0.93476  0.97888  1.0000
  N   N82       1.0  0.73751  0.60898  0.02499  1.0000
  H   H1950     1.0  0.75166  0.62412  0.04313  1.0000
  H   H1951     1.0  0.86974  0.63883  0.96726  1.0000
  H   H1952     1.0  0.89223  0.70959  0.00678  1.0000
  C   C1149     1.0  0.95807  0.60240  0.12222  1.0000
  H   H1953     1.0  0.83018  0.58761  0.10583  1.0000
  H   H1954     1.0  0.59821  0.89261  0.00863  1.0000
  H   H1955     1.0  0.86318  0.64891  0.20469  1.0000
  C   C1150     1.0  0.75884  0.59336  0.02437  1.0000
  H   H1956     1.0  0.75056  0.57415  0.01773  1.0000
  C   C1151     1.0  0.82691  0.66444  0.98081  1.0000
  H   H1957     1.0  0.80963  0.70874  0.19589  1.0000
  H   H1958     1.0  0.91546  0.66500  0.98680  1.0000
  H   H1959     1.0  0.63580  0.75353  0.13497  1.0000
  H   H1960     1.0  0.49328  0.92344  0.09389  1.0000
  H   H1961     1.0  0.70077  0.96933  0.02010  1.0000
  C   C1152     1.0  0.90580  0.66520  0.10217  1.0000
  H   H1962     1.0  0.89929  0.60675  0.10671  1.0000
  H   H1963     1.0  0.92068  0.68998  0.10264  1.0000
  C   C1153     1.0  0.93226  0.60462  0.00926  1.0000
  H   H1964     1.0  0.70785  0.63624  0.04193  1.0000
  H   H1965     1.0  0.92716  0.73028  0.98357  1.0000
  C   C1154     1.0  0.64815  0.74669  0.12809  1.0000
  H   H1966     1.0  0.65355  0.93204  0.11384  1.0000
  H   H1967     1.0  0.92068  0.65335  0.10033  1.0000
  H   H1968     1.0  0.88982  0.66154  0.09458  1.0000
  S   S327      1.0  0.73971  0.69937  0.96908  1.0000
  C   C1155     1.0  0.70738  0.58555  0.02885  1.0000
  H   H1969     1.0  0.69049  0.59547  0.02937  1.0000
  H   H1970     1.0  0.69188  0.56138  0.01143  1.0000
  H   H1971     1.0  0.59700  0.54863  0.13092  1.0000
  H   H1972     1.0  0.67381  0.94293  0.13461  1.0000
  H   H1973     1.0  0.71429  0.96801  0.10263  1.0000
  H   H1974     1.0  0.85679  0.61956  0.98088  1.0000
  H   H1975     1.0  0.95220  0.58070  0.13916  1.0000
  C   C1156     1.0  0.88079  0.63893  0.00709  1.0000
  H   H1976     1.0  0.76415  0.60325  0.18489  1.0000
  C   C1157     1.0  0.76502  0.61255  0.19405  1.0000
  C   C1158     1.0  0.65983  0.95459  0.11775  1.0000
  C   C1159     1.0  0.94950  0.63091  0.00294  1.0000
  S   S328      1.0  0.94388  0.63645  0.04379  1.0000
  H   H1977     1.0  0.84713  0.68431  0.19892  1.0000
  H   H1978     1.0  0.65379  0.80531  0.96171  1.0000
  H   H1979     1.0  0.56257  0.52077  0.12482  1.0000
  H   H1980     1.0  0.49684  0.96724  0.08850  1.0000
  S   S329      1.0  0.73674  0.94925  0.16456  1.0000
  C   C1160     1.0  0.93712  0.53670  0.03109  1.0000
  S   S330      1.0  0.72430  0.95913  0.96885  1.0000
  H   H1981     1.0  0.81169  0.65135  0.98786  1.0000
  C   C1161     1.0  0.60766  0.85822  0.19199  1.0000
  H   H1982     1.0  0.85169  0.66295  0.00749  1.0000
  H   H1983     1.0  0.83367  0.61763  0.19657  1.0000
  H   H1984     1.0  0.90192  0.74475  0.99025  1.0000
  C   C1162     1.0  0.59561  0.52313  0.09563  1.0000
  C   C1163     1.0  0.83229  0.68504  0.20628  1.0000
  H   H1985     1.0  0.58963  0.84071  0.19705  1.0000
  H   H1986     1.0  0.84641  0.50287  0.09316  1.0000
  H   H1987     1.0  0.65919  0.49154  0.10003  1.0000
  H   H1988     1.0  0.83924  0.48020  0.04034  1.0000
  H   H1989     1.0  0.86901  0.49012  0.07459  1.0000
  H   H1990     1.0  0.52383  0.47856  0.06277  1.0000
  H   H1991     1.0  0.57607  0.97029  0.08840  1.0000
  S   S331      1.0  0.96263  0.58946  0.06869  1.0000
  Fe  Fe162     1.0  0.70574  0.97382  0.16461  1.0000
  H   H1992     1.0  0.59795  0.89465  0.20689  1.0000
  C   C1164     1.0  0.82441  0.71252  0.20385  1.0000
  H   H1993     1.0  0.76665  0.59508  0.19987  1.0000
  C   C1165     1.0  0.84229  0.62772  0.20550  1.0000
  C   C1166     1.0  0.82860  0.47718  0.04915  1.0000
  H   H1994     1.0  0.84563  0.73283  0.20217  1.0000
  H   H1995     1.0  0.60003  0.87572  0.18886  1.0000
  N   N83       1.0  0.80582  0.65443  0.20746  1.0000
  C   C1167     1.0  0.61283  0.48548  0.10325  1.0000
  H   H1996     1.0  0.79189  0.48235  0.06543  1.0000
  Fe  Fe163     1.0  0.70020  0.97069  0.19224  1.0000
  C   C1168     1.0  0.56134  0.47841  0.10725  1.0000
  H   H1997     1.0  0.67901  0.76953  0.96262  1.0000
  H   H1998     1.0  0.95788  0.58132  0.03934  1.0000
  H   H1999     1.0  0.72624  0.95749  0.08902  1.0000
  C   C1169     1.0  0.55590  0.97480  0.08612  1.0000
  C   C1170     1.0  0.96177  0.65984  0.02170  1.0000
  H   H2000     1.0  0.76928  0.66847  0.21076  1.0000
  H   H2001     1.0  0.84901  0.61122  0.21015  1.0000
  C   C1171     1.0  0.69230  0.79366  0.96152  1.0000
  H   H2002     1.0  0.70224  0.97322  0.99814  1.0000
  H   H2003     1.0  0.55832  0.68454  0.45022  1.0000
  H   H2004     1.0  0.57928  0.68665  0.42431  1.0000
  Fe  Fe164     1.0  0.64499  0.56828  0.30202  1.0000
  S   S332      1.0  0.63471  0.51821  0.30060  1.0000
  S   S333      1.0  0.64839  0.59623  0.31919  1.0000
  Fe  Fe165     1.0  0.65558  0.57680  0.27473  1.0000
  S   S334      1.0  0.64555  0.52724  0.27168  1.0000
  S   S335      1.0  0.66663  0.61357  0.26058  1.0000
  Fe  Fe166     1.0  0.60696  0.51717  0.28423  1.0000
  N   N84       1.0  0.61142  0.71789  0.43694  1.0000
  Fe  Fe167     1.0  0.67421  0.53261  0.28820  1.0000
  S   S336      1.0  0.70823  0.51119  0.28892  1.0000
  S   S337      1.0  0.61524  0.56675  0.28634  1.0000
  S   S338      1.0  0.68642  0.58269  0.29064  1.0000
  Fe  Fe168     1.0  0.92905  0.56133  0.27561  1.0000
  S   S339      1.0  0.88071  0.53074  0.27971  1.0000
  H   H2005     1.0  0.63576  0.91874  0.44948  1.0000
  H   H2006     1.0  0.96075  0.48940  0.42788  1.0000
  S   S340      1.0  0.90045  0.54085  0.30801  1.0000
  Fe  Fe169     1.0  0.89998  0.50901  0.29301  1.0000
  C   C1172     1.0  0.55516  0.68341  0.44045  1.0000
  Fe  Fe170     1.0  0.88532  0.56504  0.29414  1.0000
  S   S341      1.0  0.85070  0.58553  0.29606  1.0000
  S   S342      1.0  0.93303  0.59695  0.28959  1.0000
  S   S343      1.0  0.93818  0.56562  0.25561  1.0000
  H   H2007     1.0  0.50752  0.91412  0.40795  1.0000
  Fe  Fe171     1.0  0.58310  0.59324  0.38675  1.0000
  S   S344      1.0  0.53976  0.59767  0.39114  1.0000
  S   S345      1.0  0.58333  0.56693  0.36941  1.0000
  Fe  Fe172     1.0  0.60746  0.61164  0.41272  1.0000
  S   S346      1.0  0.56595  0.61723  0.41841  1.0000
  S   S347      1.0  0.64505  0.61489  0.42587  1.0000
  Fe  Fe173     1.0  0.54005  0.57376  0.40801  1.0000
  S   S348      1.0  0.50436  0.53278  0.41678  1.0000
  Fe  Fe174     1.0  0.56955  0.64129  0.40112  1.0000
  S   S349      1.0  0.55547  0.68142  0.40078  1.0000
  S   S350      1.0  0.58152  0.56687  0.40323  1.0000
  S   S351      1.0  0.61315  0.63834  0.39585  1.0000
  Fe  Fe175     1.0  0.60759  0.92015  0.39151  1.0000
  S   S352      1.0  0.57812  0.87025  0.38871  1.0000
  H   H2008     1.0  0.60788  0.54070  0.45589  1.0000
  Fe  Fe176     1.0  0.59777  0.91727  0.41893  1.0000
  S   S353      1.0  0.56743  0.86681  0.41779  1.0000
  H   H2009     1.0  0.58791  0.60843  0.25377  1.0000
  Fe  Fe177     1.0  0.60096  0.86237  0.40502  1.0000
  S   S354      1.0  0.62201  0.82725  0.40497  1.0000
  Fe  Fe178     1.0  0.54675  0.87817  0.40156  1.0000
  S   S355      1.0  0.49655  0.85523  0.39696  1.0000
  S   S356      1.0  0.63290  0.91232  0.40719  1.0000
  S   S357      1.0  0.57460  0.92862  0.40333  1.0000
  H   H2010     1.0  0.60346  0.50272  0.45274  1.0000
  C   C1173     1.0  0.76114  0.63039  0.22203  1.0000
  H   H2011     1.0  0.61549  0.55020  0.22656  1.0000
  H   H2012     1.0  0.94361  0.52263  0.41814  1.0000
  C   C1174     1.0  0.64003  0.60931  0.44135  1.0000
  C   C1175     1.0  0.61661  0.61320  0.44724  1.0000
  C   C1176     1.0  0.66089  0.60215  0.44801  1.0000
  H   H2013     1.0  0.60038  0.61867  0.44224  1.0000
  H   H2014     1.0  0.67905  0.59902  0.44354  1.0000
  C   C1177     1.0  0.57461  0.72200  0.40109  1.0000
  C   C1178     1.0  0.55747  0.73942  0.40239  1.0000
  C   C1179     1.0  0.57152  0.77159  0.40334  1.0000
  C   C1180     1.0  0.60302  0.78684  0.40305  1.0000
  C   C1181     1.0  0.62020  0.76947  0.40158  1.0000
  C   C1182     1.0  0.60611  0.73727  0.40053  1.0000
  H   H2015     1.0  0.53309  0.72793  0.40277  1.0000
  H   H2016     1.0  0.55794  0.78453  0.40444  1.0000
  H   H2017     1.0  0.64458  0.78101  0.40128  1.0000
  H   H2018     1.0  0.61958  0.72426  0.39935  1.0000
  H   H2019     1.0  0.68213  0.91620  0.34141  1.0000
  H   H2020     1.0  0.48228  0.55240  0.38143  1.0000
  C   C1183     1.0  0.63163  0.95578  0.36160  1.0000
  H   H2021     1.0  0.53773  0.50114  0.36751  1.0000
  H   H2022     1.0  0.94881  0.59571  0.44564  1.0000
  H   H2023     1.0  0.55165  0.50680  0.23223  1.0000
  C   C1184     1.0  0.63170  0.95898  0.33639  1.0000
  C   C1185     1.0  0.58631  0.56815  0.23588  1.0000
  H   H2024     1.0  0.66286  0.83761  0.35715  1.0000
  H   H2025     1.0  0.63589  0.72790  0.42052  1.0000
  C   C1186     1.0  0.61034  0.93370  0.34216  1.0000
  C   C1187     1.0  0.61012  0.93218  0.35466  1.0000
  H   H2026     1.0  0.90482  0.49859  0.33001  1.0000
  C   C1188     1.0  0.65721  0.88444  0.37957  1.0000
  H   H2027     1.0  0.59388  0.91510  0.33690  1.0000
  H   H2028     1.0  0.59358  0.91258  0.35891  1.0000
  H   H2029     1.0  0.90349  0.64913  0.25643  1.0000
  C   C1189     1.0  0.62875  0.58775  0.33283  1.0000
  C   C1190     1.0  0.60800  0.55832  0.33548  1.0000
  C   C1191     1.0  0.59436  0.55252  0.34669  1.0000
  C   C1192     1.0  0.60109  0.57599  0.35538  1.0000
  C   C1193     1.0  0.62169  0.60542  0.35270  1.0000
  C   C1194     1.0  0.63542  0.61119  0.34152  1.0000
  H   H2030     1.0  0.60274  0.53999  0.32896  1.0000
  H   H2031     1.0  0.57864  0.52962  0.34866  1.0000
  H   H2032     1.0  0.62715  0.62374  0.35925  1.0000
  H   H2033     1.0  0.65146  0.63404  0.33960  1.0000
  C   C1195     1.0  0.74797  0.53229  0.29010  1.0000
  C   C1196     1.0  0.76683  0.51661  0.29080  1.0000
  C   C1197     1.0  0.79839  0.53258  0.29241  1.0000
  C   C1198     1.0  0.81131  0.56442  0.29355  1.0000
  C   C1199     1.0  0.79248  0.58012  0.29270  1.0000
  C   C1200     1.0  0.76104  0.56418  0.29078  1.0000
  H   H2034     1.0  0.75693  0.49193  0.29024  1.0000
  H   H2035     1.0  0.81262  0.52021  0.29304  1.0000
  H   H2036     1.0  0.80229  0.60477  0.29349  1.0000
  H   H2037     1.0  0.74683  0.57650  0.29004  1.0000
  H   H2038     1.0  0.51523  0.49961  0.25490  1.0000
  C   C1201     1.0  0.66673  0.89517  0.34581  1.0000
  C   C1202     1.0  0.63806  0.72014  0.42959  1.0000
  C   C1203     1.0  0.68201  0.61778  0.22006  1.0000
  C   C1204     1.0  0.68185  0.64287  0.22650  1.0000
  C   C1205     1.0  0.67731  0.64117  0.23886  1.0000
  C   C1206     1.0  0.67310  0.61452  0.24501  1.0000
  C   C1207     1.0  0.67375  0.58960  0.23861  1.0000
  C   C1208     1.0  0.67805  0.59122  0.22623  1.0000
  H   H2039     1.0  0.68489  0.66349  0.22194  1.0000
  H   H2040     1.0  0.67698  0.66067  0.24370  1.0000
  H   H2041     1.0  0.67101  0.56912  0.24318  1.0000
  H   H2042     1.0  0.67829  0.57169  0.22138  1.0000
  H   H2043     1.0  0.54781  0.54376  0.45424  1.0000
  H   H2044     1.0  0.68277  0.81678  0.37250  1.0000
  C   C1209     1.0  0.61976  0.72159  0.44998  1.0000
  C   C1210     1.0  0.51166  0.51272  0.38474  1.0000
  C   C1211     1.0  0.58455  0.68838  0.43400  1.0000
  C   C1212     1.0  0.67220  0.85291  0.36510  1.0000
  H   H2045     1.0  0.77301  0.62183  0.22851  1.0000
  H   H2046     1.0  0.54560  0.69965  0.43758  1.0000
  S   S358      1.0  0.60498  0.94934  0.43535  1.0000
  C   C1213     1.0  0.60270  0.74360  0.43363  1.0000
  H   H2047     1.0  0.52008  0.90086  0.45814  1.0000
  H   H2048     1.0  0.59311  0.85055  0.21769  1.0000
  H   H2049     1.0  0.59203  0.73943  0.42460  1.0000
  H   H2050     1.0  0.58527  0.74495  0.43964  1.0000
  H   H2051     1.0  0.57967  0.81994  0.36700  1.0000
  H   H2052     1.0  0.57168  0.59573  0.26781  1.0000
  H   H2053     1.0  0.54297  0.48378  0.25311  1.0000
  H   H2054     1.0  0.62769  0.51866  0.24403  1.0000
  C   C1214     1.0  0.68835  0.88319  0.21550  1.0000
  H   H2055     1.0  0.95555  0.48363  0.29705  1.0000
  N   N85       1.0  0.72174  0.56981  0.32869  1.0000
  C   C1215     1.0  0.72310  0.54940  0.31856  1.0000
  C   C1216     1.0  0.72446  0.59935  0.32335  1.0000
  C   C1217     1.0  0.69109  0.55454  0.33416  1.0000
  C   C1218     1.0  0.74686  0.57387  0.33754  1.0000
  C   C1219     1.0  0.71754  0.51640  0.32167  1.0000
  C   C1220     1.0  0.75428  0.61744  0.31700  1.0000
  C   C1221     1.0  0.68507  0.57088  0.34504  1.0000
  C   C1222     1.0  0.75753  0.60236  0.34598  1.0000
  H   H2056     1.0  0.70650  0.54783  0.31134  1.0000
  H   H2057     1.0  0.74570  0.55913  0.31446  1.0000
  H   H2058     1.0  0.72130  0.61511  0.32991  1.0000
  H   H2059     1.0  0.70583  0.59490  0.31671  1.0000
  H   H2060     1.0  0.67283  0.55097  0.32741  1.0000
  H   H2061     1.0  0.68726  0.53152  0.33730  1.0000
  H   H2062     1.0  0.74030  0.55346  0.34317  1.0000
  H   H2063     1.0  0.76741  0.57518  0.33283  1.0000
  H   H2064     1.0  0.47334  0.56062  0.36701  1.0000
  H   H2065     1.0  0.75779  0.60780  0.45529  1.0000
  H   H2066     1.0  0.73098  0.51531  0.32952  1.0000
  H   H2067     1.0  0.75572  0.64060  0.31514  1.0000
  H   H2068     1.0  0.77459  0.62021  0.32235  1.0000
  H   H2069     1.0  0.75479  0.60660  0.30831  1.0000
  H   H2070     1.0  0.68724  0.59419  0.34315  1.0000
  H   H2071     1.0  0.69960  0.57122  0.35276  1.0000
  H   H2072     1.0  0.66137  0.55787  0.34777  1.0000
  H   H2073     1.0  0.76078  0.59559  0.35508  1.0000
  H   H2074     1.0  0.74191  0.61372  0.34672  1.0000
  H   H2075     1.0  0.78009  0.61940  0.34341  1.0000
  H   H2076     1.0  0.68906  0.90735  0.39409  1.0000
  H   H2077     1.0  0.95626  0.60722  0.21547  1.0000
  H   H2078     1.0  0.55075  0.48100  0.44998  1.0000
  H   H2079     1.0  0.69431  0.91316  0.36140  1.0000
  C   C1223     1.0  0.54902  0.49845  0.45622  1.0000
  H   H2080     1.0  0.69313  0.50215  0.32289  1.0000
  H   H2081     1.0  0.95680  0.54034  0.43239  1.0000
  H   H2082     1.0  0.60236  0.72521  0.45535  1.0000
  H   H2083     1.0  0.56490  0.94347  0.31828  1.0000
  C   C1224     1.0  0.47338  0.54190  0.37262  1.0000
  H   H2084     1.0  0.70681  0.89893  0.38149  1.0000
  C   C1225     1.0  0.48360  0.90225  0.40590  1.0000
  H   H2085     1.0  0.51647  0.54595  0.36600  1.0000
  C   C1226     1.0  0.65846  0.59901  0.46041  1.0000
  S   S359      1.0  0.63467  0.95390  0.37734  1.0000
  C   C1227     1.0  0.62854  0.77596  0.43377  1.0000
  S   S360      1.0  0.55758  0.48662  0.27925  1.0000
  H   H2086     1.0  0.49951  0.52276  0.39041  1.0000
  H   H2087     1.0  0.72444  0.50573  0.31411  1.0000
  H   H2088     1.0  0.62072  0.83580  0.21574  1.0000
  C   C1228     1.0  0.62468  0.85905  0.23239  1.0000
  C   C1229     1.0  0.93690  0.48600  0.32057  1.0000
  H   H2089     1.0  0.57031  0.57812  0.23296  1.0000
  C   C1230     1.0  0.46398  0.47659  0.37580  1.0000
  H   H2090     1.0  0.47216  0.91277  0.36485  1.0000
  C   C1231     1.0  0.78327  0.65868  0.21563  1.0000
  H   H2091     1.0  0.57045  0.53504  0.44333  1.0000
  C   C1232     1.0  0.62132  0.95547  0.44999  1.0000
  H   H2092     1.0  0.51856  0.96027  0.32646  1.0000
  H   H2093     1.0  0.53127  0.50138  0.40035  1.0000
  C   C1233     1.0  0.92913  0.50296  0.33081  1.0000
  H   H2094     1.0  0.46633  0.55278  0.40210  1.0000
  C   C1234     1.0  0.55969  0.55886  0.25457  1.0000
  H   H2095     1.0  0.57857  0.53995  0.21935  1.0000
  H   H2096     1.0  0.95162  0.59586  0.35533  1.0000
  H   H2097     1.0  0.60735  0.57756  0.21875  1.0000
  C   C1235     1.0  0.51751  0.48930  0.39240  1.0000
  C   C1236     1.0  0.68897  0.90631  0.38425  1.0000
  H   H2098     1.0  0.58778  0.52643  0.25988  1.0000
  C   C1237     1.0  0.64299  0.69067  0.42751  1.0000
  C   C1238     1.0  0.47112  0.96540  0.44174  1.0000
  H   H2099     1.0  0.52875  0.52583  0.23576  1.0000
  H   H2100     1.0  0.60566  0.82963  0.37923  1.0000
  H   H2101     1.0  0.66503  0.69641  0.42318  1.0000
  H   H2102     1.0  0.58930  0.66821  0.43580  1.0000
  Fe  Fe179     1.0  0.94777  0.56972  0.30251  1.0000
  H   H2103     1.0  0.71224  0.96431  0.22407  1.0000
  H   H2104     1.0  0.53515  0.94640  0.30915  1.0000
  H   H2105     1.0  0.65076  0.70022  0.45456  1.0000
  C   C1239     1.0  0.54531  0.51785  0.23975  1.0000
  H   H2106     1.0  0.59408  0.50495  0.23516  1.0000
  C   C1240     1.0  0.95055  0.59627  0.24550  1.0000
  H   H2107     1.0  0.61189  0.67299  0.45248  1.0000
  H   H2108     1.0  0.54004  0.56279  0.25102  1.0000
  C   C1241     1.0  0.58218  0.58955  0.26008  1.0000
  C   C1242     1.0  0.46388  0.91621  0.40845  1.0000
  C   C1243     1.0  0.49329  0.52754  0.36685  1.0000
  H   H2109     1.0  0.53403  0.53173  0.38327  1.0000
  C   C1244     1.0  0.66964  0.90096  0.35937  1.0000
  H   H2110     1.0  0.59457  0.48945  0.24948  1.0000
  H   H2111     1.0  0.69641  0.86665  0.36311  1.0000
  C   C1245     1.0  0.69940  0.97404  0.22910  1.0000
  H   H2112     1.0  0.64360  0.67885  0.43574  1.0000
  N   N86       1.0  0.65555  0.87319  0.36691  1.0000
  C   C1246     1.0  0.61661  0.91983  0.22277  1.0000
  H   H2113     1.0  0.62031  0.85012  0.35356  1.0000
  H   H2114     1.0  0.64359  0.89059  0.34246  1.0000
  H   H2115     1.0  0.64838  0.86538  0.38577  1.0000
  C   C1247     1.0  0.60274  0.51076  0.24436  1.0000
  H   H2116     1.0  0.67306  0.87638  0.34303  1.0000
  H   H2117     1.0  0.64234  0.89679  0.38071  1.0000
  H   H2118     1.0  0.79975  0.61006  0.21408  1.0000
  H   H2119     1.0  0.65997  0.91778  0.36143  1.0000
  H   H2120     1.0  0.63731  0.92960  0.22844  1.0000
  C   C1248     1.0  0.67259  0.83254  0.37551  1.0000
  C   C1249     1.0  0.60322  0.51850  0.46007  1.0000
  C   C1250     1.0  0.59519  0.53534  0.25090  1.0000
  H   H2121     1.0  0.53035  0.51708  0.44234  1.0000
  C   C1251     1.0  0.60395  0.82714  0.36945  1.0000
  H   H2122     1.0  0.64712  0.85904  0.23442  1.0000
  H   H2123     1.0  0.74546  0.63716  0.22721  1.0000
  H   H2124     1.0  0.53786  0.66022  0.43803  1.0000
  H   H2125     1.0  0.62362  0.87939  0.23671  1.0000
  C   C1252     1.0  0.55980  0.95628  0.31114  1.0000
  H   H2126     1.0  0.61005  0.80832  0.36647  1.0000
  H   H2127     1.0  0.94278  0.52792  0.33038  1.0000
  H   H2128     1.0  0.61098  0.87244  0.36418  1.0000
  C   C1253     1.0  0.66797  0.90079  0.21631  1.0000
  C   C1254     1.0  0.75167  0.62446  0.46032  1.0000
  C   C1255     1.0  0.47233  0.87305  0.40064  1.0000
  H   H2129     1.0  0.70894  0.89496  0.22120  1.0000
  H   H2130     1.0  0.79531  0.67545  0.22292  1.0000
  H   H2131     1.0  0.55103  0.54334  0.26215  1.0000
  H   H2132     1.0  0.67682  0.85936  0.21842  1.0000
  H   H2133     1.0  0.64599  0.77814  0.42717  1.0000
  H   H2134     1.0  0.60668  0.58754  0.23963  1.0000
  H   H2135     1.0  0.68676  0.84618  0.38310  1.0000
  H   H2136     1.0  0.47284  0.93891  0.41243  1.0000
  S   S361      1.0  0.63088  0.95933  0.32057  1.0000
  C   C1256     1.0  0.62269  0.85688  0.36311  1.0000
  H   H2137     1.0  0.64989  0.81822  0.37877  1.0000
  H   H2138     1.0  0.51845  0.50760  0.34846  1.0000
  C   C1257     1.0  0.46740  0.51363  0.41067  1.0000
  H   H2139     1.0  0.81377  0.71860  0.21153  1.0000
  H   H2140     1.0  0.60311  0.58819  0.26340  1.0000
  H   H2141     1.0  0.61684  0.55567  0.25253  1.0000
  N   N87       1.0  0.85152  0.59376  0.25799  1.0000
  C   C1258     1.0  0.83477  0.60927  0.26473  1.0000
  C   C1259     1.0  0.88209  0.60321  0.26404  1.0000
  C   C1260     1.0  0.83405  0.55976  0.25906  1.0000
  C   C1261     1.0  0.85357  0.60309  0.24520  1.0000
  C   C1262     1.0  0.80108  0.59942  0.26126  1.0000
  C   C1263     1.0  0.90153  0.63786  0.26504  1.0000
  C   C1264     1.0  0.84670  0.53919  0.25259  1.0000
  C   C1265     1.0  0.87954  0.60093  0.23794  1.0000
  H   H2142     1.0  0.83586  0.60582  0.27441  1.0000
  H   H2143     1.0  0.84566  0.63442  0.26368  1.0000
  H   H2144     1.0  0.89605  0.59287  0.25972  1.0000
  H   H2145     1.0  0.87944  0.59448  0.27321  1.0000
  H   H2146     1.0  0.83178  0.55355  0.26859  1.0000
  H   H2147     1.0  0.81061  0.55214  0.25542  1.0000
  H   H2148     1.0  0.83191  0.58952  0.24033  1.0000
  H   H2149     1.0  0.85688  0.62740  0.24475  1.0000
  H   H2150     1.0  0.79290  0.61570  0.26541  1.0000
  H   H2151     1.0  0.79732  0.59940  0.25156  1.0000
  H   H2152     1.0  0.78684  0.57670  0.26480  1.0000
  H   H2153     1.0  0.92471  0.64181  0.26815  1.0000
  H   H2154     1.0  0.64036  0.74296  0.45170  1.0000
  H   H2155     1.0  0.89266  0.64895  0.27179  1.0000
  H   H2156     1.0  0.87050  0.54451  0.25510  1.0000
  H   H2157     1.0  0.84418  0.53998  0.24284  1.0000
  H   H2158     1.0  0.83334  0.51516  0.25506  1.0000
  H   H2159     1.0  0.87174  0.59488  0.22857  1.0000
  H   H2160     1.0  0.88749  0.58363  0.24083  1.0000
  H   H2161     1.0  0.89912  0.62348  0.23766  1.0000
  H   H2162     1.0  0.94586  0.58708  0.33348  1.0000
  H   H2163     1.0  0.59777  0.90300  0.22775  1.0000
  C   C1266     1.0  0.94824  0.58949  0.23322  1.0000
  C   C1267     1.0  0.81794  0.63297  0.21273  1.0000
  C   C1268     1.0  0.62672  0.69624  0.45571  1.0000
  H   H2164     1.0  0.57078  0.95257  0.30305  1.0000
  H   H2165     1.0  0.66868  0.90835  0.22569  1.0000
  H   H2166     1.0  0.69466  0.92985  0.38120  1.0000
  H   H2167     1.0  0.93176  0.49506  0.33970  1.0000
  H   H2168     1.0  0.63923  0.78323  0.44268  1.0000
  H   H2169     1.0  0.74678  0.61172  0.21590  1.0000
  H   H2170     1.0  0.84694  0.69123  0.21446  1.0000
  C   C1269     1.0  0.63461  0.93715  0.45482  1.0000
  H   H2171     1.0  0.60767  0.83877  0.23667  1.0000
  C   C1270     1.0  0.61477  0.61102  0.45966  1.0000
  N   N88       1.0  0.57201  0.54454  0.24514  1.0000
  H   H2172     1.0  0.55465  0.93065  0.45444  1.0000
  C   C1271     1.0  0.95792  0.61291  0.22485  1.0000
  H   H2173     1.0  0.61893  0.79247  0.43121  1.0000
  H   H2174     1.0  0.61015  0.93899  0.22083  1.0000
  H   H2175     1.0  0.82785  0.64149  0.22174  1.0000
  H   H2176     1.0  0.56177  0.96284  0.33621  1.0000
  H   H2177     1.0  0.65955  0.73771  0.43345  1.0000
  H   H2178     1.0  0.93905  0.56590  0.23016  1.0000
  C   C1272     1.0  0.54987  0.52539  0.44874  1.0000
  H   H2179     1.0  0.67943  0.92226  0.21140  1.0000
  H   H2180     1.0  0.62545  0.67456  0.42133  1.0000
  C   C1273     1.0  0.52792  0.49225  0.24836  1.0000
  S   S362      1.0  0.94790  0.53661  0.28801  1.0000
  C   C1274     1.0  0.59721  0.55767  0.22459  1.0000
  C   C1275     1.0  0.69872  0.97218  0.24158  1.0000
  C   C1276     1.0  0.61774  0.85649  0.21889  1.0000
  N   N89       1.0  0.49483  0.50068  0.37310  1.0000
  H   H2181     1.0  0.48453  0.52164  0.35762  1.0000
  H   H2182     1.0  0.71076  0.96062  0.24603  1.0000
  H   H2183     1.0  0.94128  0.50139  0.31292  1.0000
  H   H2184     1.0  0.75256  0.64187  0.45381  1.0000
  H   H2185     1.0  0.48229  0.95905  0.43427  1.0000
  N   N90       1.0  0.63597  0.88380  0.21163  1.0000
  H   H2186     1.0  0.52583  0.48762  0.45965  1.0000
  C   C1277     1.0  0.50815  0.48473  0.35246  1.0000
  C   C1278     1.0  0.51295  0.48727  0.36604  1.0000
  H   H2187     1.0  0.53060  0.47842  0.38773  1.0000
  C   C1279     1.0  0.96256  0.62690  0.24929  1.0000
  H   H2188     1.0  0.46365  0.94597  0.44775  1.0000
  C   C1280     1.0  0.66853  0.79768  0.62669  1.0000
  H   H2189     1.0  0.70567  0.64563  0.48979  1.0000
  Fe  Fe180     1.0  0.59835  0.64229  0.63436  1.0000
  S   S363      1.0  0.54935  0.63488  0.63299  1.0000
  S   S364      1.0  0.62450  0.67089  0.65073  1.0000
  Fe  Fe181     1.0  0.59555  0.61472  0.60874  1.0000
  S   S365      1.0  0.54660  0.60579  0.60596  1.0000
  S   S366      1.0  0.62329  0.60018  0.59560  1.0000
  Fe  Fe182     1.0  0.55987  0.65258  0.61460  1.0000
  S   S367      1.0  0.54710  0.68882  0.60655  1.0000
  Fe  Fe183     1.0  0.54039  0.58892  0.62463  1.0000
  S   S368      1.0  0.50621  0.54367  0.63154  1.0000
  S   S369      1.0  0.60929  0.66255  0.61622  1.0000
  S   S370      1.0  0.58893  0.59525  0.62712  1.0000
  Fe  Fe184     1.0  0.61449  0.91926  0.63812  1.0000
  S   S371      1.0  0.56941  0.88740  0.64465  1.0000
  S   S372      1.0  0.65550  0.94139  0.65092  1.0000
  Fe  Fe185     1.0  0.59296  0.90491  0.61157  1.0000
  S   S373      1.0  0.54674  0.87060  0.61690  1.0000
  S   S374      1.0  0.59681  0.90964  0.59121  1.0000
  Fe  Fe186     1.0  0.54897  0.90616  0.63053  1.0000
  S   S375      1.0  0.51339  0.92542  0.63319  1.0000
  Fe  Fe187     1.0  0.57135  0.85472  0.63039  1.0000
  S   S376      1.0  0.56260  0.80731  0.63700  1.0000
  S   S377      1.0  0.59432  0.94098  0.62487  1.0000
  S   S378      1.0  0.61727  0.88597  0.62421  1.0000
  C   C1281     1.0  0.58986  0.90487  0.49376  1.0000
  S   S379      1.0  0.91821  0.52484  0.49943  1.0000
  H   H2190     1.0  0.81351  0.55595  0.57439  1.0000
  H   H2191     1.0  0.51185  0.91913  0.49548  1.0000
  S   S380      1.0  0.91014  0.53653  0.52788  1.0000
  H   H2192     1.0  0.90185  0.66549  0.67148  1.0000
  Fe  Fe188     1.0  0.93730  0.51816  0.51684  1.0000
  C   C1282     1.0  0.90436  0.65771  0.70891  1.0000
  Fe  Fe189     1.0  0.89384  0.54736  0.51047  1.0000
  S   S381      1.0  0.84279  0.53198  0.50724  1.0000
  S   S382      1.0  0.93162  0.59443  0.50956  1.0000
  Fe  Fe190     1.0  0.64145  0.57655  0.52458  1.0000
  S   S383      1.0  0.66254  0.54278  0.52578  1.0000
  S   S384      1.0  0.61631  0.59116  0.53876  1.0000
  Fe  Fe191     1.0  0.64917  0.58138  0.49713  1.0000
  S   S385      1.0  0.67109  0.54813  0.49656  1.0000
  S   S386      1.0  0.63224  0.60203  0.48201  1.0000
  Fe  Fe192     1.0  0.63484  0.52088  0.50923  1.0000
  H   H2193     1.0  0.58631  0.50473  0.57475  1.0000
  Fe  Fe193     1.0  0.69713  0.57283  0.51310  1.0000
  S   S387      1.0  0.74857  0.59187  0.51628  1.0000
  S   S388      1.0  0.61167  0.55242  0.50882  1.0000
  S   S389      1.0  0.67743  0.60823  0.51284  1.0000
  H   H2194     1.0  0.58271  0.50017  0.52937  1.0000
  H   H2195     1.0  0.81127  0.62683  0.48559  1.0000
  C   C1283     1.0  0.51398  0.57974  0.67020  1.0000
  H   H2196     1.0  0.57619  0.54751  0.66118  1.0000
  S   S390      1.0  0.68221  0.65028  0.69961  1.0000
  H   H2197     1.0  0.50585  0.58510  0.67877  1.0000
  H   H2198     1.0  0.56222  0.49387  0.50601  1.0000
  C   C1284     1.0  0.71691  0.63482  0.48392  1.0000
  C   C1285     1.0  0.66130  0.96755  0.69089  1.0000
  C   C1286     1.0  0.58679  0.50215  0.53914  1.0000
  C   C1287     1.0  0.94354  0.67290  0.69416  1.0000
  C   C1288     1.0  0.81724  0.54947  0.50958  1.0000
  C   C1289     1.0  0.78607  0.53202  0.50754  1.0000
  C   C1290     1.0  0.76474  0.54452  0.50955  1.0000
  C   C1291     1.0  0.77433  0.57466  0.51374  1.0000
  C   C1292     1.0  0.80554  0.59220  0.51573  1.0000
  C   C1293     1.0  0.82690  0.57983  0.51353  1.0000
  H   H2199     1.0  0.77833  0.50853  0.50445  1.0000
  H   H2200     1.0  0.74088  0.53071  0.50795  1.0000
  H   H2201     1.0  0.81327  0.61559  0.51892  1.0000
  H   H2202     1.0  0.85080  0.59369  0.51495  1.0000
  H   H2203     1.0  0.54071  0.56867  0.68875  1.0000
  H   H2204     1.0  0.57990  0.55317  0.47014  1.0000
  H   H2205     1.0  0.60089  0.58111  0.67630  1.0000
  H   H2206     1.0  0.62192  0.72740  0.60418  1.0000
  C   C1294     1.0  0.61444  0.93759  0.58025  1.0000
  S   S391      1.0  0.65911  0.97150  0.48871  1.0000
  H   H2207     1.0  0.58815  0.55754  0.68896  1.0000
  H   H2208     1.0  0.48919  0.48701  0.58537  1.0000
  H   H2209     1.0  0.96135  0.67572  0.70099  1.0000
  H   H2210     1.0  0.95065  0.62159  0.68563  1.0000
  C   C1295     1.0  0.50458  0.95466  0.59026  1.0000
  H   H2211     1.0  0.72417  0.90011  0.70343  1.0000
  H   H2212     1.0  0.93545  0.58669  0.69316  1.0000
  H   H2213     1.0  0.59490  0.59689  0.69015  1.0000
  H   H2214     1.0  0.65073  0.72564  0.63723  1.0000
  C   C1296     1.0  0.63608  0.96701  0.58311  1.0000
  H   H2215     1.0  0.49553  0.52947  0.67228  1.0000
  H   H2216     1.0  0.89765  0.63870  0.53745  1.0000
  C   C1297     1.0  0.49325  0.87955  0.48371  1.0000
  C   C1298     1.0  0.61943  0.59427  0.55455  1.0000
  C   C1299     1.0  0.64059  0.58743  0.56101  1.0000
  C   C1300     1.0  0.64144  0.58940  0.57354  1.0000
  C   C1301     1.0  0.62126  0.59829  0.57978  1.0000
  C   C1302     1.0  0.60003  0.60500  0.57330  1.0000
  C   C1303     1.0  0.59916  0.60299  0.56079  1.0000
  H   H2217     1.0  0.65635  0.58069  0.55638  1.0000
  H   H2218     1.0  0.65798  0.58418  0.57844  1.0000
  H   H2219     1.0  0.58440  0.61192  0.57794  1.0000
  H   H2220     1.0  0.58270  0.60840  0.55591  1.0000
  C   C1304     1.0  0.54846  0.72075  0.61502  1.0000
  C   C1305     1.0  0.54772  0.72038  0.62740  1.0000
  C   C1306     1.0  0.55106  0.74686  0.63394  1.0000
  C   C1307     1.0  0.55560  0.77406  0.62821  1.0000
  C   C1308     1.0  0.55573  0.77430  0.61582  1.0000
  C   C1309     1.0  0.55186  0.74763  0.60925  1.0000
  H   H2221     1.0  0.54482  0.69978  0.63193  1.0000
  H   H2222     1.0  0.55058  0.74640  0.64351  1.0000
  H   H2223     1.0  0.55909  0.79506  0.61130  1.0000
  H   H2224     1.0  0.55237  0.74807  0.59968  1.0000
  C   C1310     1.0  0.54238  0.52473  0.48062  1.0000
  H   H2225     1.0  0.49928  0.96178  0.60955  1.0000
  C   C1311     1.0  0.46736  0.52316  0.62760  1.0000
  C   C1312     1.0  0.68497  0.74253  0.62459  1.0000
  H   H2226     1.0  0.51242  0.91524  0.57496  1.0000
  C   C1313     1.0  0.66697  0.65706  0.68600  1.0000
  C   C1314     1.0  0.66267  0.68371  0.68406  1.0000
  C   C1315     1.0  0.64988  0.68752  0.67320  1.0000
  C   C1316     1.0  0.64114  0.66483  0.66412  1.0000
  C   C1317     1.0  0.64562  0.63828  0.66601  1.0000
  C   C1318     1.0  0.65836  0.63445  0.67688  1.0000
  H   H2227     1.0  0.66915  0.70132  0.69095  1.0000
  H   H2228     1.0  0.64665  0.70821  0.67186  1.0000
  H   H2229     1.0  0.63957  0.62081  0.65909  1.0000
  H   H2230     1.0  0.66179  0.61386  0.67822  1.0000
  H   H2231     1.0  0.61212  0.72451  0.62374  1.0000
  H   H2232     1.0  0.49559  0.54185  0.65710  1.0000
  H   H2233     1.0  0.60382  0.86804  0.68939  1.0000
  H   H2234     1.0  0.61295  0.94420  0.54999  1.0000
  C   C1319     1.0  0.65671  0.95102  0.66633  1.0000
  C   C1320     1.0  0.57235  0.53071  0.47443  1.0000
  H   H2235     1.0  0.56130  0.53359  0.52657  1.0000
  N   N91       1.0  0.76715  0.62776  0.48273  1.0000
  H   H2236     1.0  0.50936  0.59403  0.66347  1.0000
  H   H2237     1.0  0.52802  0.51626  0.55038  1.0000
  C   C1321     1.0  0.55876  0.96780  0.59541  1.0000
  H   H2238     1.0  0.47961  0.51504  0.59253  1.0000
  H   H2239     1.0  0.70306  0.95703  0.66854  1.0000
  C   C1322     1.0  0.68372  0.95791  0.67292  1.0000
  H   H2240     1.0  0.53671  0.53312  0.65690  1.0000
  H   H2241     1.0  0.78512  0.57529  0.48476  1.0000
  H   H2242     1.0  0.55048  0.96501  0.61473  1.0000
  H   H2243     1.0  0.54167  0.54702  0.48289  1.0000
  C   C1323     1.0  0.55620  0.89939  0.49289  1.0000
  H   H2244     1.0  0.85071  0.55744  0.57760  1.0000
  H   H2245     1.0  0.79806  0.51163  0.53598  1.0000
  H   H2246     1.0  0.57441  0.66706  0.67064  1.0000
  H   H2247     1.0  0.65161  0.53257  0.46279  1.0000
  C   C1324     1.0  0.76816  0.57536  0.47804  1.0000
  H   H2248     1.0  0.87077  0.61800  0.68943  1.0000
  C   C1325     1.0  0.74873  0.64203  0.48905  1.0000
  H   H2249     1.0  0.74330  0.58556  0.49178  1.0000
  C   C1326     1.0  0.48552  0.95193  0.60140  1.0000
  C   C1327     1.0  0.62366  0.74901  0.62149  1.0000
  C   C1328     1.0  0.62583  0.88286  0.69361  1.0000
  H   H2250     1.0  0.59418  0.81720  0.70418  1.0000
  H   H2251     1.0  0.87253  0.52835  0.56764  1.0000
  H   H2252     1.0  0.54376  0.87495  0.49017  1.0000
  C   C1329     1.0  0.64471  0.96613  0.47378  1.0000
  C   C1330     1.0  0.58344  0.51344  0.56598  1.0000
  Fe  Fe194     1.0  0.94937  0.58212  0.52649  1.0000
  H   H2253     1.0  0.48789  0.94255  0.58300  1.0000
  H   H2254     1.0  0.67043  0.72614  0.61768  1.0000
  H   H2255     1.0  0.58935  0.53507  0.48175  1.0000
  N   N92       1.0  0.54739  0.58723  0.67116  1.0000
  C   C1331     1.0  0.56319  0.62009  0.67547  1.0000
  C   C1332     1.0  0.55268  0.56775  0.68049  1.0000
  C   C1333     1.0  0.55951  0.58372  0.65920  1.0000
  C   C1334     1.0  0.55761  0.64383  0.66796  1.0000
  H   H2256     1.0  0.56507  0.55183  0.64651  1.0000
  H   H2257     1.0  0.74596  0.63526  0.49852  1.0000
  H   H2258     1.0  0.55681  0.62287  0.68473  1.0000
  H   H2259     1.0  0.58814  0.62746  0.67581  1.0000
  H   H2260     1.0  0.87853  0.65751  0.68933  1.0000
  H   H2261     1.0  0.54695  0.58930  0.65195  1.0000
  H   H2262     1.0  0.58340  0.60042  0.65830  1.0000
  H   H2263     1.0  0.56056  0.64065  0.65840  1.0000
  H   H2264     1.0  0.59994  0.90560  0.48496  1.0000
  H   H2265     1.0  0.63417  0.54188  0.47509  1.0000
  H   H2266     1.0  0.47363  0.86218  0.62661  1.0000
  H   H2267     1.0  0.70121  0.86096  0.70019  1.0000
  H   H2268     1.0  0.57624  0.53222  0.56778  1.0000
  H   H2269     1.0  0.58222  0.48443  0.48127  1.0000
  H   H2270     1.0  0.70677  0.97088  0.69002  1.0000
  C   C1335     1.0  0.49441  0.88656  0.59475  1.0000
  C   C1336     1.0  0.75042  0.59345  0.48268  1.0000
  C   C1337     1.0  0.54860  0.52068  0.54510  1.0000
  C   C1338     1.0  0.63232  0.77105  0.64167  1.0000
  H   H2271     1.0  0.54079  0.51233  0.48895  1.0000
  H   H2272     1.0  0.61118  0.94771  0.66716  1.0000
  H   H2273     1.0  0.52080  0.51386  0.52869  1.0000
  C   C1339     1.0  0.49290  0.54669  0.66655  1.0000
  H   H2274     1.0  0.72889  0.58524  0.47750  1.0000
  H   H2275     1.0  0.77951  0.58421  0.46961  1.0000
  H   H2276     1.0  0.56660  0.54141  0.54925  1.0000
  H   H2277     1.0  0.65392  0.82733  0.69364  1.0000
  H   H2278     1.0  0.91190  0.54163  0.56497  1.0000
  H   H2279     1.0  0.71508  0.88811  0.68832  1.0000
  H   H2280     1.0  0.62989  0.50300  0.47243  1.0000
  C   C1340     1.0  0.63451  0.96135  0.68425  1.0000
  H   H2281     1.0  0.54097  0.55261  0.53354  1.0000
  H   H2282     1.0  0.47016  0.92789  0.60304  1.0000
  H   H2283     1.0  0.79121  0.62543  0.49874  1.0000
  H   H2284     1.0  0.70131  0.76360  0.62060  1.0000
  H   H2285     1.0  0.47510  0.89080  0.59121  1.0000
  C   C1341     1.0  0.60613  0.92981  0.56822  1.0000
  C   C1342     1.0  0.94295  0.70448  0.69260  1.0000
  H   H2286     1.0  0.54297  0.54329  0.67772  1.0000
  N   N93       1.0  0.64935  0.87014  0.69211  1.0000
  C   C1343     1.0  0.67798  0.89199  0.69842  1.0000
  H   H2287     1.0  0.71778  0.64484  0.47510  1.0000
  C   C1344     1.0  0.65635  0.86968  0.67913  1.0000
  C   C1345     1.0  0.64018  0.83901  0.69736  1.0000
  C   C1346     1.0  0.70590  0.88442  0.69738  1.0000
  H   H2288     1.0  0.54433  0.94662  0.56065  1.0000
  C   C1347     1.0  0.62976  0.85143  0.67056  1.0000
  H   H2289     1.0  0.54100  0.91040  0.60025  1.0000
  H   H2290     1.0  0.68459  0.91556  0.69528  1.0000
  H   H2291     1.0  0.53734  0.48138  0.56269  1.0000
  H   H2292     1.0  0.63755  0.91012  0.71025  1.0000
  H   H2293     1.0  0.63271  0.90469  0.68891  1.0000
  H   H2294     1.0  0.66670  0.89343  0.67583  1.0000
  H   H2295     1.0  0.67335  0.86000  0.67773  1.0000
  H   H2296     1.0  0.59198  0.95794  0.48759  1.0000
  C   C1348     1.0  0.54668  0.95758  0.56959  1.0000
  H   H2297     1.0  0.49768  0.87035  0.47522  1.0000
  H   H2298     1.0  0.67444  0.89339  0.70807  1.0000
  H   H2299     1.0  0.57686  0.95914  0.59551  1.0000
  H   H2300     1.0  0.60196  0.52658  0.54100  1.0000
  C   C1349     1.0  0.53398  0.93253  0.57887  1.0000
  H   H2301     1.0  0.59195  0.88591  0.49861  1.0000
  H   H2302     1.0  0.62121  0.82657  0.67194  1.0000
  H   H2303     1.0  0.63802  0.85513  0.66134  1.0000
  H   H2304     1.0  0.61120  0.85923  0.67086  1.0000
  C   C1350     1.0  0.54260  0.53026  0.53267  1.0000
  H   H2305     1.0  0.88564  0.51933  0.55372  1.0000
  C   C1351     1.0  0.63202  0.95263  0.67210  1.0000
  C   C1352     1.0  0.65305  0.81924  0.62375  1.0000
  H   H2306     1.0  0.64542  0.82720  0.63186  1.0000
  H   H2307     1.0  0.54949  0.92074  0.57937  1.0000
  H   H2308     1.0  0.62465  0.76512  0.60334  1.0000
  H   H2309     1.0  0.58953  0.90714  0.56585  1.0000
  C   C1353     1.0  0.60646  0.81669  0.69600  1.0000
  C   C1354     1.0  0.56753  0.95230  0.48855  1.0000
  H   H2310     1.0  0.49377  0.86467  0.49104  1.0000
  C   C1355     1.0  0.58614  0.57650  0.68408  1.0000
  H   H2311     1.0  0.68132  0.76031  0.64187  1.0000
  H   H2312     1.0  0.53485  0.64337  0.66942  1.0000
  H   H2313     1.0  0.59928  0.74744  0.65498  1.0000
  H   H2314     1.0  0.65764  0.75834  0.60692  1.0000
  H   H2315     1.0  0.61537  0.96289  0.68855  1.0000
  H   H2316     1.0  0.63357  0.80859  0.61746  1.0000
  C   C1356     1.0  0.79612  0.63599  0.48991  1.0000
  H   H2317     1.0  0.93615  0.62433  0.70748  1.0000
  C   C1357     1.0  0.61377  0.74213  0.64859  1.0000
  H   H2318     1.0  0.91319  0.62511  0.54919  1.0000
  N   N94       1.0  0.86172  0.56745  0.55072  1.0000
  C   C1358     1.0  0.86964  0.59145  0.54137  1.0000
  C   C1359     1.0  0.84175  0.53736  0.54470  1.0000
  C   C1360     1.0  0.89102  0.56700  0.55535  1.0000
  C   C1361     1.0  0.84581  0.57626  0.56050  1.0000
  C   C1362     1.0  0.89164  0.62410  0.54534  1.0000
  C   C1363     1.0  0.80947  0.53346  0.54112  1.0000
  C   C1364     1.0  0.88962  0.53720  0.56073  1.0000
  C   C1365     1.0  0.83325  0.55331  0.57050  1.0000
  H   H2319     1.0  0.87989  0.58486  0.53360  1.0000
  H   H2320     1.0  0.84913  0.59360  0.53785  1.0000
  H   H2321     1.0  0.83853  0.51761  0.55028  1.0000
  H   H2322     1.0  0.85256  0.53346  0.53656  1.0000
  H   H2323     1.0  0.90776  0.57207  0.54817  1.0000
  H   H2324     1.0  0.90208  0.58550  0.56217  1.0000
  H   H2325     1.0  0.86140  0.59793  0.56501  1.0000
  H   H2326     1.0  0.82718  0.58188  0.55695  1.0000
  H   H2327     1.0  0.83772  0.67331  0.49614  1.0000
  H   H2328     1.0  0.88108  0.63449  0.55167  1.0000
  H   H2329     1.0  0.94551  0.58406  0.46711  1.0000
  H   H2330     1.0  0.79559  0.53218  0.54899  1.0000
  N   N95       1.0  0.55738  0.49394  0.54551  1.0000
  H   H2331     1.0  0.51604  0.92151  0.60811  1.0000
  C   C1366     1.0  0.81555  0.67037  0.49217  1.0000
  H   H2332     1.0  0.70222  0.61011  0.48371  1.0000
  H   H2333     1.0  0.60337  0.92606  0.49896  1.0000
  H   H2334     1.0  0.62879  0.73454  0.65386  1.0000
  H   H2335     1.0  0.82443  0.52922  0.56739  1.0000
  H   H2336     1.0  0.68634  0.80947  0.63363  1.0000
  N   N96       1.0  0.91398  0.64765  0.69750  1.0000
  N   N97       1.0  0.64769  0.76642  0.63069  1.0000
  S   S392      1.0  0.94909  0.47892  0.52193  1.0000
  H   H2337     1.0  0.59863  0.72303  0.64274  1.0000
  C   C1367     1.0  0.88920  0.64104  0.68821  1.0000
  H   H2338     1.0  0.89933  0.67804  0.70751  1.0000
  H   H2339     1.0  0.68123  0.79663  0.61877  1.0000
  H   H2340     1.0  0.76050  0.66735  0.48923  1.0000
  C   C1368     1.0  0.89848  0.64299  0.67507  1.0000
  H   H2341     1.0  0.79633  0.63842  0.46764  1.0000
  H   H2342     1.0  0.50179  0.87440  0.58787  1.0000
  C   C1369     1.0  0.68593  0.96585  0.68512  1.0000
  H   H2343     1.0  0.60493  0.79303  0.69517  1.0000
  H   H2344     1.0  0.61636  0.78163  0.63944  1.0000
  H   H2345     1.0  0.69849  0.73125  0.62874  1.0000
  C   C1370     1.0  0.61929  0.88895  0.70651  1.0000
  H   H2346     1.0  0.58027  0.92548  0.47059  1.0000
  C   C1371     1.0  0.66584  0.74868  0.63420  1.0000
  H   H2347     1.0  0.65651  0.92820  0.47020  1.0000
  C   C1372     1.0  0.55560  0.91352  0.47211  1.0000
  H   H2348     1.0  0.60586  0.75783  0.62157  1.0000
  C   C1373     1.0  0.63322  0.75054  0.60839  1.0000
  H   H2349     1.0  0.66959  0.83995  0.61954  1.0000
  H   H2350     1.0  0.59821  0.89279  0.70667  1.0000
  H   H2351     1.0  0.64920  0.78730  0.64810  1.0000
  C   C1374     1.0  0.51557  0.91298  0.48624  1.0000
  H   H2352     1.0  0.87942  0.62596  0.66971  1.0000
  H   H2353     1.0  0.80504  0.68036  0.49870  1.0000
  H   H2354     1.0  0.46394  0.55648  0.61589  1.0000
  H   H2355     1.0  0.52201  0.51253  0.47498  1.0000
  H   H2356     1.0  0.46763  0.94841  0.63106  1.0000
  H   H2357     1.0  0.55025  0.88880  0.47076  1.0000
  C   C1375     1.0  0.55910  0.55215  0.65595  1.0000
  H   H2358     1.0  0.92337  0.70330  0.68712  1.0000
  H   H2359     1.0  0.75229  0.55111  0.47644  1.0000
  N   N98       1.0  0.54852  0.91974  0.48463  1.0000
  H   H2360     1.0  0.50794  0.92722  0.48063  1.0000
  C   C1376     1.0  0.52116  0.91614  0.59906  1.0000
  H   H2361     1.0  0.59426  0.82004  0.68821  1.0000
  H   H2362     1.0  0.60590  0.52282  0.56185  1.0000
  H   H2363     1.0  0.91846  0.63824  0.67324  1.0000
  H   H2364     1.0  0.56454  0.95550  0.49816  1.0000
  H   H2365     1.0  0.82024  0.68342  0.48390  1.0000
  H   H2366     1.0  0.54901  0.90157  0.50208  1.0000
  H   H2367     1.0  0.62237  0.69605  0.46535  1.0000
  H   H2368     1.0  0.48627  0.87094  0.60229  1.0000
  H   H2369     1.0  0.80914  0.55162  0.53535  1.0000
  H   H2370     1.0  0.95249  0.66752  0.68588  1.0000
  N   N99       1.0  0.52912  0.94297  0.59107  1.0000
  Fe  Fe195     1.0  0.95706  0.57126  0.49955  1.0000
  C   C1377     1.0  0.61935  0.95086  0.55917  1.0000
  H   H2371     1.0  0.67435  0.59307  0.46536  1.0000
  C   C1378     1.0  0.47033  0.49069  0.58950  1.0000
  H   H2372     1.0  0.64283  0.97345  0.59229  1.0000
  C   C1379     1.0  0.63567  0.60396  0.46634  1.0000
  C   C1380     1.0  0.91920  0.61947  0.70006  1.0000
  H   H2373     1.0  0.78014  0.66497  0.47048  1.0000
  H   H2374     1.0  0.94287  0.71555  0.70131  1.0000
  H   H2375     1.0  0.91156  0.59467  0.68290  1.0000
  H   H2376     1.0  0.92536  0.47502  0.48143  1.0000
  C   C1381     1.0  0.55957  0.48729  0.55842  1.0000
  C   C1382     1.0  0.77513  0.64019  0.47045  1.0000
  C   C1383     1.0  0.47445  0.90697  0.62919  1.0000
  H   H2377     1.0  0.47085  0.96433  0.60002  1.0000
  H   H2378     1.0  0.64529  0.84152  0.70710  1.0000
  H   H2379     1.0  0.46907  0.54386  0.66730  1.0000
  C   C1384     1.0  0.92982  0.60528  0.68971  1.0000
  C   C1385     1.0  0.63096  0.52406  0.46821  1.0000
  H   H2380     1.0  0.46984  0.87822  0.48315  1.0000
  N   N100      1.0  0.57288  0.50631  0.46596  1.0000
  H   H2381     1.0  0.59698  0.61483  0.46414  1.0000
  H   H2382     1.0  0.85654  0.62380  0.70830  1.0000
  H   H2383     1.0  0.89815  0.60073  0.70305  1.0000
  C   C1386     1.0  0.60577  0.48387  0.54217  1.0000
  H   H2384     1.0  0.62612  0.49822  0.54762  1.0000
  H   H2385     1.0  0.72795  0.61333  0.46302  1.0000
  H   H2386     1.0  0.57129  0.97138  0.57113  1.0000
  H   H2387     1.0  0.53036  0.93920  0.46400  1.0000
  C   C1387     1.0  0.64636  0.94260  0.46660  1.0000
  C   C1388     1.0  0.53886  0.92170  0.46187  1.0000
  C   C1389     1.0  0.56974  0.47808  0.47256  1.0000
  H   H2388     1.0  0.47752  0.47705  0.60681  1.0000
  H   H2389     1.0  0.61456  0.47824  0.53384  1.0000
  H   H2390     1.0  0.46302  0.48569  0.63873  1.0000
  H   H2391     1.0  0.53447  0.97265  0.56937  1.0000
  Fe  Fe196     1.0  0.70826  0.92260  0.73252  1.0000
  S   S393      1.0  0.66871  0.93510  0.73466  1.0000
  S   S394      1.0  0.69013  0.87145  0.72884  1.0000
  H   H2392     1.0  0.49194  0.91675  0.85737  1.0000
  S   S395      1.0  0.72976  0.95732  0.71861  1.0000
  Fe  Fe197     1.0  0.60596  0.89906  0.82933  1.0000
  S   S396      1.0  0.56091  0.86109  0.83310  1.0000
  S   S397      1.0  0.62572  0.89237  0.81160  1.0000
  Fe  Fe198     1.0  0.60993  0.92656  0.85485  1.0000
  S   S398      1.0  0.56463  0.89092  0.85993  1.0000
  C   C1390     1.0  0.47123  0.48725  0.83385  1.0000
  Fe  Fe199     1.0  0.58023  0.85803  0.85087  1.0000
  S   S399      1.0  0.58211  0.81775  0.86031  1.0000
  Fe  Fe200     1.0  0.54855  0.89721  0.84163  1.0000
  S   S400      1.0  0.50286  0.89403  0.83425  1.0000
  S   S401      1.0  0.62605  0.89318  0.84666  1.0000
  S   S402      1.0  0.59313  0.93562  0.83701  1.0000
  H   H2393     1.0  0.68299  0.76647  0.78856  1.0000
  H   H2394     1.0  0.83553  0.81521  0.75643  1.0000
  S   S403      1.0  0.93189  0.72669  0.72661  1.0000
  Fe  Fe201     1.0  0.73793  0.73719  0.73107  1.0000
  S   S404      1.0  0.68843  0.70796  0.72785  1.0000
  S   S405      1.0  0.76294  0.78853  0.73299  1.0000
  Fe  Fe202     1.0  0.75426  0.68351  0.73515  1.0000
  S   S406      1.0  0.70551  0.64971  0.73255  1.0000
  S   S407      1.0  0.79301  0.67116  0.74135  1.0000
  S   S408      1.0  0.74269  0.78005  0.96058  1.0000
  Fe  Fe203     1.0  0.69286  0.68190  0.74375  1.0000
  S   S409      1.0  0.65431  0.66966  0.75711  1.0000
  S   S410      1.0  0.75372  0.70933  0.71886  1.0000
  S   S411      1.0  0.74134  0.71324  0.74751  1.0000
  Fe  Fe204     1.0  0.60916  0.64134  0.82742  1.0000
  S   S412      1.0  0.55896  0.62430  0.82459  1.0000
  S   S413      1.0  0.64600  0.65215  0.81339  1.0000
  Fe  Fe205     1.0  0.60399  0.64265  0.85503  1.0000
  S   S414      1.0  0.55286  0.62574  0.85400  1.0000
  S   S415      1.0  0.63907  0.65914  0.87061  1.0000
  Fe  Fe206     1.0  0.55342  0.59238  0.83965  1.0000
  S   S416      1.0  0.52266  0.54133  0.83604  1.0000
  Fe  Fe207     1.0  0.56152  0.65840  0.83896  1.0000
  S   S417      1.0  0.53655  0.68783  0.83475  1.0000
  S   S418      1.0  0.60420  0.60717  0.84161  1.0000
  S   S419      1.0  0.61200  0.67760  0.84085  1.0000
  S   S420      1.0  0.67308  0.69538  0.95961  1.0000
  H   H2395     1.0  0.65137  0.72289  0.74476  1.0000
  C   C1391     1.0  0.74073  0.83612  0.95931  1.0000
  H   H2396     1.0  0.81888  0.74300  0.73993  1.0000
  H   H2397     1.0  0.63036  0.88348  0.92810  1.0000
  S   S421      1.0  0.73556  0.95356  0.74763  1.0000
  H   H2398     1.0  0.63459  0.55975  0.78660  1.0000
  Fe  Fe208     1.0  0.69663  0.92126  0.95596  1.0000
  S   S422      1.0  0.71993  0.94615  0.93981  1.0000
  H   H2399     1.0  0.87196  0.75971  0.73785  1.0000
  C   C1392     1.0  0.83622  0.78148  0.72280  1.0000
  H   H2400     1.0  0.96048  0.52382  0.86976  1.0000
  C   C1393     1.0  0.65590  0.74571  0.77216  1.0000
  H   H2401     1.0  0.55267  0.52822  0.81542  1.0000
  Fe  Fe209     1.0  0.68114  0.67566  0.94230  1.0000
  S   S423      1.0  0.64419  0.66054  0.92757  1.0000
  S   S424      1.0  0.72903  0.70998  0.94063  1.0000
  C   C1394     1.0  0.61996  0.94786  0.88965  1.0000
  C   C1395     1.0  0.72936  0.77339  0.76588  1.0000
  H   H2402     1.0  0.72389  0.61265  0.93573  1.0000
  H   H2403     1.0  0.80354  0.76543  0.74787  1.0000
  C   C1396     1.0  0.67302  0.74439  0.78358  1.0000
  H   H2404     1.0  0.64983  0.90193  0.87688  1.0000
  H   H2405     1.0  0.62500  0.73584  0.73842  1.0000
  H   H2406     1.0  0.55701  0.89874  0.78203  1.0000
  C   C1397     1.0  0.88280  0.84277  0.75371  1.0000
  C   C1398     1.0  0.62365  0.56923  0.80477  1.0000
  C   C1399     1.0  0.72373  0.80465  0.96062  1.0000
  C   C1400     1.0  0.63963  0.65966  0.88647  1.0000
  C   C1401     1.0  0.61361  0.64494  0.89305  1.0000
  C   C1402     1.0  0.61550  0.64553  0.90558  1.0000
  C   C1403     1.0  0.64332  0.66086  0.91174  1.0000
  C   C1404     1.0  0.66926  0.67613  0.90518  1.0000
  C   C1405     1.0  0.66744  0.67528  0.89265  1.0000
  H   H2407     1.0  0.59204  0.63288  0.88849  1.0000
  H   H2408     1.0  0.59519  0.63383  0.91053  1.0000
  H   H2409     1.0  0.69069  0.68857  0.90976  1.0000
  H   H2410     1.0  0.68771  0.68690  0.88767  1.0000
  C   C1406     1.0  0.65274  0.66524  0.77279  1.0000
  C   C1407     1.0  0.62522  0.65917  0.77847  1.0000
  C   C1408     1.0  0.62278  0.65569  0.79088  1.0000
  C   C1409     1.0  0.64786  0.65798  0.79779  1.0000
  C   C1410     1.0  0.67542  0.66430  0.79212  1.0000
  C   C1411     1.0  0.67791  0.66798  0.77973  1.0000
  H   H2411     1.0  0.60558  0.65708  0.77322  1.0000
  H   H2412     1.0  0.60146  0.65104  0.79506  1.0000
  H   H2413     1.0  0.69499  0.66608  0.79735  1.0000
  H   H2414     1.0  0.69924  0.67263  0.77554  1.0000
  H   H2415     1.0  0.59828  0.93900  0.88499  1.0000
  H   H2416     1.0  0.66184  0.58840  0.93117  1.0000
  C   C1412     1.0  0.66179  0.59286  0.92155  1.0000
  C   C1413     1.0  0.89318  0.70943  0.73054  1.0000
  C   C1414     1.0  0.87164  0.71464  0.72350  1.0000
  C   C1415     1.0  0.84089  0.70294  0.72660  1.0000
  C   C1416     1.0  0.83128  0.68574  0.73678  1.0000
  C   C1417     1.0  0.85272  0.67995  0.74367  1.0000
  C   C1418     1.0  0.88348  0.69173  0.74059  1.0000
  S   S425      1.0  0.77842  0.66107  0.94656  1.0000
  H   H2417     1.0  0.82465  0.70729  0.72113  1.0000
  H   H2418     1.0  0.84552  0.66654  0.75153  1.0000
  H   H2419     1.0  0.89972  0.68752  0.74611  1.0000
  C   C1419     1.0  0.56818  0.78129  0.85343  1.0000
  C   C1420     1.0  0.57974  0.76038  0.85711  1.0000
  C   C1421     1.0  0.56988  0.73143  0.85154  1.0000
  C   C1422     1.0  0.54795  0.72308  0.84242  1.0000
  C   C1423     1.0  0.53591  0.74378  0.83892  1.0000
  C   C1424     1.0  0.54624  0.77298  0.84432  1.0000
  H   H2420     1.0  0.59666  0.76669  0.86418  1.0000
  H   H2421     1.0  0.57919  0.71555  0.85430  1.0000
  H   H2422     1.0  0.51884  0.73732  0.83190  1.0000
  H   H2423     1.0  0.53699  0.78888  0.84155  1.0000
  H   H2424     1.0  0.74941  0.57654  0.93577  1.0000
  H   H2425     1.0  0.63489  0.77369  0.75551  1.0000
  H   H2426     1.0  0.48119  0.88887  0.80023  1.0000
  H   H2427     1.0  0.69177  0.73551  0.75761  1.0000
  C   C1425     1.0  0.59332  0.53174  0.82449  1.0000
  C   C1426     1.0  0.83043  0.71101  0.95394  1.0000
  H   H2428     1.0  0.81609  0.72300  0.95538  1.0000
  C   C1427     1.0  0.48386  0.51718  0.83878  1.0000
  N   N101      1.0  0.55226  0.92459  0.79729  1.0000
  C   C1428     1.0  0.47110  0.89842  0.84039  1.0000
  H   H2429     1.0  0.85181  0.77038  0.72101  1.0000
  C   C1429     1.0  0.57062  0.95531  0.80315  1.0000
  H   H2430     1.0  0.55218  0.51758  0.79537  1.0000
  C   C1430     1.0  0.71157  0.84951  0.72944  1.0000
  C   C1431     1.0  0.69712  0.81824  0.72651  1.0000
  C   C1432     1.0  0.71279  0.79942  0.72741  1.0000
  C   C1433     1.0  0.74309  0.81181  0.73120  1.0000
  C   C1434     1.0  0.75774  0.84320  0.73393  1.0000
  C   C1435     1.0  0.74200  0.86205  0.73307  1.0000
  H   H2431     1.0  0.64435  0.95819  0.80792  1.0000
  H   H2432     1.0  0.70141  0.77534  0.72519  1.0000
  H   H2433     1.0  0.78123  0.85294  0.73684  1.0000
  H   H2434     1.0  0.75328  0.88615  0.73535  1.0000
  C   C1436     1.0  0.66495  0.95287  0.77925  1.0000
  C   C1437     1.0  0.64210  0.91674  0.79953  1.0000
  C   C1438     1.0  0.64821  0.94785  0.79989  1.0000
  C   C1439     1.0  0.54497  0.57022  0.79983  1.0000
  C   C1440     1.0  0.67810  0.81400  0.96102  1.0000
  H   H2435     1.0  0.69043  0.73558  0.78171  1.0000
  H   H2436     1.0  0.63956  0.72134  0.94327  1.0000
  N   N102      1.0  0.68613  0.77514  0.92344  1.0000
  C   C1441     1.0  0.66264  0.77004  0.91378  1.0000
  C   C1442     1.0  0.69120  0.80427  0.93018  1.0000
  C   C1443     1.0  0.67591  0.74928  0.93200  1.0000
  C   C1444     1.0  0.71489  0.77695  0.91786  1.0000
  C   C1445     1.0  0.65217  0.73946  0.90675  1.0000
  C   C1446     1.0  0.70404  0.83381  0.92307  1.0000
  C   C1447     1.0  0.64434  0.74074  0.93726  1.0000
  C   C1448     1.0  0.74310  0.78749  0.92619  1.0000
  H   H2437     1.0  0.64222  0.77197  0.91738  1.0000
  H   H2438     1.0  0.67132  0.78808  0.90707  1.0000
  H   H2439     1.0  0.70669  0.80758  0.93790  1.0000
  H   H2440     1.0  0.66977  0.80319  0.93399  1.0000
  H   H2441     1.0  0.67611  0.72818  0.92784  1.0000
  H   H2442     1.0  0.69196  0.75466  0.93973  1.0000
  H   H2443     1.0  0.71184  0.75423  0.91413  1.0000
  H   H2444     1.0  0.72077  0.79236  0.91018  1.0000
  H   H2445     1.0  0.67092  0.73744  0.90183  1.0000
  H   H2446     1.0  0.64160  0.71950  0.91245  1.0000
  H   H2447     1.0  0.63467  0.73813  0.90003  1.0000
  H   H2448     1.0  0.70812  0.85351  0.92923  1.0000
  H   H2449     1.0  0.72602  0.83777  0.91906  1.0000
  H   H2450     1.0  0.68784  0.83418  0.91613  1.0000
  H   H2451     1.0  0.62597  0.73280  0.93041  1.0000
  H   H2452     1.0  0.64317  0.75967  0.94267  1.0000
  H   H2453     1.0  0.75073  0.81160  0.92925  1.0000
  H   H2454     1.0  0.76213  0.78583  0.92132  1.0000
  H   H2455     1.0  0.73942  0.77300  0.93402  1.0000
  H   H2456     1.0  0.55414  0.83980  0.88312  1.0000
  H   H2457     1.0  0.54086  0.59044  0.79727  1.0000
  C   C1449     1.0  0.55656  0.96448  0.81387  1.0000
  H   H2458     1.0  0.67359  0.80847  0.72366  1.0000
  S   S426      1.0  0.91999  0.73021  0.95798  1.0000
  N   N103      1.0  0.67383  0.76817  0.76304  1.0000
  C   C1450     1.0  0.57022  0.92035  0.78710  1.0000
  H   H2459     1.0  0.65775  0.82590  0.88610  1.0000
  H   H2460     1.0  0.51414  0.90586  0.78499  1.0000
  H   H2461     1.0  0.66488  0.78088  0.74552  1.0000
  C   C1451     1.0  0.69928  0.76067  0.75855  1.0000
  N   N104      1.0  0.62698  0.80294  0.82131  1.0000
  C   C1452     1.0  0.62636  0.82356  0.83144  1.0000
  C   C1453     1.0  0.60656  0.80467  0.81141  1.0000
  C   C1454     1.0  0.65851  0.81271  0.81669  1.0000
  C   C1455     1.0  0.61653  0.77088  0.82571  1.0000
  C   C1456     1.0  0.64794  0.82651  0.84205  1.0000
  C   C1457     1.0  0.57254  0.79228  0.81411  1.0000
  C   C1458     1.0  0.67460  0.84655  0.81334  1.0000
  C   C1459     1.0  0.61156  0.74565  0.81621  1.0000
  H   H2462     1.0  0.63102  0.84687  0.82835  1.0000
  H   H2463     1.0  0.60339  0.81542  0.83515  1.0000
  H   H2464     1.0  0.60901  0.79262  0.80325  1.0000
  H   H2465     1.0  0.61314  0.82871  0.80884  1.0000
  H   H2466     1.0  0.67342  0.80793  0.82319  1.0000
  H   H2467     1.0  0.65831  0.79913  0.80858  1.0000
  H   H2468     1.0  0.63300  0.76917  0.83231  1.0000
  H   H2469     1.0  0.59515  0.76445  0.83054  1.0000
  H   H2470     1.0  0.67197  0.83576  0.83953  1.0000
  H   H2471     1.0  0.64584  0.84267  0.84876  1.0000
  H   H2472     1.0  0.64171  0.80454  0.84657  1.0000
  H   H2473     1.0  0.56791  0.80572  0.82128  1.0000
  H   H2474     1.0  0.56005  0.79437  0.80609  1.0000
  H   H2475     1.0  0.56282  0.76782  0.81634  1.0000
  H   H2476     1.0  0.69746  0.85086  0.81006  1.0000
  H   H2477     1.0  0.67799  0.86244  0.82101  1.0000
  H   H2478     1.0  0.66245  0.85248  0.80610  1.0000
  H   H2479     1.0  0.59310  0.74308  0.80980  1.0000
  H   H2480     1.0  0.60449  0.72342  0.82068  1.0000
  H   H2481     1.0  0.63249  0.74932  0.81141  1.0000
  H   H2482     1.0  0.56197  0.95137  0.77464  1.0000
  H   H2483     1.0  0.53272  0.55184  0.79318  1.0000
  H   H2484     1.0  0.61090  0.50966  0.80022  1.0000
  C   C1460     1.0  0.64655  0.95974  0.88321  1.0000
  H   H2485     1.0  0.58607  0.49028  0.78842  1.0000
  C   C1461     1.0  0.53370  0.86695  0.80097  1.0000
  C   C1462     1.0  0.86816  0.68043  0.95022  1.0000
  H   H2486     1.0  0.58683  0.58606  0.79080  1.0000
  H   H2487     1.0  0.86863  0.64546  0.72182  1.0000
  C   C1463     1.0  0.64926  0.95967  0.90840  1.0000
  H   H2488     1.0  0.68763  0.90948  0.88114  1.0000
  C   C1464     1.0  0.57733  0.52841  0.79526  1.0000
  H   H2489     1.0  0.70419  0.61944  0.89203  1.0000
  H   H2490     1.0  0.57611  0.56501  0.82128  1.0000
  C   C1465     1.0  0.58718  0.50208  0.79709  1.0000
  H   H2491     1.0  0.59076  0.91795  0.79044  1.0000
  H   H2492     1.0  0.89573  0.79908  0.73778  1.0000
  C   C1466     1.0  0.52239  0.92295  0.79246  1.0000
  Fe  Fe210     1.0  0.68402  0.96461  0.93913  1.0000
  C   C1467     1.0  0.54872  0.89998  0.80599  1.0000
  H   H2493     1.0  0.75125  0.65293  0.89682  1.0000
  H   H2494     1.0  0.76613  0.68589  0.90634  1.0000
  H   H2495     1.0  0.88075  0.61584  0.71895  1.0000
  C   C1468     1.0  0.64796  0.90398  0.78903  1.0000
  C   C1469     1.0  0.65938  0.92188  0.77898  1.0000
  H   H2496     1.0  0.65723  0.91004  0.89818  1.0000
  S   S427      1.0  0.64577  0.96075  0.86745  1.0000
  C   C1470     1.0  0.49583  0.91365  0.80116  1.0000
  C   C1471     1.0  0.87876  0.78118  0.74318  1.0000
  H   H2497     1.0  0.58960  0.93777  0.77009  1.0000
  N   N105      1.0  0.85166  0.78846  0.74514  1.0000
  C   C1472     1.0  0.82372  0.75993  0.74738  1.0000
  C   C1473     1.0  0.62628  0.83227  0.89858  1.0000
  Fe  Fe211     1.0  0.74295  0.67878  0.95144  1.0000
  H   H2498     1.0  0.73831  0.75554  0.76631  1.0000
  H   H2499     1.0  0.53492  0.56364  0.80867  1.0000
  H   H2500     1.0  0.66351  0.91166  0.77096  1.0000
  H   H2501     1.0  0.90304  0.75883  0.75272  1.0000
  H   H2502     1.0  0.70530  0.76932  0.74944  1.0000
  H   H2503     1.0  0.74685  0.79274  0.76129  1.0000
  H   H2504     1.0  0.54993  0.86125  0.79570  1.0000
  C   C1474     1.0  0.63982  0.57929  0.79291  1.0000
  H   H2505     1.0  0.84071  0.73162  0.75769  1.0000
  C   C1475     1.0  0.89629  0.77808  0.75429  1.0000
  H   H2506     1.0  0.51312  0.86274  0.79553  1.0000
  H   H2507     1.0  0.56831  0.81444  0.88937  1.0000
  S   S428      1.0  0.69533  0.64279  0.95178  1.0000
  H   H2508     1.0  0.82838  0.75603  0.76683  1.0000
  C   C1476     1.0  0.56902  0.83774  0.89032  1.0000
  Fe  Fe212     1.0  0.72197  0.72825  0.95838  1.0000
  H   H2509     1.0  0.64189  0.59818  0.91974  1.0000
  C   C1477     1.0  0.65544  0.88745  0.89486  1.0000
  C   C1478     1.0  0.82432  0.74219  0.75852  1.0000
  H   H2510     1.0  0.48507  0.47953  0.82844  1.0000
  H   H2511     1.0  0.64423  0.83360  0.90506  1.0000
  H   H2512     1.0  0.91785  0.79864  0.75561  1.0000
  H   H2513     1.0  0.80184  0.72288  0.75933  1.0000
  H   H2514     1.0  0.88374  0.77331  0.76262  1.0000
  C   C1479     1.0  0.85645  0.81127  0.75518  1.0000
  H   H2515     1.0  0.53567  0.90115  0.81375  1.0000
  H   H2516     1.0  0.68572  0.82916  0.75311  1.0000
  H   H2517     1.0  0.59010  0.60006  0.80567  1.0000
  H   H2518     1.0  0.88260  0.66859  0.94867  1.0000
  S   S429      1.0  0.67597  0.86980  0.95868  1.0000
  H   H2519     1.0  0.90400  0.84097  0.75116  1.0000
  Fe  Fe213     1.0  0.70404  0.67775  0.71681  1.0000
  C   C1480     1.0  0.70148  0.82597  0.75963  1.0000
  H   H2520     1.0  0.64334  0.87999  0.78861  1.0000
  C   C1481     1.0  0.81776  0.68077  0.94968  1.0000
  H   H2521     1.0  0.86035  0.80277  0.76380  1.0000
  H   H2522     1.0  0.87688  0.85642  0.74712  1.0000
  H   H2523     1.0  0.81266  0.76402  0.72332  1.0000
  H   H2524     1.0  0.63170  0.58946  0.81095  1.0000
  H   H2525     1.0  0.82722  0.64224  0.94446  1.0000
  H   H2526     1.0  0.63304  0.55392  0.80868  1.0000
  H   H2527     1.0  0.63474  0.59731  0.78869  1.0000
  H   H2528     1.0  0.61525  0.54965  0.82775  1.0000
  C   C1482     1.0  0.72651  0.85643  0.95872  1.0000
  H   H2529     1.0  0.88735  0.85583  0.76227  1.0000
  H   H2530     1.0  0.61061  0.89113  0.90916  1.0000
  H   H2531     1.0  0.59973  0.88501  0.88888  1.0000
  C   C1483     1.0  0.66390  0.89227  0.88169  1.0000
  H   H2532     1.0  0.62330  0.82379  0.87908  1.0000
  H   H2533     1.0  0.77222  0.61193  0.92953  1.0000
  C   C1484     1.0  0.62134  0.94825  0.90214  1.0000
  H   H2534     1.0  0.73986  0.88054  0.95761  1.0000
  H   H2535     1.0  0.66090  0.89782  0.91826  1.0000
  C   C1485     1.0  0.67453  0.97197  0.88947  1.0000
  H   H2536     1.0  0.61746  0.71844  0.75251  1.0000
  H   H2537     1.0  0.69930  0.58190  0.88765  1.0000
  H   H2538     1.0  0.59496  0.85208  0.91277  1.0000
  H   H2539     1.0  0.72628  0.66757  0.90395  1.0000
  H   H2540     1.0  0.70326  0.57629  0.92884  1.0000
  H   H2541     1.0  0.66466  0.58936  0.79466  1.0000
  S   S430      1.0  0.65988  0.93817  0.95484  1.0000
  C   C1486     1.0  0.74685  0.66324  0.90505  1.0000
  C   C1487     1.0  0.84560  0.80237  0.73403  1.0000
  C   C1488     1.0  0.61597  0.87078  0.90970  1.0000
  H   H2542     1.0  0.55908  0.84050  0.89880  1.0000
  H   H2543     1.0  0.71257  0.84793  0.76471  1.0000
  H   H2544     1.0  0.74819  0.65825  0.92393  1.0000
  C   C1489     1.0  0.60123  0.86252  0.88879  1.0000
  C   C1490     1.0  0.74586  0.64375  0.91582  1.0000
  H   H2545     1.0  0.76709  0.64023  0.91546  1.0000
  H   H2546     1.0  0.72790  0.78019  0.77516  1.0000
  C   C1491     1.0  0.69685  0.59590  0.89516  1.0000
  H   H2547     1.0  0.68549  0.63015  0.91027  1.0000
  H   H2548     1.0  0.73831  0.59674  0.90273  1.0000
  H   H2549     1.0  0.62216  0.79312  0.88748  1.0000
  H   H2550     1.0  0.67234  0.58683  0.89702  1.0000
  N   N106      1.0  0.71852  0.61381  0.91664  1.0000
  C   C1492     1.0  0.69095  0.62040  0.91830  1.0000
  C   C1493     1.0  0.71553  0.59319  0.90597  1.0000
  H   H2551     1.0  0.69528  0.63831  0.92537  1.0000
  H   H2552     1.0  0.75278  0.57845  0.92001  1.0000
  C   C1494     1.0  0.68448  0.80018  0.76820  1.0000
  H   H2553     1.0  0.67391  0.88364  0.89955  1.0000
  C   C1495     1.0  0.72285  0.59850  0.92766  1.0000
  C   C1496     1.0  0.75102  0.59112  0.92806  1.0000
  H   H2554     1.0  0.70478  0.56873  0.90838  1.0000
  H   H2555     1.0  0.71937  0.82200  0.75485  1.0000
  H   H2556     1.0  0.65854  0.57187  0.91638  1.0000
  C   C1497     1.0  0.88084  0.71069  0.95445  1.0000
  C   C1498     1.0  0.63301  0.81842  0.88715  1.0000
  N   N107      1.0  0.62486  0.86289  0.89772  1.0000
  H   H2557     1.0  0.60728  0.85952  0.87959  1.0000
  H   H2558     1.0  0.64465  0.85775  0.92198  1.0000
  C   C1499     1.0  0.67594  0.97163  0.90199  1.0000
  H   H2559     1.0  0.64661  0.72202  0.76841  1.0000
  H   H2560     1.0  0.60530  0.81501  0.90238  1.0000
  C   C1500     1.0  0.58068  0.94569  0.77787  1.0000
  C   C1501     1.0  0.57943  0.57902  0.79996  1.0000
  H   H2561     1.0  0.69934  0.80398  0.77613  1.0000
  H   H2562     1.0  0.65678  0.72771  0.78957  1.0000
  H   H2563     1.0  0.57118  0.90329  0.80984  1.0000
  H   H2564     1.0  0.63596  0.75011  0.77480  1.0000
  H   H2565     1.0  0.87147  0.74940  0.95945  1.0000
  S   S431      1.0  0.94847  0.66140  0.95584  1.0000
  C   C1502     1.0  0.63963  0.87765  0.91993  1.0000
  C   C1503     1.0  0.63583  0.73376  0.74690  1.0000
  H   H2566     1.0  0.60055  0.93942  0.90700  1.0000
  H   H2567     1.0  0.82758  0.81073  0.73551  1.0000
  C   C1504     1.0  0.57667  0.54519  0.81618  1.0000
  H   H2568     1.0  0.47482  0.54938  0.84975  1.0000
  Fe  Fe214     1.0  0.69163  0.97131  0.72144  1.0000
  H   H2569     1.0  0.87884  0.72822  0.71568  1.0000
  H   H2570     1.0  0.52687  0.85097  0.80845  1.0000
  H   H2571     1.0  0.86600  0.82277  0.73160  1.0000
  C   C1505     1.0  0.47173  0.91026  0.85185  1.0000
  C   C1506     1.0  0.65253  0.76573  0.75277  1.0000
  C   C1507     1.0  0.83678  0.66559  0.94780  1.0000
  N   N108      1.0  0.58952  0.55484  0.80406  1.0000
  H   H2572     1.0  0.66488  0.80434  0.77149  1.0000
  H   H2573     1.0  0.66248  0.87138  0.87698  1.0000
  H   H2574     1.0  0.58218  0.53613  0.78598  1.0000
  H   H2575     1.0  0.92307  0.66507  0.71571  1.0000
  C   C1508     1.0  0.86184  0.72593  0.95622  1.0000
  Fe  Fe215     1.0  0.69680  0.96781  0.74901  1.0000
  H   H2576     1.0  0.48106  0.92534  0.79873  1.0000
  H   H2577     1.0  0.50228  0.91965  0.81059  1.0000
  H   H2578     1.0  0.57940  0.52300  0.83244  1.0000
  H   H2579     1.0  0.95139  0.55535  0.87333  1.0000
  H   H2580     1.0  0.52534  0.94519  0.78866  1.0000
  H   H2581     1.0  0.83654  0.79543  0.71502  1.0000
  C   C1509     1.0  0.69511  0.84543  0.95955  1.0000
  H   H2582     1.0  0.95598  0.63503  0.89542  1.0000
  C   C1510     1.0  0.65929  0.96566  0.78978  1.0000
  Fe  Fe216     1.0  0.95506  0.71001  0.95943  1.0000
  H   H2583     1.0  0.57198  0.48527  0.80331  1.0000
  H   H2584     1.0  0.59689  0.51248  0.82039  1.0000
  H   H2585     1.0  0.95547  0.61098  0.75199  1.0000
  C   C1511     1.0  0.46555  0.52660  0.84581  1.0000
  H   H2586     1.0  0.55019  0.94754  0.82096  1.0000
  S   S432      1.0  0.64905  0.95730  0.92414  1.0000
  H   H2587     1.0  0.76506  0.84481  0.95862  1.0000
  C   C1512     1.0  0.87592  0.63398  0.71466  1.0000
  H   H2588     1.0  0.59317  0.95664  0.80612  1.0000
  H   H2589     1.0  0.53685  0.96914  0.81112  1.0000
  H   H2590     1.0  0.61635  0.86968  0.71233  1.0000
  H   H2591     1.0  0.59977  0.96656  0.78139  1.0000
  H   H2592     1.0  0.57517  0.97401  0.79682  1.0000
