data_image0
_chemical_formula_structural       CFeS2FeS2Fe2S3FeHFeHSC2S2FeS2FeS2FeSFeHS2FeSFeS2FeSFeS3C6H5C4SH2C7H5C5FeHC2H2C6H5C6H4NC6H13CHNC7H8NH14CH10NCHSH5CHCH2CH2C2H8CHCH3C2HCHC3H3CH2NHC2HCH3NH3CH2CH4C3H2SH3CH2CH3CSH4CH6NH2C2H6FeHCH4C2HCH2CH2CH3CH4C2H3CHC3HNSHCHNHCH9C2H4S2HFeS2FeSHFeSFeS3FeS2FeS2FeSFeS2CHCH2C6H4C6H3C3H3CHC6H3C7H4C2H3CHCH3CSH2CH3CHCH2C4HC2H3CH3C2HC2H4C2HNH4NH4SCNCH6CHCH3C2H7CHSCH11C2H4CH2C2HCH3CH7CH5NHCSFeS2FeS2Fe2S3FeSHFeS2Fe2S3FeS2FeHFeNS2FeS2FeS2FeSFeS2C7H4C6H4C6H4C2HC3SH3C6H5NHC6H6C2H2CH4CH2NHCHCH2SHC3H2CHCH3CH4CH3CH6SCH3CH4CH6C2H2FeH8CNCH5NC5HC2H11CH8NC8H20C2H3C4SH5CSH2CHC2H3CH7CH2C2NH6FeS2FeHFeSFeS3FeSFeS2FeSFeS3CHS2CHC3HC2H4C6H4C6H4C6H4CHC2H4C5H2CNHCHCH3CH3CHCHCH4CH3CSNHCNC2HC2HCHC3H3CHSC2H2NC4HCHCH15SH10CH3C2H2SH6C2H3CH2NCHC3H3C2H2CH6CH3FeSFeS2FeSFeS3Fe2S2CHS2FeS2FeSFeSFeS3FeS2FeSHFeSFeCS2HC6H4NCHC2HNHC6H4C6H4C6H9C4H7CH2CH4C2H3C2H2CH3CHCH3CH3NHNC2H11CHCH3CH2NC4HCHCH9CH2CH7NC7H12CH4CH2CH2CH4CH2C2H2CHFeCH2CHCH2FeCH10SH4CHC3HCH3CH2NCSHCHCH3CH4C3H3SH4CHFeSFeS2FeSFeS3FeS2FeS2FeSFeS2CH4C4HC2H4CNHCH3C7H3C6H5C4H5C6H10CNSCH4CH2CH2CHSCH3C2H3C2H2CHCH7NC7H6C2H6NC2H3CHCH8SHCH4CH5CHCH2CHCH2NH2CH4CH9CHC3SCHCH4CNCHCHC4H3C2H4SH5C3SH3C3FeS2FeSFeSFeS3FeS2FeS2Fe2S4FeSCFeSFeSFeSFeS2FeSFeHS3CHC4H2C6H4C6H6C7H4C6H4CHC4H9CH4C2H4C3H2SHC2HCNH2CH4CHNHC3HCH2CHC2HCHCH8CH9C2H3CNCH2CHN2CHNC5H9CH2CH3NH2C2H6C2H2CH3FeCH23CH7CHC2H2CHSH6C2HSHCH3CHCH2CH2C3H2C2SFeS2FeSFeSFeS3FeS2FeS2Fe2S3H8C6HCH2C6H4C2HNHC6HCH2CHC6H4C6H6CH2C3NH2CHCH7C2HCH3C2H2CH2C2H5CH3CH5CHCHCHCH4C2SHCH2CH9CH10CNHC3H9C2H2NH2CNC3H2CHCH4SH3C2H3SCH5CH3CH3SH3SFeSFeS2FeSFeS3FeS2FeS2Fe2S3H2SH2C3H2CHCHC6H4C2HCHC6H2CHC6H4C6H4NC8H10CH4C3H2C2H2CH4CH6CH3CHCNCH7CH4CH7CH4CH7C2H2CHCHN2CH3CH3CH6CHCH3C4H3FeS2FeS2FeSFeS2FeS2FeS2FeSFeS2FeS2FeS2FeCFeS3FeSFeSCFeHFeS2HC6HCH2C6H4C6H4CHCSHC3H2CH3C7H4C6H8SH3CH2CH8CNCH2SH8C2H3CHNHCH5NC8H16CH2CHC2HNSH2CH2CH3CNC2H2C3H3CH11CH4CHCH2CHCH9C6H4CH5CHNCH2CH2NC8H19CHCH7SH2SH4CH6C2SCHSHFeS2FeSFeSFeS3FeS2FeS2Fe2S3H2SC3H2CH2CHC3H2C8H4C6H4C6H3NC6H7CH2C3H10CHCHCH3C2H8CH2C2HNH4CH2CHCH2CHCH3C2HSCH2CNH3CH4C2H2CH8CH6CH2CH2CH2C3NCH5C2H6NCH2CH3C4HCH2FeSFeS2FeSFeS3FeSHFeS2FeSFeS2FeSNHSFeHFeS2FeS2FeSFeSFeS4H2C6H4C6H4C6HCH2C6H4C6H4C6H5C3HCSH5NH4CH4CH4NHC3HC2HS2H4CH3CH9CH3FeH7NC8H20C4H10NC8H23C2H2CH5C3H6C3HCH2C2SHC4HSH2CHSC2HCH4NH2CNH2CSH2FeS2FeSFeSFeS3FeS2FeS2Fe2S3HSC7H4C4HC6H3C7H4C6H4C6H4NCH13CH4CHCH4CH4CH7C2HCH9CHCH7C2NSHSCHCH2CH2SH3C2HC2H2C2H2NH4C2HCH2CH2CH2CHCHNH2C3SNCH2CH7C2H2CH4CHSFeS2FeS2Fe2S3FeSHFeS2FeSFeHS2FeSFeS2FeSFeS3FeS2FeHFeHS2C6H4C6H4C6H3C6H6C9H4C2HCHC2HCH2NC8H20NSC3H2CSH8CH10CH2CHNHC5HCH5FeH6CHNC8H20CH4CHSH3CNH3CH2CH8C3H2C2HSHCH2CHCH5FeS2FeS2Fe2S3FeSFeS2FeSFeS3C2SC7H4CH4C4HCH2CHC6H4C6H4C6H4CH13CNHSH3C3H2CHCNC6H19CH6CHCHCH2C2H5CH3SNH7CH3CH3CH3CNCH8CHCH2C3H2NHCH2C3H2CSH4C2H6CH2CHCHCH3CSH2SFeSFeS2FeSFeS3FeSFeS2FeHFeS3FeS2Fe2H2S2FeS2FeS2Fe2S3C6H4C4HCH2CHC6H6C9H4C6H4C8H2NC3H13CH2NC8H10CH11C4H2SH8NH2CH3C2H3CH6C2H2CHNC4HCH3CH8C2H3SH2CHNCHC2H2CHSH2C2HCH2CH3CH2CFeH5CH5NH3CH5SCH5CH5CH4CH6CHCH2NHCHC3HCH2NH8CHCHCH2C
_chemical_formula_sum              "C1344 Fe192 S384 H2304 N96"
_cell_length_a       60.8059
_cell_length_b       60.7748
_cell_length_c       60.6992
_cell_angle_alpha    88.6201
_cell_angle_beta     88.5048
_cell_angle_gamma    88.5802

_space_group_name_H-M_alt    "P 1"
_space_group_IT_number       1

loop_
  _space_group_symop_operation_xyz
  'x, y, z'

loop_
  _atom_site_type_symbol
  _atom_site_label
  _atom_site_symmetry_multiplicity
  _atom_site_fract_x
  _atom_site_fract_y
  _atom_site_fract_z
  _atom_site_occupancy
  C   C1        1.0  0.30419  0.21203  0.05275  1.0000
  Fe  Fe1       1.0  0.36559  0.37634  0.07666  1.0000
  S   S1        1.0  0.37126  0.40873  0.05964  1.0000
  S   S2        1.0  0.39242  0.35753  0.09564  1.0000
  Fe  Fe2       1.0  0.31755  0.37489  0.06134  1.0000
  S   S3        1.0  0.32041  0.40801  0.04350  1.0000
  S   S4        1.0  0.28373  0.35891  0.05885  1.0000
  Fe  Fe3       1.0  0.35337  0.39536  0.03112  1.0000
  Fe  Fe4       1.0  0.33784  0.41888  0.07368  1.0000
  S   S5        1.0  0.33778  0.45349  0.08793  1.0000
  S   S6        1.0  0.34975  0.36182  0.04731  1.0000
  S   S7        1.0  0.33295  0.38682  0.09232  1.0000
  Fe  Fe5       1.0  0.04418  0.17332  0.21222  1.0000
  H   H1        1.0  0.06224  0.26340  0.23129  1.0000
  Fe  Fe6       1.0  0.08965  0.19488  0.21294  1.0000
  H   H2        1.0  0.07952  0.10835  0.18733  1.0000
  S   S8        1.0  0.12137  0.20678  0.19693  1.0000
  C   C2        1.0  0.25793  0.18249  0.04818  1.0000
  C   C3        1.0  0.28302  0.09964  0.21370  1.0000
  S   S9        1.0  0.07907  0.16020  0.20913  1.0000
  S   S10       1.0  0.05506  0.20869  0.21265  1.0000
  Fe  Fe7       1.0  0.24539  0.05393  0.21046  1.0000
  S   S11       1.0  0.21663  0.03232  0.20423  1.0000
  S   S12       1.0  0.27671  0.04056  0.22761  1.0000
  Fe  Fe8       1.0  0.22628  0.09062  0.17994  1.0000
  S   S13       1.0  0.19649  0.07171  0.17121  1.0000
  S   S14       1.0  0.23274  0.12622  0.17021  1.0000
  Fe  Fe9       1.0  0.19527  0.06311  0.20748  1.0000
  S   S15       1.0  0.16368  0.06013  0.22781  1.0000
  Fe  Fe10      1.0  0.21974  0.04224  0.16838  1.0000
  H   H3        1.0  0.06817  0.11388  0.22278  1.0000
  S   S16       1.0  0.22363  0.08380  0.21657  1.0000
  S   S17       1.0  0.24985  0.06223  0.17422  1.0000
  Fe  Fe11      1.0  0.17564  0.22716  0.03064  1.0000
  S   S18       1.0  0.17688  0.25749  0.05140  1.0000
  Fe  Fe12      1.0  0.19544  0.19796  0.06760  1.0000
  S   S19       1.0  0.19741  0.22576  0.09095  1.0000
  S   S20       1.0  0.20529  0.16247  0.07554  1.0000
  Fe  Fe13      1.0  0.16381  0.23534  0.07886  1.0000
  S   S21       1.0  0.13268  0.24346  0.09868  1.0000
  Fe  Fe14      1.0  0.21070  0.24552  0.06157  1.0000
  S   S22       1.0  0.24459  0.26145  0.06444  1.0000
  S   S23       1.0  0.16083  0.20598  0.05755  1.0000
  S   S24       1.0  0.21034  0.21671  0.03873  1.0000
  C   C4        1.0  0.21284  0.15293  0.10204  1.0000
  C   C5        1.0  0.21433  0.13015  0.10631  1.0000
  C   C6        1.0  0.22012  0.12180  0.12723  1.0000
  C   C7        1.0  0.22504  0.13621  0.14390  1.0000
  C   C8        1.0  0.22388  0.15903  0.13958  1.0000
  C   C9        1.0  0.21758  0.16740  0.11877  1.0000
  H   H4        1.0  0.21077  0.11886  0.09342  1.0000
  H   H5        1.0  0.22104  0.10419  0.13034  1.0000
  H   H6        1.0  0.22756  0.17027  0.15246  1.0000
  H   H7        1.0  0.21640  0.18497  0.11569  1.0000
  H   H8        1.0  0.09428  0.05508  0.20905  1.0000
  C   C10       1.0  0.12538  0.11646  0.23434  1.0000
  C   C11       1.0  0.14206  0.10153  0.22676  1.0000
  C   C12       1.0  0.14481  0.08076  0.23718  1.0000
  C   C13       1.0  0.01609  0.08081  0.19514  1.0000
  S   S25       1.0  0.49454  0.37884  0.10265  1.0000
  H   H9        1.0  0.12314  0.13237  0.22625  1.0000
  H   H10       1.0  0.15259  0.10588  0.21284  1.0000
  C   C14       1.0  0.26870  0.48785  0.23497  1.0000
  C   C15       1.0  0.12954  0.23237  0.12567  1.0000
  C   C16       1.0  0.10837  0.23081  0.13536  1.0000
  C   C17       1.0  0.10549  0.22256  0.15709  1.0000
  C   C18       1.0  0.12385  0.21634  0.16937  1.0000
  C   C19       1.0  0.14498  0.21799  0.15971  1.0000
  C   C20       1.0  0.14781  0.22570  0.13784  1.0000
  H   H11       1.0  0.09417  0.23606  0.12605  1.0000
  H   H12       1.0  0.08914  0.22136  0.16442  1.0000
  H   H13       1.0  0.15924  0.21332  0.16920  1.0000
  H   H14       1.0  0.16418  0.22705  0.13062  1.0000
  H   H15       1.0  0.14993  0.10046  0.11324  1.0000
  C   C21       1.0  0.25276  0.47740  0.21910  1.0000
  C   C22       1.0  0.11068  0.23926  0.02439  1.0000
  C   C23       1.0  0.32198  0.46631  0.10942  1.0000
  C   C24       1.0  0.32702  0.48789  0.11517  1.0000
  C   C25       1.0  0.08349  0.20823  0.07330  1.0000
  Fe  Fe15      1.0  0.05569  0.20466  0.24985  1.0000
  H   H16       1.0  0.08825  0.19137  0.06798  1.0000
  C   C26       1.0  0.30484  0.45574  0.12089  1.0000
  C   C27       1.0  0.46530  0.34310  0.03082  1.0000
  H   H17       1.0  0.26128  0.47777  0.20262  1.0000
  H   H18       1.0  0.30074  0.43916  0.11669  1.0000
  C   C28       1.0  0.27340  0.33156  0.06015  1.0000
  C   C29       1.0  0.25074  0.32856  0.05731  1.0000
  C   C30       1.0  0.24162  0.30735  0.05843  1.0000
  C   C31       1.0  0.25507  0.28873  0.06241  1.0000
  C   C32       1.0  0.27778  0.29171  0.06504  1.0000
  C   C33       1.0  0.28691  0.31292  0.06390  1.0000
  H   H19       1.0  0.24007  0.34279  0.05442  1.0000
  H   H20       1.0  0.22416  0.30545  0.05637  1.0000
  H   H21       1.0  0.28841  0.27750  0.06811  1.0000
  H   H22       1.0  0.30433  0.31486  0.06613  1.0000
  H   H23       1.0  0.05406  0.05103  0.22199  1.0000
  C   C34       1.0  0.46616  0.37251  0.10159  1.0000
  C   C35       1.0  0.45802  0.35200  0.10819  1.0000
  C   C36       1.0  0.43540  0.34776  0.10640  1.0000
  C   C37       1.0  0.42069  0.36386  0.09788  1.0000
  C   C38       1.0  0.42881  0.38445  0.09152  1.0000
  C   C39       1.0  0.45138  0.38871  0.09336  1.0000
  H   H24       1.0  0.46913  0.33939  0.11463  1.0000
  H   H25       1.0  0.42930  0.33182  0.11155  1.0000
  H   H26       1.0  0.41773  0.39708  0.08516  1.0000
  H   H27       1.0  0.45750  0.40469  0.08837  1.0000
  N   N1        1.0  0.39040  0.43339  0.13340  1.0000
  C   C40       1.0  0.40729  0.44143  0.11652  1.0000
  C   C41       1.0  0.40307  0.42503  0.15308  1.0000
  C   C42       1.0  0.37707  0.41583  0.12320  1.0000
  C   C43       1.0  0.39834  0.45310  0.09561  1.0000
  C   C44       1.0  0.41827  0.40467  0.14905  1.0000
  C   C45       1.0  0.36381  0.40041  0.13903  1.0000
  H   H28       1.0  0.41789  0.42755  0.11055  1.0000
  H   H29       1.0  0.39226  0.42091  0.16742  1.0000
  H   H30       1.0  0.36744  0.46005  0.12527  1.0000
  H   H31       1.0  0.36514  0.42344  0.11155  1.0000
  H   H32       1.0  0.38780  0.40501  0.11273  1.0000
  H   H33       1.0  0.41208  0.45537  0.08341  1.0000
  H   H34       1.0  0.38581  0.44341  0.08759  1.0000
  H   H35       1.0  0.39149  0.46979  0.09911  1.0000
  H   H36       1.0  0.08790  0.24309  0.20347  1.0000
  H   H37       1.0  0.43282  0.40877  0.13848  1.0000
  H   H38       1.0  0.42472  0.39849  0.16506  1.0000
  H   H39       1.0  0.34454  0.43840  0.15042  1.0000
  H   H40       1.0  0.34602  0.40193  0.13540  1.0000
  C   C46       1.0  0.11482  0.28418  0.22923  1.0000
  H   H41       1.0  0.25410  0.13194  0.21704  1.0000
  N   N2        1.0  0.14863  0.14353  0.15081  1.0000
  C   C47       1.0  0.16504  0.13378  0.16687  1.0000
  C   C48       1.0  0.14039  0.12471  0.13779  1.0000
  C   C49       1.0  0.12983  0.15358  0.16414  1.0000
  C   C50       1.0  0.15997  0.16077  0.13659  1.0000
  C   C51       1.0  0.17381  0.14959  0.18395  1.0000
  C   C52       1.0  0.11034  0.16347  0.15123  1.0000
  C   C53       1.0  0.14978  0.16700  0.11407  1.0000
  H   H42       1.0  0.15794  0.11953  0.17624  1.0000
  H   H43       1.0  0.17989  0.12705  0.15802  1.0000
  H   H44       1.0  0.12752  0.13006  0.12616  1.0000
  H   H45       1.0  0.13212  0.11251  0.14904  1.0000
  H   H46       1.0  0.12308  0.14124  0.17626  1.0000
  H   H47       1.0  0.13562  0.16735  0.17404  1.0000
  H   H48       1.0  0.16156  0.17622  0.14582  1.0000
  H   H49       1.0  0.17710  0.15516  0.13273  1.0000
  N   N3        1.0  0.04680  0.08602  0.22336  1.0000
  H   H50       1.0  0.18041  0.16481  0.17615  1.0000
  H   H51       1.0  0.16109  0.15378  0.19673  1.0000
  H   H52       1.0  0.10208  0.15121  0.14132  1.0000
  H   H53       1.0  0.11530  0.17790  0.14094  1.0000
  H   H54       1.0  0.09775  0.16986  0.16320  1.0000
  H   H55       1.0  0.15007  0.18517  0.11154  1.0000
  H   H56       1.0  0.13261  0.16219  0.11200  1.0000
  H   H57       1.0  0.16011  0.16017  0.10035  1.0000
  H   H58       1.0  0.27586  0.08810  0.22620  1.0000
  H   H59       1.0  0.24004  0.45844  0.18037  1.0000
  H   H60       1.0  0.40588  0.39418  0.02283  1.0000
  H   H61       1.0  0.24104  0.17665  0.04567  1.0000
  H   H62       1.0  0.29378  0.21971  0.10373  1.0000
  H   H63       1.0  0.21236  0.46069  0.17143  1.0000
  C   C54       1.0  0.22503  0.46922  0.18070  1.0000
  H   H64       1.0  0.07362  0.19859  0.03428  1.0000
  H   H65       1.0  0.18759  0.14120  0.19274  1.0000
  H   H66       1.0  0.01797  0.09679  0.18618  1.0000
  H   H67       1.0  0.01238  0.09595  0.22610  1.0000
  H   H68       1.0  0.13758  0.28111  0.20102  1.0000
  H   H69       1.0  0.05461  0.09559  0.17878  1.0000
  H   H70       1.0  0.25180  0.45964  0.22402  1.0000
  H   H71       1.0  0.19911  0.47884  0.20335  1.0000
  H   H72       1.0  0.26980  0.10146  0.20137  1.0000
  H   H73       1.0  0.10738  0.27472  0.03181  1.0000
  N   N4        1.0  0.28773  0.12130  0.22404  1.0000
  C   C55       1.0  0.13134  0.27052  0.21488  1.0000
  H   H74       1.0  0.25522  0.21506  0.06066  1.0000
  S   S26       1.0  0.02046  0.15987  0.18731  1.0000
  H   H75       1.0  0.25960  0.18232  0.11053  1.0000
  H   H76       1.0  0.10911  0.29859  0.21902  1.0000
  H   H77       1.0  0.33422  0.13009  0.23567  1.0000
  H   H78       1.0  0.28762  0.15031  0.08240  1.0000
  H   H79       1.0  0.04061  0.12067  0.21581  1.0000
  C   C56       1.0  0.02281  0.08234  0.21932  1.0000
  H   H80       1.0  0.27214  0.14448  0.10710  1.0000
  C   C57       1.0  0.08521  0.06716  0.21957  1.0000
  H   H81       1.0  0.24200  0.19511  0.07779  1.0000
  H   H82       1.0  0.22859  0.48483  0.17162  1.0000
  C   C58       1.0  0.06128  0.10850  0.18898  1.0000
  H   H83       1.0  0.11402  0.22042  0.06136  1.0000
  H   H84       1.0  0.36515  0.40342  0.15675  1.0000
  C   C59       1.0  0.15810  0.11197  0.12418  1.0000
  C   C60       1.0  0.19714  0.49902  0.24390  1.0000
  H   H85       1.0  0.02486  0.06738  0.18630  1.0000
  H   H86       1.0  0.05570  0.12445  0.18143  1.0000
  H   H87       1.0  0.12468  0.25584  0.20729  1.0000
  H   H88       1.0  0.34908  0.46483  0.16071  1.0000
  H   H89       1.0  0.01731  0.06704  0.22810  1.0000
  H   H90       1.0  0.41326  0.38387  0.04892  1.0000
  H   H91       1.0  0.36884  0.38296  0.13620  1.0000
  H   H92       1.0  0.18477  0.49019  0.23466  1.0000
  C   C61       1.0  0.04952  0.08619  0.24805  1.0000
  H   H93       1.0  0.29008  0.21661  0.04226  1.0000
  C   C62       1.0  0.05393  0.10790  0.21362  1.0000
  H   H94       1.0  0.47004  0.33289  0.04547  1.0000
  H   H95       1.0  0.28871  0.17988  0.11182  1.0000
  H   H96       1.0  0.44675  0.40816  0.04788  1.0000
  C   C63       1.0  0.29857  0.19390  0.07013  1.0000
  C   C64       1.0  0.11187  0.11074  0.25267  1.0000
  H   H97       1.0  0.45824  0.39080  0.00525  1.0000
  C   C65       1.0  0.40861  0.33954  0.03630  1.0000
  H   H98       1.0  0.31046  0.07544  0.21485  1.0000
  C   C66       1.0  0.37602  0.45292  0.13982  1.0000
  C   C67       1.0  0.08625  0.20823  0.02513  1.0000
  C   C68       1.0  0.08176  0.26025  0.20128  1.0000
  H   H99       1.0  0.29941  0.17803  0.06157  1.0000
  H   H100      1.0  0.13441  0.26535  0.02424  1.0000
  H   H101      1.0  0.09241  0.08349  0.21614  1.0000
  C   C69       1.0  0.25739  0.19819  0.06797  1.0000
  H   H102      1.0  0.24297  0.22295  0.10250  1.0000
  H   H103      1.0  0.31575  0.13119  0.20325  1.0000
  N   N5        1.0  0.23000  0.48795  0.21787  1.0000
  H   H104      1.0  0.36339  0.44194  0.17290  1.0000
  C   C70       1.0  0.35743  0.44879  0.15703  1.0000
  C   C71       1.0  0.22058  0.48915  0.24108  1.0000
  H   H105      1.0  0.10684  0.23855  0.23328  1.0000
  C   C72       1.0  0.30250  0.08690  0.20279  1.0000
  H   H106      1.0  0.41351  0.43826  0.15928  1.0000
  H   H107      1.0  0.31000  0.22704  0.06067  1.0000
  H   H108      1.0  0.26241  0.19153  0.03265  1.0000
  N   N6        1.0  0.27707  0.19732  0.08269  1.0000
  H   H109      1.0  0.27926  0.23298  0.08194  1.0000
  H   H110      1.0  0.05906  0.06502  0.19682  1.0000
  H   H111      1.0  0.31501  0.09742  0.19473  1.0000
  C   C73       1.0  0.27841  0.21905  0.09417  1.0000
  H   H112      1.0  0.22074  0.47246  0.24911  1.0000
  H   H113      1.0  0.03614  0.24770  0.03317  1.0000
  C   C74       1.0  0.10103  0.24909  0.24696  1.0000
  H   H114      1.0  0.28763  0.01592  0.15795  1.0000
  H   H115      1.0  0.14443  0.18760  0.00795  1.0000
  H   H116      1.0  0.12466  0.22708  0.02467  1.0000
  H   H117      1.0  0.25769  0.15347  0.08344  1.0000
  C   C75       1.0  0.26586  0.13186  0.23084  1.0000
  C   C76       1.0  0.25909  0.22501  0.11008  1.0000
  C   C77       1.0  0.30119  0.11791  0.24449  1.0000
  H   H118      1.0  0.45701  0.33187  0.01982  1.0000
  H   H119      1.0  0.04671  0.24245  0.06035  1.0000
  S   S27       1.0  0.04225  0.17015  0.24918  1.0000
  H   H120      1.0  0.07097  0.28848  0.21851  1.0000
  H   H121      1.0  0.25988  0.21536  0.12581  1.0000
  H   H122      1.0  0.30090  0.36263  0.01550  1.0000
  C   C78       1.0  0.29898  0.13706  0.20812  1.0000
  H   H123      1.0  0.07030  0.25237  0.01667  1.0000
  H   H124      1.0  0.32678  0.33378  0.01222  1.0000
  C   C79       1.0  0.29263  0.46685  0.13754  1.0000
  H   H125      1.0  0.04607  0.22113  0.04012  1.0000
  H   H126      1.0  0.33106  0.10117  0.23022  1.0000
  H   H127      1.0  0.27916  0.45865  0.14602  1.0000
  C   C80       1.0  0.27310  0.15575  0.09242  1.0000
  S   S28       1.0  0.09093  0.19257  0.24991  1.0000
  H   H128      1.0  0.38627  0.46629  0.14603  1.0000
  H   H129      1.0  0.16903  0.10174  0.13486  1.0000
  H   H130      1.0  0.10129  0.19735  0.02517  1.0000
  H   H131      1.0  0.12397  0.25879  0.05123  1.0000
  C   C81       1.0  0.04911  0.23872  0.04261  1.0000
  H   H132      1.0  0.40016  0.35007  0.04868  1.0000
  H   H133      1.0  0.28412  0.12706  0.17712  1.0000
  H   H134      1.0  0.41866  0.45310  0.12402  1.0000
  H   H135      1.0  0.40953  0.39090  0.14177  1.0000
  H   H136      1.0  0.16817  0.12303  0.11349  1.0000
  H   H137      1.0  0.26788  0.14948  0.23488  1.0000
  N   N7        1.0  0.09072  0.22969  0.03604  1.0000
  H   H138      1.0  0.06627  0.25945  0.19204  1.0000
  H   H139      1.0  0.39615  0.32821  0.03029  1.0000
  C   C82       1.0  0.09644  0.22575  0.05995  1.0000
  C   C83       1.0  0.07190  0.24614  0.03399  1.0000
  H   H140      1.0  0.29705  0.15312  0.17577  1.0000
  H   H141      1.0  0.26425  0.01408  0.19024  1.0000
  H   H142      1.0  0.44293  0.35839  0.05478  1.0000
  H   H143      1.0  0.14607  0.26555  0.22441  1.0000
  H   H144      1.0  0.27091  0.15101  0.18947  1.0000
  H   H145      1.0  0.32009  0.02674  0.24122  1.0000
  Fe  Fe16      1.0  0.07783  0.15881  0.24583  1.0000
  H   H146      1.0  0.08793  0.20911  0.09091  1.0000
  C   C84       1.0  0.06040  0.06678  0.21482  1.0000
  H   H147      1.0  0.09477  0.24133  0.06924  1.0000
  H   H148      1.0  0.07528  0.26123  0.04322  1.0000
  H   H149      1.0  0.42116  0.42266  0.04506  1.0000
  H   H150      1.0  0.29623  0.07690  0.18932  1.0000
  C   C85       1.0  0.29749  0.48856  0.14308  1.0000
  C   C86       1.0  0.41796  0.35320  0.01663  1.0000
  H   H151      1.0  0.06549  0.21073  0.07256  1.0000
  C   C87       1.0  0.43271  0.41082  0.03682  1.0000
  H   H152      1.0  0.31249  0.19273  0.08175  1.0000
  H   H153      1.0  0.26003  0.24266  0.11430  1.0000
  C   C88       1.0  0.45052  0.36267  0.03840  1.0000
  H   H154      1.0  0.26841  0.16752  0.04994  1.0000
  H   H155      1.0  0.23699  0.12861  0.25260  1.0000
  C   C89       1.0  0.27475  0.17952  0.10029  1.0000
  H   H156      1.0  0.28575  0.48178  0.23122  1.0000
  H   H157      1.0  0.09341  0.26982  0.19072  1.0000
  H   H158      1.0  0.28007  0.39169  0.02204  1.0000
  C   C90       1.0  0.31494  0.49893  0.13192  1.0000
  H   H159      1.0  0.31785  0.20605  0.04176  1.0000
  H   H160      1.0  0.08834  0.06207  0.23692  1.0000
  H   H161      1.0  0.42150  0.32921  0.04439  1.0000
  H   H162      1.0  0.30157  0.15303  0.21622  1.0000
  C   C91       1.0  0.21640  0.47298  0.20452  1.0000
  C   C92       1.0  0.28684  0.14215  0.18651  1.0000
  H   H163      1.0  0.21523  0.45649  0.21287  1.0000
  H   H164      1.0  0.46206  0.37587  0.04224  1.0000
  H   H165      1.0  0.12470  0.29107  0.24254  1.0000
  C   C93       1.0  0.07674  0.27161  0.22331  1.0000
  H   H166      1.0  0.48048  0.34905  0.02225  1.0000
  C   C94       1.0  0.42037  0.38945  0.03278  1.0000
  C   C95       1.0  0.25378  0.12109  0.25093  1.0000
  C   C96       1.0  0.32631  0.11463  0.24137  1.0000
  H   H167      1.0  0.34022  0.49627  0.10641  1.0000
  N   N8        1.0  0.09534  0.27227  0.23926  1.0000
  S   S29       1.0  0.22354  0.01779  0.14010  1.0000
  H   H168      1.0  0.43836  0.41896  0.02121  1.0000
  C   C97       1.0  0.11927  0.26074  0.03375  1.0000
  H   H169      1.0  0.32455  0.37533  0.00494  1.0000
  N   N9        1.0  0.43361  0.37101  0.02230  1.0000
  H   H170      1.0  0.08987  0.31845  0.24529  1.0000
  C   C98       1.0  0.31357  0.03785  0.25356  1.0000
  H   H171      1.0  0.03765  0.12047  0.25338  1.0000
  H   H172      1.0  0.27148  0.41725  0.00999  1.0000
  H   H173      1.0  0.25179  0.10319  0.24919  1.0000
  H   H174      1.0  0.40345  0.36039  0.00793  1.0000
  H   H175      1.0  0.10765  0.24295  0.00669  1.0000
  H   H176      1.0  0.06690  0.08912  0.25213  1.0000
  H   H177      1.0  0.26665  0.35668  0.01014  1.0000
  H   H178      1.0  0.42560  0.34153  0.00468  1.0000
  H   H179      1.0  0.17795  0.00512  0.15109  1.0000
  C   C99       1.0  0.29230  0.04726  0.25116  1.0000
  C   C100      1.0  0.27423  0.39950  0.00655  1.0000
  H   H180      1.0  0.26481  0.48312  0.25239  1.0000
  H   H181      1.0  0.08600  0.24090  0.25363  1.0000
  H   H182      1.0  0.23085  0.49958  0.25136  1.0000
  H   H183      1.0  0.06184  0.30858  0.24737  1.0000
  S   S30       1.0  0.28107  0.50205  0.16372  1.0000
  S   S31       1.0  0.34489  0.11721  0.48545  1.0000
  H   H184      1.0  0.14452  0.41714  0.44357  1.0000
  Fe  Fe17      1.0  0.41181  0.07644  0.33961  1.0000
  S   S32       1.0  0.37705  0.08086  0.35327  1.0000
  S   S33       1.0  0.43388  0.10678  0.34023  1.0000
  Fe  Fe18      1.0  0.40708  0.02578  0.33927  1.0000
  S   S34       1.0  0.37222  0.02719  0.35278  1.0000
  H   H185      1.0  0.46276  0.14302  0.34490  1.0000
  Fe  Fe19      1.0  0.36728  0.05575  0.32840  1.0000
  S   S35       1.0  0.33428  0.06420  0.31133  1.0000
  Fe  Fe20      1.0  0.38416  0.05231  0.37634  1.0000
  S   S36       1.0  0.38121  0.04852  0.41415  1.0000
  S   S37       1.0  0.40183  0.05303  0.31344  1.0000
  S   S38       1.0  0.41916  0.04919  0.36402  1.0000
  Fe  Fe21      1.0  0.05890  0.32058  0.37237  1.0000
  S   S39       1.0  0.04297  0.32019  0.40674  1.0000
  S   S40       1.0  0.06812  0.28886  0.35355  1.0000
  Fe  Fe22      1.0  0.06989  0.36971  0.37457  1.0000
  S   S41       1.0  0.05507  0.37225  0.40844  1.0000
  S   S42       1.0  0.08971  0.39659  0.35656  1.0000
  Fe  Fe23      1.0  0.07179  0.33986  0.41698  1.0000
  S   S43       1.0  0.08661  0.34133  0.45139  1.0000
  Fe  Fe24      1.0  0.02696  0.35264  0.39642  1.0000
  S   S44       1.0  0.08868  0.33850  0.38368  1.0000
  S   S45       1.0  0.04097  0.35197  0.36136  1.0000
  C   C101      1.0  0.10720  0.39872  0.43572  1.0000
  H   H186      1.0  0.37865  0.12654  0.40593  1.0000
  C   C102      1.0  0.12532  0.31780  0.50103  1.0000
  H   H187      1.0  0.49027  0.10233  0.27977  1.0000
  H   H188      1.0  0.07827  0.42053  0.43621  1.0000
  C   C103      1.0  0.08843  0.42558  0.36040  1.0000
  C   C104      1.0  0.07140  0.43577  0.37260  1.0000
  C   C105      1.0  0.07105  0.45878  0.37521  1.0000
  C   C106      1.0  0.08763  0.47197  0.36563  1.0000
  C   C107      1.0  0.10474  0.46177  0.35350  1.0000
  C   C108      1.0  0.10509  0.43872  0.35088  1.0000
  H   H189      1.0  0.05836  0.42596  0.37986  1.0000
  H   H190      1.0  0.05769  0.46648  0.38455  1.0000
  H   H191      1.0  0.11756  0.47166  0.34598  1.0000
  H   H192      1.0  0.11828  0.43104  0.34130  1.0000
  C   C109      1.0  0.04875  0.24879  0.29294  1.0000
  C   C110      1.0  0.06703  0.24264  0.30544  1.0000
  C   C111      1.0  0.07264  0.25512  0.32378  1.0000
  C   C112      1.0  0.06024  0.27404  0.32990  1.0000
  C   C113      1.0  0.04213  0.28035  0.31722  1.0000
  C   C114      1.0  0.03643  0.26779  0.29896  1.0000
  H   H193      1.0  0.07676  0.22817  0.30111  1.0000
  H   H194      1.0  0.08666  0.25000  0.33342  1.0000
  H   H195      1.0  0.03238  0.29479  0.32160  1.0000
  C   C115      1.0  0.13116  0.07529  0.25529  1.0000
  C   C116      1.0  0.31860  0.05706  0.28796  1.0000
  C   C117      1.0  0.32663  0.04270  0.27175  1.0000
  H   H196      1.0  0.05612  0.28963  0.47770  1.0000
  H   H197      1.0  0.13715  0.42699  0.41748  1.0000
  H   H198      1.0  0.34292  0.03533  0.27322  1.0000
  C   C118      1.0  0.48759  0.14141  0.31882  1.0000
  H   H199      1.0  0.02623  0.35342  0.44543  1.0000
  C   C119      1.0  0.20539  0.25717  0.48610  1.0000
  C   C120      1.0  0.12496  0.28945  0.47386  1.0000
  C   C121      1.0  0.11123  0.30284  0.46039  1.0000
  C   C122      1.0  0.10428  0.32373  0.46729  1.0000
  C   C123      1.0  0.11135  0.33105  0.48772  1.0000
  C   C124      1.0  0.11509  0.09022  0.26314  1.0000
  H   H200      1.0  0.13003  0.27323  0.46843  1.0000
  H   H201      1.0  0.10590  0.29690  0.44478  1.0000
  H   H202      1.0  0.02816  0.28468  0.47251  1.0000
  C   C125      1.0  0.40307  0.14330  0.44811  1.0000
  C   C126      1.0  0.35553  0.09809  0.46593  1.0000
  C   C127      1.0  0.36986  0.08067  0.47177  1.0000
  C   C128      1.0  0.37742  0.06559  0.45576  1.0000
  C   C129      1.0  0.37120  0.06803  0.43363  1.0000
  C   C130      1.0  0.35708  0.08559  0.42774  1.0000
  C   C131      1.0  0.34919  0.10041  0.44384  1.0000
  H   H203      1.0  0.37512  0.07884  0.48862  1.0000
  H   H204      1.0  0.38838  0.05211  0.46051  1.0000
  H   H205      1.0  0.35199  0.08760  0.41084  1.0000
  H   H206      1.0  0.33809  0.11380  0.43913  1.0000
  C   C132      1.0  0.45780  0.11500  0.32463  1.0000
  C   C133      1.0  0.46588  0.10356  0.30626  1.0000
  H   H207      1.0  0.01806  0.09962  0.26183  1.0000
  H   H208      1.0  0.45443  0.11641  0.43142  1.0000
  H   H209      1.0  0.41271  0.01223  0.40372  1.0000
  C   C134      1.0  0.46883  0.13395  0.33081  1.0000
  H   H210      1.0  0.45758  0.08905  0.30118  1.0000
  C   C135      1.0  0.13214  0.29682  0.49424  1.0000
  H   H211      1.0  0.07557  0.31632  0.27134  1.0000
  H   H212      1.0  0.24015  0.21821  0.48464  1.0000
  H   H213      1.0  0.14577  0.20934  0.46541  1.0000
  C   C136      1.0  0.40838  0.12139  0.43658  1.0000
  S   S46       1.0  0.09038  0.12799  0.26324  1.0000
  H   H214      1.0  0.13515  0.37656  0.36851  1.0000
  H   H215      1.0  0.39404  0.12150  0.36801  1.0000
  C   C137      1.0  0.15733  0.20428  0.47860  1.0000
  H   H216      1.0  0.33275  0.03032  0.45684  1.0000
  H   H217      1.0  0.39407  0.11064  0.43971  1.0000
  H   H218      1.0  0.13887  0.35782  0.39115  1.0000
  C   C138      1.0  0.03310  0.37001  0.47528  1.0000
  H   H219      1.0  0.39898  0.09239  0.40396  1.0000
  C   C139      1.0  0.03762  0.31991  0.47166  1.0000
  H   H220      1.0  0.38611  0.14935  0.44454  1.0000
  H   H221      1.0  0.12185  0.40598  0.39082  1.0000
  C   C140      1.0  0.11842  0.24690  0.26500  1.0000
  C   C141      1.0  0.45362  0.13246  0.42256  1.0000
  C   C142      1.0  0.48450  0.11114  0.29416  1.0000
  C   C143      1.0  0.14277  0.37247  0.45851  1.0000
  H   H222      1.0  0.20697  0.21034  0.47008  1.0000
  C   C144      1.0  0.43213  0.08412  0.41310  1.0000
  C   C145      1.0  0.13751  0.37185  0.43382  1.0000
  H   H223      1.0  0.30099  0.05031  0.47426  1.0000
  H   H224      1.0  0.41505  0.15617  0.44352  1.0000
  H   H225      1.0  0.42962  0.08167  0.43111  1.0000
  C   C146      1.0  0.31668  0.04865  0.48335  1.0000
  H   H226      1.0  0.11006  0.40318  0.45305  1.0000
  H   H227      1.0  0.17464  0.39235  0.41934  1.0000
  H   H228      1.0  0.26779  0.06856  0.26621  1.0000
  C   C147      1.0  0.09326  0.41786  0.42566  1.0000
  C   C148      1.0  0.29729  0.06640  0.28557  1.0000
  H   H229      1.0  0.10489  0.08568  0.27732  1.0000
  C   C149      1.0  0.28422  0.06150  0.26743  1.0000
  C   C150      1.0  0.32773  0.02740  0.47440  1.0000
  H   H230      1.0  0.13310  0.05934  0.26343  1.0000
  H   H231      1.0  0.26224  0.12404  0.26653  1.0000
  H   H232      1.0  0.00538  0.32271  0.43958  1.0000
  H   H233      1.0  0.41968  0.10108  0.38493  1.0000
  C   C151      1.0  0.14381  0.41200  0.42612  1.0000
  C   C152      1.0  0.03905  0.29604  0.48076  1.0000
  H   H234      1.0  0.34262  0.02202  0.48321  1.0000
  N   N10       1.0  0.01541  0.33158  0.47217  1.0000
  H   H235      1.0  0.46930  0.13381  0.41284  1.0000
  H   H236      1.0  0.02611  0.37333  0.49194  1.0000
  H   H237      1.0  0.04443  0.31964  0.45448  1.0000
  H   H238      1.0  0.10597  0.34710  0.49335  1.0000
  N   N11       1.0  0.12860  0.39305  0.42368  1.0000
  H   H239      1.0  0.12568  0.35840  0.43170  1.0000
  H   H240      1.0  0.16864  0.41405  0.39925  1.0000
  H   H241      1.0  0.15706  0.38079  0.38675  1.0000
  H   H242      1.0  0.29430  0.08697  0.48203  1.0000
  S   S47       1.0  0.08586  0.50096  0.36932  1.0000
  C   C153      1.0  0.29333  0.08781  0.50025  1.0000
  N   N12       1.0  0.41361  0.12313  0.41215  1.0000
  C   C154      1.0  0.39432  0.13495  0.40148  1.0000
  H   H243      1.0  0.39225  0.15202  0.40755  1.0000
  H   H244      1.0  0.07335  0.27545  0.26773  1.0000
  H   H245      1.0  0.03636  0.29523  0.49887  1.0000
  H   H246      1.0  0.15013  0.35629  0.46366  1.0000
  H   H247      1.0  0.10204  0.43362  0.42479  1.0000
  H   H248      1.0  0.09638  0.38421  0.43667  1.0000
  C   C155      1.0  0.20648  0.20572  0.48797  1.0000
  H   H249      1.0  0.45372  0.14597  0.43456  1.0000
  C   C156      1.0  0.39564  0.13747  0.37611  1.0000
  H   H250      1.0  0.03362  0.38611  0.46621  1.0000
  H   H251      1.0  0.41098  0.14535  0.37007  1.0000
  H   H252      1.0  0.10744  0.38173  0.39837  1.0000
  C   C157      1.0  0.16758  0.40913  0.41699  1.0000
  C   C158      1.0  0.13989  0.37546  0.38608  1.0000
  H   H253      1.0  0.43007  0.06770  0.40595  1.0000
  H   H254      1.0  0.40352  0.14051  0.46627  1.0000
  H   H255      1.0  0.38165  0.14809  0.37049  1.0000
  H   H256      1.0  0.17850  0.41981  0.42622  1.0000
  H   H257      1.0  0.12770  0.37484  0.46893  1.0000
  H   H258      1.0  0.15275  0.36588  0.42530  1.0000
  H   H259      1.0  0.15488  0.38520  0.46194  1.0000
  C   C159      1.0  0.43421  0.13579  0.40673  1.0000
  H   H260      1.0  0.42180  0.11321  0.44588  1.0000
  S   S48       1.0  0.04125  0.23429  0.26900  1.0000
  C   C160      1.0  0.41526  0.10035  0.40279  1.0000
  H   H261      1.0  0.44921  0.08890  0.40877  1.0000
  H   H262      1.0  0.43028  0.15381  0.40653  1.0000
  H   H263      1.0  0.04160  0.10429  0.27782  1.0000
  H   H264      1.0  0.02233  0.27285  0.28940  1.0000
  H   H265      1.0  0.05041  0.36409  0.47634  1.0000
  H   H266      1.0  0.08744  0.41388  0.40913  1.0000
  H   H267      1.0  0.20162  0.18816  0.48900  1.0000
  H   H268      1.0  0.44050  0.13203  0.38976  1.0000
  H   H269      1.0  0.09994  0.28576  0.27165  1.0000
  H   H270      1.0  0.21543  0.24830  0.47351  1.0000
  H   H271      1.0  0.29075  0.07738  0.29803  1.0000
  C   C161      1.0  0.12359  0.38981  0.39974  1.0000
  C   C162      1.0  0.00640  0.33362  0.49541  1.0000
  H   H272      1.0  0.19076  0.26512  0.47837  1.0000
  H   H273      1.0  0.32669  0.06277  0.47732  1.0000
  H   H274      1.0  0.16816  0.19094  0.47199  1.0000
  H   H275      1.0  0.17569  0.23264  0.46934  1.0000
  C   C163      1.0  0.49551  0.13011  0.30030  1.0000
  H   H276      1.0  0.04965  0.32884  0.48134  1.0000
  H   H277      1.0  0.49576  0.15604  0.32377  1.0000
  C   C164      1.0  0.08689  0.28454  0.25926  1.0000
  C   C165      1.0  0.17031  0.22454  0.48514  1.0000
  H   H278      1.0  0.19208  0.49769  0.26160  1.0000
  C   C166      1.0  0.01874  0.35443  0.46234  1.0000
  H   H279      1.0  0.15825  0.23628  0.49296  1.0000
  H   H280      1.0  0.11122  0.25125  0.28137  1.0000
  H   H281      1.0  0.04562  0.06984  0.25570  1.0000
  C   C167      1.0  0.03573  0.10372  0.26066  1.0000
  H   H282      1.0  0.21541  0.27069  0.49222  1.0000
  H   H283      1.0  0.44734  0.01397  0.38412  1.0000
  H   H284      1.0  0.43761  0.00702  0.44370  1.0000
  H   H285      1.0  0.37634  0.00399  0.39518  1.0000
  H   H286      1.0  0.31594  0.01371  0.47483  1.0000
  H   H287      1.0  0.14701  0.19791  0.49259  1.0000
  H   H288      1.0  0.23874  0.19029  0.49325  1.0000
  C   C168      1.0  0.23062  0.20670  0.49545  1.0000
  H   H289      1.0  0.29904  0.13236  0.25540  1.0000
  H   H290      1.0  0.12415  0.22942  0.26641  1.0000
  H   H291      1.0  0.33339  0.11011  0.25763  1.0000
  H   H292      1.0  0.00282  0.36345  0.46023  1.0000
  H   H293      1.0  0.13301  0.25699  0.26126  1.0000
  N   N13       1.0  0.18963  0.22006  0.49992  1.0000
  H   H294      1.0  0.29527  0.10352  0.25442  1.0000
  C   C169      1.0  0.07816  0.30831  0.25516  1.0000
  S   S49       1.0  0.49113  0.17878  0.61852  1.0000
  Fe  Fe25      1.0  0.33324  0.14352  0.56395  1.0000
  S   S50       1.0  0.32193  0.11303  0.54740  1.0000
  S   S51       1.0  0.30786  0.16781  0.57974  1.0000
  Fe  Fe26      1.0  0.38242  0.12954  0.55908  1.0000
  S   S52       1.0  0.37379  0.09839  0.54216  1.0000
  S   S53       1.0  0.42007  0.13318  0.55943  1.0000
  Fe  Fe27      1.0  0.34984  0.11889  0.52279  1.0000
  Fe  Fe28      1.0  0.34673  0.09428  0.56801  1.0000
  S   S54       1.0  0.34379  0.05829  0.58047  1.0000
  S   S55       1.0  0.35963  0.15065  0.53801  1.0000
  S   S56       1.0  0.35683  0.12418  0.58625  1.0000
  Fe  Fe29      1.0  0.24746  0.44513  0.71745  1.0000
  S   S57       1.0  0.21951  0.46948  0.71137  1.0000
  H   H295      1.0  0.47316  0.12383  0.62677  1.0000
  Fe  Fe30      1.0  0.23765  0.42094  0.67476  1.0000
  S   S58       1.0  0.20983  0.44412  0.66538  1.0000
  S   S59       1.0  0.24667  0.38817  0.65908  1.0000
  Fe  Fe31      1.0  0.23155  0.47121  0.67600  1.0000
  Fe  Fe32      1.0  0.19968  0.44093  0.70116  1.0000
  S   S60       1.0  0.16297  0.43835  0.70817  1.0000
  S   S61       1.0  0.26081  0.44818  0.68251  1.0000
  S   S62       1.0  0.22617  0.41640  0.71007  1.0000
  Fe  Fe33      1.0  0.06549  0.31324  0.70356  1.0000
  S   S63       1.0  0.08515  0.30152  0.73265  1.0000
  S   S64       1.0  0.06821  0.30265  0.66805  1.0000
  Fe  Fe34      1.0  0.04214  0.35068  0.72830  1.0000
  H   H296      1.0  0.06021  0.37637  0.66807  1.0000
  Fe  Fe35      1.0  0.09055  0.33764  0.73727  1.0000
  N   N14       1.0  0.31229  0.04981  0.50799  1.0000
  S   S65       1.0  0.07298  0.34881  0.70706  1.0000
  S   S66       1.0  0.03326  0.31555  0.72295  1.0000
  Fe  Fe36      1.0  0.17250  0.27794  0.59207  1.0000
  S   S67       1.0  0.16053  0.30656  0.57117  1.0000
  S   S68       1.0  0.16008  0.26981  0.62676  1.0000
  Fe  Fe37      1.0  0.21226  0.26687  0.56123  1.0000
  S   S69       1.0  0.20330  0.29561  0.53863  1.0000
  S   S70       1.0  0.24270  0.24702  0.54852  1.0000
  Fe  Fe38      1.0  0.19640  0.31489  0.56932  1.0000
  S   S71       1.0  0.20609  0.35040  0.57260  1.0000
  Fe  Fe39      1.0  0.16820  0.28499  0.54209  1.0000
  S   S72       1.0  0.20808  0.28738  0.59151  1.0000
  S   S73       1.0  0.17737  0.25515  0.56339  1.0000
  C   C170      1.0  0.03820  0.33694  0.62220  1.0000
  C   C171      1.0  0.09424  0.29467  0.65682  1.0000
  C   C172      1.0  0.11097  0.28636  0.67027  1.0000
  C   C173      1.0  0.13103  0.27879  0.66078  1.0000
  C   C174      1.0  0.13481  0.28009  0.63787  1.0000
  C   C175      1.0  0.11835  0.28909  0.62445  1.0000
  C   C176      1.0  0.09803  0.29610  0.63390  1.0000
  H   H297      1.0  0.10819  0.28506  0.68792  1.0000
  H   H298      1.0  0.14366  0.27177  0.67125  1.0000
  H   H299      1.0  0.12106  0.29006  0.60678  1.0000
  H   H300      1.0  0.08516  0.30246  0.62338  1.0000
  C   C177      1.0  0.23392  0.37802  0.63566  1.0000
  C   C178      1.0  0.23379  0.35517  0.63263  1.0000
  C   C179      1.0  0.22446  0.34646  0.61385  1.0000
  C   C180      1.0  0.21599  0.36058  0.59745  1.0000
  C   C181      1.0  0.21602  0.38342  0.60052  1.0000
  C   C182      1.0  0.22465  0.39212  0.61970  1.0000
  H   H301      1.0  0.24090  0.34417  0.64495  1.0000
  H   H302      1.0  0.22417  0.32888  0.61188  1.0000
  H   H303      1.0  0.20950  0.39447  0.58792  1.0000
  H   H304      1.0  0.22479  0.40975  0.62178  1.0000
  C   C183      1.0  0.15268  0.41304  0.71847  1.0000
  C   C184      1.0  0.16628  0.39751  0.72918  1.0000
  C   C185      1.0  0.15760  0.37759  0.73737  1.0000
  C   C186      1.0  0.13538  0.37285  0.73459  1.0000
  C   C187      1.0  0.12179  0.38830  0.72374  1.0000
  C   C188      1.0  0.13039  0.40840  0.71588  1.0000
  H   H305      1.0  0.18342  0.40097  0.73145  1.0000
  H   H306      1.0  0.48152  0.06156  0.62922  1.0000
  H   H307      1.0  0.10460  0.38492  0.72168  1.0000
  H   H308      1.0  0.11973  0.42036  0.70773  1.0000
  C   C189      1.0  0.32609  0.04481  0.60018  1.0000
  C   C190      1.0  0.32866  0.02188  0.60369  1.0000
  H   H309      1.0  0.39658  0.02338  0.70564  1.0000
  C   C191      1.0  0.29911  0.02178  0.63167  1.0000
  C   C192      1.0  0.29635  0.04464  0.62793  1.0000
  C   C193      1.0  0.30977  0.05611  0.61238  1.0000
  S   S74       1.0  0.14903  0.27893  0.51071  1.0000
  H   H310      1.0  0.18867  0.19617  0.55335  1.0000
  H   H311      1.0  0.28380  0.05361  0.63726  1.0000
  H   H312      1.0  0.30749  0.07370  0.60988  1.0000
  C   C194      1.0  0.28944  0.18933  0.57035  1.0000
  C   C195      1.0  0.29034  0.19815  0.54882  1.0000
  C   C196      1.0  0.27585  0.21564  0.54250  1.0000
  C   C197      1.0  0.26001  0.22443  0.55745  1.0000
  C   C198      1.0  0.25895  0.21552  0.57892  1.0000
  C   C199      1.0  0.27365  0.19824  0.58531  1.0000
  H   H313      1.0  0.30240  0.19166  0.53711  1.0000
  H   H314      1.0  0.27698  0.22240  0.52588  1.0000
  H   H315      1.0  0.24694  0.22198  0.59068  1.0000
  H   H316      1.0  0.27275  0.19162  0.60201  1.0000
  H   H317      1.0  0.37251  0.04163  0.68282  1.0000
  N   N15       1.0  0.49377  0.09415  0.62221  1.0000
  H   H318      1.0  0.30821  0.45815  0.73164  1.0000
  C   C200      1.0  0.47161  0.16633  0.60162  1.0000
  C   C201      1.0  0.44908  0.16795  0.60755  1.0000
  C   C202      1.0  0.43302  0.15815  0.59481  1.0000
  C   C203      1.0  0.43928  0.14677  0.57579  1.0000
  C   C204      1.0  0.46182  0.14529  0.56981  1.0000
  C   C205      1.0  0.47790  0.15483  0.58270  1.0000
  H   H319      1.0  0.44398  0.17682  0.62212  1.0000
  H   H320      1.0  0.41579  0.15942  0.59966  1.0000
  H   H321      1.0  0.46688  0.13655  0.55514  1.0000
  H   H322      1.0  0.38406  0.02235  0.66390  1.0000
  H   H323      1.0  0.27532  0.49868  0.69089  1.0000
  H   H324      1.0  0.32026  0.01521  0.51480  1.0000
  C   C206      1.0  0.29248  0.06489  0.51179  1.0000
  C   C207      1.0  0.35259  0.04501  0.52063  1.0000
  H   H325      1.0  0.48795  0.11188  0.66518  1.0000
  H   H326      1.0  0.47355  0.20643  0.66084  1.0000
  C   C208      1.0  0.46213  0.09465  0.59431  1.0000
  H   H327      1.0  0.31158  0.02268  0.68494  1.0000
  H   H328      1.0  0.04122  0.34357  0.66468  1.0000
  H   H329      1.0  0.29837  0.00893  0.54763  1.0000
  H   H330      1.0  0.45090  0.09882  0.63746  1.0000
  C   C209      1.0  0.49632  0.12271  0.65286  1.0000
  H   H331      1.0  0.00613  0.30763  0.52118  1.0000
  H   H332      1.0  0.46424  0.22828  0.70008  1.0000
  N   N16       1.0  0.49533  0.21608  0.68668  1.0000
  H   H333      1.0  0.16484  0.47516  0.67740  1.0000
  C   C210      1.0  0.16168  0.49975  0.71254  1.0000
  H   H334      1.0  0.46498  0.16916  0.67488  1.0000
  C   C211      1.0  0.19847  0.24209  0.50574  1.0000
  H   H335      1.0  0.13058  0.32368  0.51669  1.0000
  H   H336      1.0  0.44731  0.07015  0.64197  1.0000
  S   S75       1.0  0.28197  0.00836  0.65194  1.0000
  H   H337      1.0  0.01949  0.33915  0.50637  1.0000
  C   C212      1.0  0.33150  0.05947  0.51931  1.0000
  C   C213      1.0  0.49026  0.11774  0.62900  1.0000
  C   C214      1.0  0.46942  0.18235  0.68621  1.0000
  H   H338      1.0  0.16820  0.36577  0.74582  1.0000
  H   H339      1.0  0.48226  0.24460  0.66873  1.0000
  C   C215      1.0  0.36823  0.02815  0.67170  1.0000
  H   H340      1.0  0.16746  0.21887  0.52838  1.0000
  C   C216      1.0  0.48923  0.24145  0.72021  1.0000
  H   H341      1.0  0.34984  0.02905  0.52932  1.0000
  H   H342      1.0  0.20953  0.18983  0.53328  1.0000
  H   H343      1.0  0.36476  0.05355  0.53047  1.0000
  C   C217      1.0  0.16043  0.47795  0.64305  1.0000
  H   H344      1.0  0.49702  0.18892  0.66408  1.0000
  H   H345      1.0  0.28549  0.03553  0.54663  1.0000
  H   H346      1.0  0.49511  0.15352  0.57783  1.0000
  H   H347      1.0  0.05298  0.34713  0.61947  1.0000
  C   C218      1.0  0.04442  0.37832  0.65936  1.0000
  H   H348      1.0  0.19693  0.02392  0.73735  1.0000
  H   H349      1.0  0.35156  0.02889  0.71396  1.0000
  H   H350      1.0  0.45469  0.11013  0.60056  1.0000
  C   C219      1.0  0.32234  0.03168  0.69585  1.0000
  H   H351      1.0  0.23279  0.21086  0.51286  1.0000
  H   H352      1.0  0.45776  0.08603  0.66337  1.0000
  H   H353      1.0  0.45378  0.19061  0.69165  1.0000
  H   H354      1.0  0.49174  0.07457  0.65245  1.0000
  H   H355      1.0  0.27889  0.47867  0.71316  1.0000
  H   H356      1.0  0.47722  0.17433  0.70065  1.0000
  S   S76       1.0  0.12529  0.34742  0.74470  1.0000
  C   C220      1.0  0.48444  0.19871  0.67352  1.0000
  H   H357      1.0  0.35731  0.05673  0.65200  1.0000
  H   H358      1.0  0.03637  0.32798  0.60664  1.0000
  H   H359      1.0  0.21276  0.24042  0.51644  1.0000
  C   C221      1.0  0.31531  0.01044  0.61931  1.0000
  H   H360      1.0  0.29029  0.34114  0.59878  1.0000
  H   H361      1.0  0.04152  0.32427  0.63506  1.0000
  H   H362      1.0  0.10486  0.48885  0.65515  1.0000
  H   H363      1.0  0.25343  0.26742  0.62808  1.0000
  C   C222      1.0  0.18093  0.20867  0.52062  1.0000
  H   H364      1.0  0.32674  0.06380  0.53651  1.0000
  H   H365      1.0  0.32694  0.04771  0.68821  1.0000
  H   H366      1.0  0.33679  0.03660  0.65414  1.0000
  H   H367      1.0  0.45965  0.09503  0.57622  1.0000
  H   H368      1.0  0.39910  0.40938  0.74974  1.0000
  H   H369      1.0  0.00638  0.39082  0.64284  1.0000
  C   C223      1.0  0.34271  0.01800  0.70292  1.0000
  C   C224      1.0  0.49842  0.23619  0.67188  1.0000
  H   H370      1.0  0.17352  0.48579  0.71034  1.0000
  H   H371      1.0  0.03630  0.39366  0.66546  1.0000
  Fe  Fe40      1.0  0.05380  0.30664  0.75280  1.0000
  H   H372      1.0  0.42539  0.38007  0.74141  1.0000
  H   H373      1.0  0.12783  0.48751  0.68371  1.0000
  H   H374      1.0  0.47769  0.20875  0.71755  1.0000
  H   H375      1.0  0.34111  0.01290  0.59427  1.0000
  H   H376      1.0  0.20693  0.49201  0.62675  1.0000
  H   H377      1.0  0.17215  0.46405  0.63971  1.0000
  H   H378      1.0  0.31450  0.03228  0.55246  1.0000
  H   H379      1.0  0.49935  0.22235  0.63830  1.0000
  C   C225      1.0  0.30664  0.02741  0.51748  1.0000
  N   N17       1.0  0.01067  0.35572  0.65001  1.0000
  C   C226      1.0  0.03005  0.35821  0.66472  1.0000
  H   H380      1.0  0.29237  0.02081  0.50879  1.0000
  H   H381      1.0  0.02434  0.35945  0.68225  1.0000
  H   H382      1.0  0.45295  0.08039  0.60113  1.0000
  H   H383      1.0  0.36038  0.04257  0.50420  1.0000
  H   H384      1.0  0.47717  0.24452  0.73392  1.0000
  N   N18       1.0  0.28048  0.29222  0.58228  1.0000
  C   C227      1.0  0.29163  0.28115  0.56277  1.0000
  C   C228      1.0  0.26141  0.30580  0.57343  1.0000
  C   C229      1.0  0.27166  0.27443  0.59764  1.0000
  C   C230      1.0  0.29718  0.30582  0.59350  1.0000
  C   C231      1.0  0.30974  0.26367  0.56802  1.0000
  H   H385      1.0  0.28083  0.33441  0.56173  1.0000
  C   C232      1.0  0.26068  0.28196  0.61942  1.0000
  C   C233      1.0  0.28821  0.32512  0.60770  1.0000
  H   H386      1.0  0.27940  0.27297  0.55261  1.0000
  H   H387      1.0  0.29951  0.29350  0.55149  1.0000
  H   H388      1.0  0.25153  0.31385  0.58662  1.0000
  H   H389      1.0  0.24957  0.29498  0.56543  1.0000
  H   H390      1.0  0.25957  0.26441  0.58903  1.0000
  H   H391      1.0  0.28495  0.26273  0.60287  1.0000
  H   H392      1.0  0.30777  0.29506  0.60416  1.0000
  H   H393      1.0  0.30857  0.31341  0.58097  1.0000
  H   H394      1.0  0.31904  0.25967  0.55257  1.0000
  H   H395      1.0  0.32170  0.26949  0.57991  1.0000
  H   H396      1.0  0.30254  0.24797  0.57412  1.0000
  C   C234      1.0  0.26744  0.32397  0.55630  1.0000
  H   H397      1.0  0.27197  0.31687  0.54008  1.0000
  H   H398      1.0  0.36086  0.03262  0.63653  1.0000
  H   H399      1.0  0.27293  0.28855  0.63061  1.0000
  H   H400      1.0  0.14389  0.47069  0.64438  1.0000
  H   H401      1.0  0.24704  0.29405  0.61701  1.0000
  H   H402      1.0  0.29827  0.32610  0.62266  1.0000
  H   H403      1.0  0.27097  0.32394  0.61363  1.0000
  H   H404      1.0  0.20639  0.21742  0.54420  1.0000
  N   N19       1.0  0.16497  0.35139  0.66334  1.0000
  C   C235      1.0  0.16678  0.35467  0.63866  1.0000
  C   C236      1.0  0.16353  0.37380  0.67351  1.0000
  C   C237      1.0  0.14476  0.33881  0.67015  1.0000
  C   C238      1.0  0.18488  0.33838  0.67093  1.0000
  C   C239      1.0  0.16569  0.33375  0.62488  1.0000
  C   C240      1.0  0.18505  0.38673  0.67307  1.0000
  C   C241      1.0  0.12272  0.34883  0.66225  1.0000
  C   C242      1.0  0.18632  0.33418  0.69609  1.0000
  H   H405      1.0  0.15381  0.36639  0.63260  1.0000
  H   H406      1.0  0.18258  0.36251  0.63385  1.0000
  H   H407      1.0  0.15735  0.37275  0.69085  1.0000
  H   H408      1.0  0.15110  0.38458  0.66512  1.0000
  H   H409      1.0  0.14612  0.32155  0.66450  1.0000
  H   H410      1.0  0.14320  0.33734  0.68847  1.0000
  H   H411      1.0  0.18542  0.32175  0.66364  1.0000
  H   H412      1.0  0.20047  0.34582  0.66471  1.0000
  H   H413      1.0  0.16729  0.33863  0.60717  1.0000
  H   H414      1.0  0.17941  0.32189  0.62818  1.0000
  H   H415      1.0  0.14976  0.32543  0.62711  1.0000
  H   H416      1.0  0.18159  0.40335  0.67965  1.0000
  H   H417      1.0  0.19768  0.37883  0.68371  1.0000
  H   H418      1.0  0.19188  0.38914  0.65614  1.0000
  H   H419      1.0  0.12184  0.34940  0.64403  1.0000
  H   H420      1.0  0.11941  0.36543  0.66895  1.0000
  H   H421      1.0  0.10918  0.33824  0.66850  1.0000
  H   H422      1.0  0.17846  0.31844  0.70105  1.0000
  H   H423      1.0  0.17858  0.34743  0.70599  1.0000
  H   H424      1.0  0.20387  0.33342  0.70076  1.0000
  C   C243      1.0  0.20007  0.00719  0.74440  1.0000
  C   C244      1.0  0.01741  0.35164  0.62629  1.0000
  H   H425      1.0  0.34288  0.46833  0.74923  1.0000
  H   H426      1.0  0.14703  0.02471  0.74489  1.0000
  H   H427      1.0  0.27722  0.05705  0.50633  1.0000
  C   C245      1.0  0.00714  0.31457  0.66199  1.0000
  C   C246      1.0  0.48212  0.07781  0.63726  1.0000
  C   C247      1.0  0.28632  0.49283  0.70419  1.0000
  C   C248      1.0  0.35472  0.03869  0.65273  1.0000
  S   S77       1.0  0.02126  0.38237  0.72393  1.0000
  H   H428      1.0  0.02092  0.36757  0.61758  1.0000
  H   H429      1.0  0.30177  0.48662  0.69609  1.0000
  H   H430      1.0  0.01138  0.30720  0.64586  1.0000
  H   H431      1.0  0.49070  0.25727  0.71086  1.0000
  H   H432      1.0  0.33639  0.07523  0.51115  1.0000
  C   C249      1.0  0.48075  0.22283  0.70599  1.0000
  S   S78       1.0  0.26494  0.44540  0.75083  1.0000
  H   H433      1.0  0.49160  0.07570  0.59216  1.0000
  H   H434      1.0  0.31212  0.03551  0.71077  1.0000
  C   C250      1.0  0.48693  0.09214  0.59864  1.0000
  H   H435      1.0  0.14495  0.49338  0.71574  1.0000
  C   C251      1.0  0.30928  0.45746  0.74938  1.0000
  C   C252      1.0  0.45835  0.08394  0.64523  1.0000
  H   H436      1.0  0.17354  0.19271  0.51679  1.0000
  H   H437      1.0  0.28981  0.06811  0.52967  1.0000
  H   H438      1.0  0.49120  0.13997  0.65641  1.0000
  C   C253      1.0  0.16662  0.48854  0.66477  1.0000
  H   H439      1.0  0.25274  0.33490  0.55367  1.0000
  H   H440      1.0  0.50016  0.12890  0.61801  1.0000
  H   H441      1.0  0.49565  0.10442  0.58784  1.0000
  H   H442      1.0  0.04839  0.38015  0.64151  1.0000
  H   H443      1.0  0.18452  0.49203  0.66372  1.0000
  H   H444      1.0  0.25399  0.49108  0.73817  1.0000
  H   H445      1.0  0.18608  0.25146  0.51575  1.0000
  C   C254      1.0  0.38979  0.00782  0.71248  1.0000
  H   H446      1.0  0.02160  0.31446  0.67269  1.0000
  H   H447      1.0  0.16172  0.48928  0.62856  1.0000
  C   C255      1.0  0.30096  0.02635  0.54244  1.0000
  C   C256      1.0  0.19765  0.20291  0.53860  1.0000
  N   N20       1.0  0.35788  0.00948  0.68481  1.0000
  H   H448      1.0  0.38034  0.01091  0.72803  1.0000
  H   H449      1.0  0.33671  0.00402  0.71353  1.0000
  H   H450      1.0  0.00363  0.34441  0.61738  1.0000
  H   H451      1.0  0.30717  0.09745  0.50592  1.0000
  H   H452      1.0  0.27805  0.09732  0.50455  1.0000
  H   H453      1.0  0.12867  0.26681  0.75394  1.0000
  Fe  Fe41      1.0  0.40977  0.44102  0.85066  1.0000
  S   S79       1.0  0.37342  0.43465  0.84862  1.0000
  S   S80       1.0  0.43364  0.41129  0.84926  1.0000
  Fe  Fe42      1.0  0.40150  0.49030  0.86059  1.0000
  H   H454      1.0  0.17102  0.02019  0.92547  1.0000
  Fe  Fe43      1.0  0.36937  0.45568  0.87870  1.0000
  S   S81       1.0  0.34630  0.44942  0.90852  1.0000
  Fe  Fe44      1.0  0.37153  0.46641  0.82871  1.0000
  S   S82       1.0  0.35646  0.46965  0.79415  1.0000
  S   S83       1.0  0.40556  0.45971  0.88209  1.0000
  S   S84       1.0  0.40841  0.47169  0.82927  1.0000
  Fe  Fe45      1.0  0.02587  0.16963  0.90349  1.0000
  S   S85       1.0  0.03457  0.15671  0.86984  1.0000
  Fe  Fe46      1.0  0.07443  0.16888  0.91759  1.0000
  S   S86       1.0  0.08641  0.15570  0.88475  1.0000
  S   S87       1.0  0.09428  0.16879  0.94938  1.0000
  Fe  Fe47      1.0  0.06240  0.18076  0.86958  1.0000
  S   S88       1.0  0.07233  0.19939  0.83732  1.0000
  Fe  Fe48      1.0  0.05777  0.13289  0.88714  1.0000
  S   S89       1.0  0.05557  0.09553  0.88336  1.0000
  S   S90       1.0  0.05232  0.19523  0.90236  1.0000
  S   S91       1.0  0.04709  0.14452  0.92078  1.0000
  C   C257      1.0  0.15216  0.32745  0.79984  1.0000
  H   H455      1.0  0.33586  0.41409  0.77423  1.0000
  S   S92       1.0  0.04133  0.28662  0.78328  1.0000
  S   S93       1.0  0.11423  0.02176  0.83460  1.0000
  C   C258      1.0  0.10070  0.00520  0.92114  1.0000
  H   H456      1.0  0.27160  0.33139  0.99563  1.0000
  C   C259      1.0  0.11378  0.18608  0.96132  1.0000
  C   C260      1.0  0.12278  0.17954  0.98169  1.0000
  C   C261      1.0  0.32903  0.46312  0.75944  1.0000
  H   H457      1.0  0.40231  0.42056  0.81126  1.0000
  C   C262      1.0  0.13494  0.21958  0.96234  1.0000
  C   C263      1.0  0.11998  0.20621  0.95168  1.0000
  H   H458      1.0  0.27600  0.49324  0.75605  1.0000
  H   H459      1.0  0.42071  0.43394  0.76478  1.0000
  H   H460      1.0  0.37364  0.38540  0.81113  1.0000
  H   H461      1.0  0.11321  0.21151  0.93607  1.0000
  C   C264      1.0  0.07175  0.07564  0.86878  1.0000
  C   C265      1.0  0.09080  0.08103  0.85659  1.0000
  C   C266      1.0  0.10346  0.06438  0.84602  1.0000
  C   C267      1.0  0.09751  0.04216  0.84788  1.0000
  C   C268      1.0  0.07849  0.03678  0.86007  1.0000
  C   C269      1.0  0.06559  0.05345  0.87026  1.0000
  H   H462      1.0  0.09571  0.09801  0.85529  1.0000
  H   H463      1.0  0.11805  0.06877  0.83650  1.0000
  H   H464      1.0  0.07357  0.01981  0.86149  1.0000
  H   H465      1.0  0.05087  0.04911  0.87962  1.0000
  C   C270      1.0  0.06355  0.22388  0.82276  1.0000
  C   C271      1.0  0.05010  0.24016  0.83251  1.0000
  C   C272      1.0  0.04334  0.25904  0.82013  1.0000
  C   C273      1.0  0.05030  0.26226  0.79797  1.0000
  C   C274      1.0  0.06403  0.24615  0.78833  1.0000
  C   C275      1.0  0.07058  0.22715  0.80064  1.0000
  H   H466      1.0  0.04506  0.23827  0.84965  1.0000
  H   H467      1.0  0.03286  0.27141  0.82788  1.0000
  H   H468      1.0  0.06930  0.24812  0.77126  1.0000
  H   H469      1.0  0.08104  0.21476  0.79288  1.0000
  C   C276      1.0  0.35414  0.43563  0.93338  1.0000
  C   C277      1.0  0.34153  0.43905  0.95285  1.0000
  C   C278      1.0  0.34648  0.42744  0.97260  1.0000
  C   C279      1.0  0.36373  0.41177  0.97291  1.0000
  C   C280      1.0  0.37638  0.40843  0.95349  1.0000
  C   C281      1.0  0.37179  0.42045  0.93391  1.0000
  H   H470      1.0  0.32789  0.45082  0.95262  1.0000
  H   H471      1.0  0.33682  0.43046  0.98747  1.0000
  H   H472      1.0  0.38966  0.39629  0.95343  1.0000
  H   H473      1.0  0.38155  0.41755  0.91905  1.0000
  C   C282      1.0  0.33110  0.46197  0.78253  1.0000
  H   H474      1.0  0.09968  0.08774  0.91736  1.0000
  C   C283      1.0  0.29318  0.44967  0.78537  1.0000
  C   C284      1.0  0.31305  0.45498  0.79542  1.0000
  H   H475      1.0  0.15765  0.32691  0.78226  1.0000
  H   H476      1.0  0.27928  0.44466  0.79562  1.0000
  H   H477      1.0  0.31428  0.45398  0.81317  1.0000
  H   H478      1.0  0.13962  0.23511  0.95473  1.0000
  C   C285      1.0  0.48263  0.41386  0.80168  1.0000
  C   C286      1.0  0.46465  0.41988  0.81563  1.0000
  C   C287      1.0  0.45683  0.40505  0.83180  1.0000
  C   C288      1.0  0.46745  0.38430  0.83405  1.0000
  C   C289      1.0  0.48565  0.37839  0.82033  1.0000
  H   H479      1.0  0.45698  0.43604  0.81399  1.0000
  H   H480      1.0  0.46161  0.37271  0.84654  1.0000
  C   C290      1.0  0.27943  0.36065  0.97494  1.0000
  N   N21       1.0  0.39162  0.40152  0.78405  1.0000
  H   H481      1.0  0.21277  0.00770  0.75717  1.0000
  C   C291      1.0  0.29105  0.45095  0.76230  1.0000
  H   H482      1.0  0.23971  0.49642  0.77472  1.0000
  C   C292      1.0  0.41419  0.43714  0.78163  1.0000
  H   H483      1.0  0.38038  0.36798  0.78879  1.0000
  H   H484      1.0  0.12310  0.07946  0.93289  1.0000
  H   H485      1.0  0.14629  0.05069  0.93740  1.0000
  C   C293      1.0  0.13765  0.19293  0.99236  1.0000
  H   H486      1.0  0.42182  0.36690  0.76769  1.0000
  H   H487      1.0  0.18488  0.02506  0.82223  1.0000
  H   H488      1.0  0.15839  0.03164  0.81178  1.0000
  C   C294      1.0  0.26627  0.34895  0.99387  1.0000
  H   H489      1.0  0.42403  0.40676  0.79718  1.0000
  C   C295      1.0  0.49331  0.39313  0.80398  1.0000
  H   H490      1.0  0.44085  0.39473  0.96935  1.0000
  C   C296      1.0  0.43046  0.38935  0.98372  1.0000
  H   H491      1.0  0.33718  0.34293  0.98587  1.0000
  H   H492      1.0  0.42124  0.40416  0.98955  1.0000
  H   H493      1.0  0.13438  0.05446  0.88067  1.0000
  H   H494      1.0  0.37263  0.42937  0.77069  1.0000
  C   C297      1.0  0.31459  0.37613  0.96199  1.0000
  H   H495      1.0  0.41868  0.37743  0.97757  1.0000
  H   H496      1.0  0.12708  0.05100  0.76379  1.0000
  H   H497      1.0  0.01172  0.21918  0.84135  1.0000
  C   C298      1.0  0.40588  0.37163  0.81239  1.0000
  S   S94       1.0  0.36473  0.48729  0.85866  1.0000
  N   N22       1.0  0.29855  0.37432  0.98138  1.0000
  H   H498      1.0  0.14797  0.05515  0.78364  1.0000
  C   C299      1.0  0.35048  0.40275  0.77369  1.0000
  N   N23       1.0  0.16580  0.00833  0.77094  1.0000
  C   C300      1.0  0.18154  0.01447  0.78853  1.0000
  C   C301      1.0  0.31117  0.36426  0.00033  1.0000
  H   H499      1.0  0.43512  0.39332  0.76497  1.0000
  C   C302      1.0  0.15542  0.02862  0.76036  1.0000
  C   C303      1.0  0.13920  0.04247  0.77463  1.0000
  H   H500      1.0  0.09042  0.21787  0.98978  1.0000
  C   C304      1.0  0.14384  0.21307  0.98274  1.0000
  H   H501      1.0  0.16189  0.31546  0.80987  1.0000
  C   C305      1.0  0.30631  0.38886  0.94138  1.0000
  C   C306      1.0  0.32192  0.34142  0.99620  1.0000
  C   C307      1.0  0.15647  0.01689  0.93623  1.0000
  H   H502      1.0  0.06223  0.21922  0.00012  1.0000
  H   H503      1.0  0.26755  0.37087  0.96518  1.0000
  H   H504      1.0  0.31062  0.33005  0.98846  1.0000
  C   C308      1.0  0.12204  0.26965  0.77090  1.0000
  H   H505      1.0  0.12904  0.03274  0.78644  1.0000
  S   S95       1.0  0.16216  0.23083  0.99579  1.0000
  C   C309      1.0  0.07823  0.21018  0.00121  1.0000
  C   C310      1.0  0.29097  0.39734  0.98722  1.0000
  H   H506      1.0  0.01449  0.20451  0.80684  1.0000
  H   H507      1.0  0.11898  0.33536  0.79038  1.0000
  N   N24       1.0  0.11963  0.30061  0.79974  1.0000
  C   C311      1.0  0.12717  0.32390  0.80241  1.0000
  C   C312      1.0  0.09486  0.30171  0.79927  1.0000
  C   C313      1.0  0.12865  0.29270  0.77784  1.0000
  C   C314      1.0  0.12821  0.28638  0.81855  1.0000
  H   H508      1.0  0.40842  0.38187  0.82692  1.0000
  C   C315      1.0  0.08315  0.31182  0.81963  1.0000
  H   H509      1.0  0.16222  0.01683  0.95346  1.0000
  C   C316      1.0  0.11555  0.26510  0.82450  1.0000
  H   H510      1.0  0.02925  0.18638  0.82547  1.0000
  H   H511      1.0  0.32994  0.38409  0.96689  1.0000
  H   H512      1.0  0.08785  0.28537  0.79728  1.0000
  H   H513      1.0  0.08932  0.31138  0.78452  1.0000
  H   H514      1.0  0.31823  0.38616  0.92745  1.0000
  H   H515      1.0  0.14694  0.29216  0.77749  1.0000
  H   H516      1.0  0.14577  0.28155  0.81535  1.0000
  H   H517      1.0  0.12797  0.29598  0.83397  1.0000
  H   H518      1.0  0.49365  0.36239  0.82229  1.0000
  H   H519      1.0  0.40019  0.44915  0.78108  1.0000
  H   H520      1.0  0.12543  0.08409  0.90325  1.0000
  H   H521      1.0  0.08937  0.30473  0.83532  1.0000
  H   H522      1.0  0.08459  0.32999  0.81941  1.0000
  H   H523      1.0  0.06529  0.30844  0.81920  1.0000
  H   H524      1.0  0.28283  0.40583  0.97309  1.0000
  S   S96       1.0  0.36910  0.39472  0.99649  1.0000
  H   H525      1.0  0.12945  0.25656  0.78158  1.0000
  H   H526      1.0  0.12746  0.25208  0.83003  1.0000
  H   H527      1.0  0.10643  0.25801  0.81100  1.0000
  H   H528      1.0  0.10413  0.26770  0.83884  1.0000
  H   H529      1.0  0.24866  0.34863  0.98947  1.0000
  H   H530      1.0  0.16974  0.03586  0.87026  1.0000
  H   H531      1.0  0.45446  0.36491  0.99356  1.0000
  H   H532      1.0  0.11814  0.16400  0.98928  1.0000
  H   H533      1.0  0.11041  0.01688  0.88863  1.0000
  H   H534      1.0  0.29006  0.38327  0.93621  1.0000
  C   C317      1.0  0.39894  0.39480  0.76120  1.0000
  H   H535      1.0  0.30538  0.40744  0.99103  1.0000
  H   H536      1.0  0.28534  0.34730  0.96382  1.0000
  H   H537      1.0  0.42743  0.44534  0.79034  1.0000
  C   C318      1.0  0.38687  0.38151  0.79862  1.0000
  C   C319      1.0  0.17173  0.01900  0.81173  1.0000
  H   H538      1.0  0.07568  0.19338  0.99503  1.0000
  H   H539      1.0  0.01853  0.17603  0.80089  1.0000
  S   S97       1.0  0.06062  0.34232  0.75931  1.0000
  H   H540      1.0  0.42171  0.36978  0.80320  1.0000
  H   H541      1.0  0.15517  0.05658  0.90043  1.0000
  H   H542      1.0  0.10401  0.26794  0.77013  1.0000
  H   H543      1.0  0.40133  0.35508  0.81889  1.0000
  H   H544      1.0  0.12226  0.33012  0.81897  1.0000
  H   H545      1.0  0.19102  0.02921  0.78321  1.0000
  C   C320      1.0  0.40824  0.41579  0.79449  1.0000
  C   C321      1.0  0.11810  0.01506  0.90506  1.0000
  H   H546      1.0  0.31991  0.35954  0.95625  1.0000
  H   H547      1.0  0.09730  0.04886  0.92740  1.0000
  H   H548      1.0  0.09875  0.05319  0.89845  1.0000
  C   C322      1.0  0.15699  0.02747  0.88061  1.0000
  H   H549      1.0  0.38704  0.38341  0.75424  1.0000
  H   H550      1.0  0.12598  0.03217  0.94699  1.0000
  N   N25       1.0  0.12758  0.03664  0.91151  1.0000
  C   C323      1.0  0.10874  0.05321  0.91346  1.0000
  H   H551      1.0  0.30572  0.40690  0.94392  1.0000
  C   C324      1.0  0.14341  0.04488  0.89365  1.0000
  C   C325      1.0  0.13847  0.03493  0.93355  1.0000
  C   C326      1.0  0.11502  0.07735  0.91695  1.0000
  H   H552      1.0  0.48849  0.42542  0.78917  1.0000
  H   H553      1.0  0.16543  0.01500  0.89110  1.0000
  H   H554      1.0  0.08524  0.01526  0.92155  1.0000
  C   C327      1.0  0.01506  0.18777  0.81436  1.0000
  C   C328      1.0  0.37049  0.41497  0.78214  1.0000
  H   H555      1.0  0.00964  0.23529  0.87688  1.0000
  H   H556      1.0  0.36550  0.42191  0.79843  1.0000
  C   C329      1.0  0.44535  0.37884  0.00152  1.0000
  H   H557      1.0  0.34624  0.38815  0.78409  1.0000
  H   H558      1.0  0.12374  0.30445  0.76439  1.0000
  H   H559      1.0  0.15585  0.34421  0.80545  1.0000
  H   H560      1.0  0.01412  0.19832  0.86187  1.0000
  H   H561      1.0  0.14637  0.01887  0.86918  1.0000
  H   H562      1.0  0.16572  0.00368  0.81984  1.0000
  C   C330      1.0  0.42165  0.38316  0.75909  1.0000
  H   H563      1.0  0.25802  0.39302  0.00235  1.0000
  H   H564      1.0  0.35290  0.39799  0.75627  1.0000
  H   H565      1.0  0.16836  0.04018  0.75455  1.0000
  Fe  Fe49      1.0  0.16755  0.89542  0.03315  1.0000
  S   S98       1.0  0.16472  0.86071  0.04658  1.0000
  Fe  Fe50      1.0  0.16566  0.91415  0.08007  1.0000
  S   S99       1.0  0.16259  0.88030  0.09599  1.0000
  S   S100      1.0  0.16146  0.94394  0.10269  1.0000
  Fe  Fe51      1.0  0.18921  0.86949  0.07160  1.0000
  S   S101      1.0  0.22007  0.84941  0.08187  1.0000
  Fe  Fe52      1.0  0.13824  0.87414  0.06958  1.0000
  S   S102      1.0  0.10713  0.85354  0.07141  1.0000
  S   S103      1.0  0.19371  0.90380  0.05717  1.0000
  S   S104      1.0  0.13962  0.90833  0.05473  1.0000
  Fe  Fe53      1.0  0.47159  0.66832  0.23297  1.0000
  Fe  Fe54      1.0  0.44275  0.69293  0.19946  1.0000
  S   S105      1.0  0.41891  0.70522  0.22535  1.0000
  S   S106      1.0  0.43883  0.69268  0.16229  1.0000
  C   C331      1.0  0.35830  0.62542  0.24305  1.0000
  H   H566      1.0  0.25563  0.92866  0.18665  1.0000
  S   S107      1.0  0.47280  0.70261  0.21779  1.0000
  S   S108      1.0  0.44302  0.65841  0.21321  1.0000
  Fe  Fe55      1.0  0.31990  0.69458  0.07149  1.0000
  S   S109      1.0  0.30873  0.72260  0.09271  1.0000
  S   S110      1.0  0.31622  0.65830  0.07965  1.0000
  Fe  Fe56      1.0  0.34321  0.72434  0.03721  1.0000
  S   S111      1.0  0.33435  0.75484  0.05646  1.0000
  Fe  Fe57      1.0  0.34325  0.73420  0.08648  1.0000
  S   S112      1.0  0.36181  0.74697  0.11520  1.0000
  Fe  Fe58      1.0  0.30049  0.74107  0.06107  1.0000
  S   S113      1.0  0.26756  0.75873  0.05286  1.0000
  S   S114      1.0  0.35492  0.70518  0.06698  1.0000
  S   S115      1.0  0.30887  0.71154  0.04014  1.0000
  Fe  Fe59      1.0  0.31724  0.56617  0.20215  1.0000
  S   S116      1.0  0.28986  0.58838  0.21454  1.0000
  S   S117      1.0  0.35376  0.57085  0.20615  1.0000
  Fe  Fe60      1.0  0.28625  0.53598  0.17837  1.0000
  S   S118      1.0  0.25647  0.55703  0.18810  1.0000
  H   H567      1.0  0.38857  0.68285  0.18050  1.0000
  Fe  Fe61      1.0  0.27781  0.58610  0.17987  1.0000
  S   S119      1.0  0.26593  0.61835  0.16400  1.0000
  Fe  Fe62      1.0  0.27060  0.55760  0.22196  1.0000
  C   C332      1.0  0.20628  0.99668  0.13078  1.0000
  S   S120      1.0  0.30614  0.56517  0.16714  1.0000
  S   S121      1.0  0.29958  0.53548  0.21252  1.0000
  H   H568      1.0  0.24749  0.99781  0.22152  1.0000
  C   C333      1.0  0.28060  0.62948  0.14098  1.0000
  C   C334      1.0  0.29485  0.61638  0.12814  1.0000
  C   C335      1.0  0.30568  0.62549  0.10944  1.0000
  C   C336      1.0  0.30283  0.64787  0.10374  1.0000
  C   C337      1.0  0.28913  0.66117  0.11697  1.0000
  C   C338      1.0  0.27773  0.65190  0.13530  1.0000
  H   H569      1.0  0.29703  0.59907  0.13219  1.0000
  H   H570      1.0  0.31622  0.61507  0.09926  1.0000
  H   H571      1.0  0.28721  0.67849  0.11299  1.0000
  H   H572      1.0  0.26688  0.66216  0.14532  1.0000
  N   N26       1.0  0.34708  0.66148  0.16789  1.0000
  C   C339      1.0  0.38582  0.66507  0.18365  1.0000
  H   H573      1.0  0.39513  0.59204  0.20224  1.0000
  C   C340      1.0  0.36318  0.59481  0.21825  1.0000
  C   C341      1.0  0.34987  0.60699  0.23286  1.0000
  H   H574      1.0  0.19666  0.51689  0.23965  1.0000
  N   N27       1.0  0.09364  0.88720  0.00679  1.0000
  H   H575      1.0  0.03813  0.82916  0.14337  1.0000
  C   C342      1.0  0.41650  0.70707  0.15000  1.0000
  C   C343      1.0  0.40576  0.72475  0.16039  1.0000
  C   C344      1.0  0.38888  0.73669  0.14962  1.0000
  C   C345      1.0  0.38221  0.73073  0.12866  1.0000
  C   C346      1.0  0.39244  0.71256  0.11859  1.0000
  C   C347      1.0  0.40972  0.70097  0.12910  1.0000
  H   H576      1.0  0.41087  0.72963  0.17647  1.0000
  H   H577      1.0  0.38107  0.75072  0.15754  1.0000
  H   H578      1.0  0.38732  0.70767  0.10258  1.0000
  H   H579      1.0  0.41786  0.68723  0.12101  1.0000
  C   C348      1.0  0.08138  0.85937  0.08489  1.0000
  C   C349      1.0  0.06445  0.84405  0.08376  1.0000
  C   C350      1.0  0.04343  0.84837  0.09333  1.0000
  C   C351      1.0  0.03917  0.86802  0.10435  1.0000
  C   C352      1.0  0.05615  0.88322  0.10570  1.0000
  C   C353      1.0  0.07710  0.87901  0.09593  1.0000
  H   H580      1.0  0.06757  0.82882  0.07523  1.0000
  H   H581      1.0  0.03058  0.83648  0.09221  1.0000
  H   H582      1.0  0.05311  0.89841  0.11432  1.0000
  H   H583      1.0  0.08994  0.89094  0.09697  1.0000
  C   C354      1.0  0.23262  0.82383  0.07389  1.0000
  C   C355      1.0  0.22296  0.80983  0.05910  1.0000
  C   C356      1.0  0.23394  0.79007  0.05287  1.0000
  C   C357      1.0  0.25467  0.78398  0.06129  1.0000
  C   C358      1.0  0.26425  0.79790  0.07613  1.0000
  C   C359      1.0  0.25328  0.81766  0.08236  1.0000
  H   H584      1.0  0.20705  0.81424  0.05251  1.0000
  H   H585      1.0  0.22631  0.77942  0.04143  1.0000
  H   H586      1.0  0.28012  0.79350  0.08283  1.0000
  H   H587      1.0  0.26093  0.82831  0.09380  1.0000
  H   H588      1.0  0.45733  0.65950  0.12731  1.0000
  H   H589      1.0  0.05368  0.88048  0.04935  1.0000
  H   H590      1.0  0.33956  0.64146  0.14010  1.0000
  H   H591      1.0  0.38110  0.75952  0.03675  1.0000
  H   H592      1.0  0.45198  0.63402  0.11471  1.0000
  C   C360      1.0  0.17136  0.97782  0.13005  1.0000
  C   C361      1.0  0.17953  0.96351  0.11365  1.0000
  C   C362      1.0  0.20136  0.96567  0.10615  1.0000
  C   C363      1.0  0.47479  0.61629  0.17966  1.0000
  H   H593      1.0  0.12507  0.90359  0.00882  1.0000
  H   H594      1.0  0.23796  0.52229  0.21973  1.0000
  H   H595      1.0  0.20792  0.95491  0.09353  1.0000
  H   H596      1.0  0.21296  0.52171  0.17888  1.0000
  H   H597      1.0  0.27473  0.67681  0.06465  1.0000
  H   H598      1.0  0.46590  0.65040  0.17225  1.0000
  H   H599      1.0  0.24832  0.66746  0.07310  1.0000
  C   C364      1.0  0.21118  0.52132  0.19716  1.0000
  H   H600      1.0  0.05269  0.86282  0.18130  1.0000
  H   H601      1.0  0.49033  0.64621  0.18692  1.0000
  C   C365      1.0  0.27492  0.95846  0.18991  1.0000
  H   H602      1.0  0.00895  0.95264  0.11525  1.0000
  H   H603      1.0  0.26867  0.50599  0.23320  1.0000
  H   H604      1.0  0.42158  0.77892  0.07924  1.0000
  H   H605      1.0  0.22693  0.85083  0.03513  1.0000
  C   C366      1.0  0.40384  0.76726  0.01003  1.0000
  C   C367      1.0  0.01828  0.85475  0.17542  1.0000
  H   H606      1.0  0.24939  0.89489  0.02317  1.0000
  H   H607      1.0  0.40954  0.70180  0.06707  1.0000
  H   H608      1.0  0.46732  0.75270  0.02576  1.0000
  C   C368      1.0  0.23022  0.86442  0.02308  1.0000
  C   C369      1.0  0.23203  0.51065  0.20753  1.0000
  H   H609      1.0  0.40459  0.76735  0.10075  1.0000
  H   H610      1.0  0.19541  0.51383  0.20200  1.0000
  C   C370      1.0  0.35001  0.68381  0.15680  1.0000
  H   H611      1.0  0.28784  0.99293  0.23064  1.0000
  H   H612      1.0  0.43672  0.70908  0.05714  1.0000
  H   H613      1.0  0.46488  0.60840  0.16715  1.0000
  C   C371      1.0  0.33550  0.68905  0.13676  1.0000
  H   H614      1.0  0.33681  0.67609  0.12423  1.0000
  C   C372      1.0  0.05931  0.81756  0.18054  1.0000
  H   H615      1.0  0.28508  0.83152  0.02209  1.0000
  H   H616      1.0  0.04609  0.86243  0.15224  1.0000
  H   H617      1.0  0.01433  0.86009  0.19248  1.0000
  C   C373      1.0  0.49795  0.66653  0.14700  1.0000
  H   H618      1.0  0.02740  0.79565  0.12897  1.0000
  H   H619      1.0  0.31697  0.62446  0.17688  1.0000
  H   H620      1.0  0.29891  0.64087  0.19334  1.0000
  N   N28       1.0  0.49445  0.64236  0.15167  1.0000
  H   H621      1.0  0.21287  0.97527  0.20602  1.0000
  N   N29       1.0  0.01853  0.82998  0.17410  1.0000
  C   C374      1.0  0.31639  0.63888  0.18776  1.0000
  C   C375      1.0  0.22464  0.68515  0.11503  1.0000
  H   H622      1.0  0.24311  0.97205  0.16479  1.0000
  H   H623      1.0  0.46456  0.61686  0.19508  1.0000
  H   H624      1.0  0.22498  0.82348  0.00937  1.0000
  H   H625      1.0  0.34113  0.70451  0.12859  1.0000
  H   H626      1.0  0.31240  0.66105  0.16073  1.0000
  H   H627      1.0  0.25690  0.93758  0.21478  1.0000
  H   H628      1.0  0.06322  0.80050  0.17526  1.0000
  H   H629      1.0  0.41907  0.77668  0.00711  1.0000
  H   H630      1.0  0.23124  0.98396  0.10828  1.0000
  H   H631      1.0  0.23873  0.88595  0.04950  1.0000
  H   H632      1.0  0.48946  0.60584  0.18353  1.0000
  C   C376      1.0  0.03522  0.81954  0.18939  1.0000
  H   H633      1.0  0.23366  0.99580  0.17879  1.0000
  C   C377      1.0  0.24620  0.88014  0.03373  1.0000
  H   H634      1.0  0.35502  0.60816  0.14964  1.0000
  H   H635      1.0  0.22427  0.94913  0.19666  1.0000
  H   H636      1.0  0.44762  0.63634  0.14371  1.0000
  C   C378      1.0  0.40605  0.77016  0.08261  1.0000
  H   H637      1.0  0.21308  0.67258  0.12162  1.0000
  H   H638      1.0  0.04960  0.87361  0.02146  1.0000
  N   N30       1.0  0.41311  0.74766  0.04724  1.0000
  C   C379      1.0  0.40551  0.74777  0.07114  1.0000
  C   C380      1.0  0.40931  0.72499  0.03873  1.0000
  C   C381      1.0  0.39872  0.76407  0.03486  1.0000
  C   C382      1.0  0.43701  0.75395  0.04567  1.0000
  H   H639      1.0  0.11839  0.87016  0.02626  1.0000
  C   C383      1.0  0.41977  0.70570  0.05212  1.0000
  H   H640      1.0  0.24410  0.96933  0.22533  1.0000
  C   C384      1.0  0.26612  0.93633  0.19892  1.0000
  H   H641      1.0  0.38836  0.74178  0.07300  1.0000
  H   H642      1.0  0.41580  0.73627  0.08132  1.0000
  H   H643      1.0  0.00508  0.86210  0.16494  1.0000
  H   H644      1.0  0.39138  0.72187  0.03837  1.0000
  H   H645      1.0  0.19133  0.84840  0.00803  1.0000
  H   H646      1.0  0.39970  0.78079  0.04171  1.0000
  H   H647      1.0  0.43840  0.77220  0.04508  1.0000
  H   H648      1.0  0.44588  0.74841  0.06074  1.0000
  H   H649      1.0  0.26492  0.81340  0.01142  1.0000
  C   C385      1.0  0.24001  0.97871  0.18156  1.0000
  H   H650      1.0  0.27723  0.95632  0.17183  1.0000
  H   H651      1.0  0.31887  0.51561  0.13591  1.0000
  C   C386      1.0  0.27577  0.97986  0.23405  1.0000
  H   H652      1.0  0.21412  0.87348  0.02198  1.0000
  H   H653      1.0  0.26192  0.87172  0.03810  1.0000
  H   H654      1.0  0.26977  0.98213  0.25132  1.0000
  H   H655      1.0  0.03534  0.82855  0.20515  1.0000
  H   H656      1.0  0.20720  0.96585  0.17929  1.0000
  H   H657      1.0  0.21547  0.57508  0.24005  1.0000
  H   H658      1.0  0.41512  0.72337  0.02136  1.0000
  N   N31       1.0  0.23032  0.71127  0.08118  1.0000
  C   C387      1.0  0.22104  0.71590  0.05865  1.0000
  C   C388      1.0  0.25374  0.70298  0.07781  1.0000
  C   C389      1.0  0.22958  0.73267  0.09361  1.0000
  C   C390      1.0  0.21626  0.69428  0.09284  1.0000
  C   C391      1.0  0.19774  0.72667  0.05832  1.0000
  C   C392      1.0  0.25696  0.68144  0.06501  1.0000
  C   C393      1.0  0.24793  0.73638  0.11014  1.0000
  H   H659      1.0  0.24093  0.67670  0.11330  1.0000
  H   H660      1.0  0.23215  0.72686  0.04870  1.0000
  H   H661      1.0  0.21998  0.70053  0.04920  1.0000
  H   H662      1.0  0.26197  0.70008  0.09369  1.0000
  H   H663      1.0  0.26365  0.71565  0.06891  1.0000
  H   H664      1.0  0.23065  0.74713  0.08202  1.0000
  H   H665      1.0  0.21352  0.73498  0.10259  1.0000
  H   H666      1.0  0.19941  0.70106  0.09631  1.0000
  H   H667      1.0  0.21400  0.67996  0.08209  1.0000
  H   H668      1.0  0.19678  0.74270  0.06669  1.0000
  H   H669      1.0  0.19330  0.73006  0.04090  1.0000
  H   H670      1.0  0.18512  0.71557  0.06552  1.0000
  C   C394      1.0  0.48117  0.63997  0.17285  1.0000
  H   H671      1.0  0.10741  0.61666  0.23791  1.0000
  H   H672      1.0  0.25226  0.68342  0.04755  1.0000
  H   H673      1.0  0.26368  0.73988  0.10125  1.0000
  H   H674      1.0  0.25049  0.72250  0.12195  1.0000
  C   C395      1.0  0.03983  0.86635  0.16900  1.0000
  H   H675      1.0  0.38086  0.68585  0.01376  1.0000
  H   H676      1.0  0.34704  0.69725  0.16881  1.0000
  C   C396      1.0  0.25589  0.98157  0.21871  1.0000
  H   H677      1.0  0.06389  0.82926  0.16710  1.0000
  H   H678      1.0  0.48196  0.67578  0.14673  1.0000
  C   C397      1.0  0.21456  0.98221  0.11459  1.0000
  H   H679      1.0  0.35303  0.61657  0.17731  1.0000
  H   H680      1.0  0.39295  0.65541  0.16984  1.0000
  H   H681      1.0  0.28943  0.99984  0.19549  1.0000
  H   H682      1.0  0.49146  0.63677  0.11680  1.0000
  C   C398      1.0  0.22024  0.96634  0.19178  1.0000
  H   H683      1.0  0.39173  0.78084  0.07803  1.0000
  H   H684      1.0  0.10150  0.93128  0.02568  1.0000
  C   C399      1.0  0.32323  0.65999  0.17513  1.0000
  C   C400      1.0  0.37991  0.63203  0.23836  1.0000
  H   H685      1.0  0.46557  0.59208  0.25263  1.0000
  H   H686      1.0  0.09069  0.89391  0.04165  1.0000
  C   C401      1.0  0.45095  0.74494  0.02604  1.0000
  H   H687      1.0  0.29202  0.96021  0.19569  1.0000
  Fe  Fe63      1.0  0.44867  0.71247  0.24551  1.0000
  C   C402      1.0  0.38477  0.60144  0.21353  1.0000
  H   H688      1.0  0.03077  0.78851  0.15752  1.0000
  H   H689      1.0  0.31835  0.67418  0.18566  1.0000
  C   C403      1.0  0.39303  0.62013  0.22333  1.0000
  H   H690      1.0  0.28414  0.96347  0.23345  1.0000
  C   C404      1.0  0.06235  0.87496  0.03403  1.0000
  H   H691      1.0  0.42037  0.69071  0.04195  1.0000
  H   H692      1.0  0.14771  0.61743  0.24509  1.0000
  Fe  Fe64      1.0  0.42131  0.67123  0.24021  1.0000
  C   C405      1.0  0.07986  0.89202  0.02728  1.0000
  H   H693      1.0  0.29287  0.98693  0.15751  1.0000
  H   H694      1.0  0.03038  0.80243  0.19406  1.0000
  H   H695      1.0  0.01464  0.97074  0.07590  1.0000
  H   H696      1.0  0.22511  0.69812  0.12747  1.0000
  H   H697      1.0  0.28024  0.92493  0.20241  1.0000
  H   H698      1.0  0.00419  0.93772  0.09175  1.0000
  H   H699      1.0  0.09291  0.58180  0.24540  1.0000
  H   H700      1.0  0.40970  0.62497  0.21963  1.0000
  H   H701      1.0  0.33326  0.60190  0.23670  1.0000
  H   H702      1.0  0.06878  0.61555  0.25070  1.0000
  S   S122      1.0  0.01327  0.87417  0.11734  1.0000
  H   H703      1.0  0.31803  0.69208  0.14176  1.0000
  H   H704      1.0  0.24362  0.75124  0.11983  1.0000
  H   H705      1.0  0.45402  0.72693  0.02770  1.0000
  H   H706      1.0  0.32596  0.63554  0.20277  1.0000
  C   C406      1.0  0.45858  0.64138  0.12969  1.0000
  H   H707      1.0  0.39508  0.66056  0.19866  1.0000
  C   C407      1.0  0.27378  0.99862  0.18661  1.0000
  C   C408      1.0  0.26752  0.83009  0.01784  1.0000
  C   C409      1.0  0.36120  0.66065  0.18798  1.0000
  H   H708      1.0  0.35503  0.67289  0.20023  1.0000
  C   C410      1.0  0.02219  0.82360  0.15039  1.0000
  H   H709      1.0  0.36750  0.64938  0.14093  1.0000
  H   H710      1.0  0.37848  0.61923  0.16152  1.0000
  H   H711      1.0  0.36031  0.64465  0.19694  1.0000
  C   C411      1.0  0.35332  0.64391  0.15152  1.0000
  H   H712      1.0  0.36723  0.68569  0.15056  1.0000
  H   H713      1.0  0.24489  0.51045  0.19415  1.0000
  N   N32       1.0  0.26099  0.97876  0.19444  1.0000
  C   C412      1.0  0.36028  0.62098  0.16101  1.0000
  S   S123      1.0  0.49678  0.63984  0.23635  1.0000
  H   H714      1.0  0.15452  0.97637  0.13600  1.0000
  C   C413      1.0  0.48256  0.63302  0.13264  1.0000
  H   H715      1.0  0.48232  0.61472  0.13394  1.0000
  C   C414      1.0  0.18464  0.99418  0.13868  1.0000
  H   H716      1.0  0.20977  0.53883  0.20202  1.0000
  H   H717      1.0  0.07058  0.82050  0.19423  1.0000
  H   H718      1.0  0.06955  0.85848  0.03794  1.0000
  C   C415      1.0  0.10111  0.92947  0.00753  1.0000
  H   H719      1.0  0.03664  0.88444  0.16891  1.0000
  H   H720      1.0  0.25826  0.83159  0.03364  1.0000
  H   H721      1.0  0.07048  0.90782  0.02564  1.0000
  H   H722      1.0  0.09789  0.85269  0.01692  1.0000
  C   C416      1.0  0.10788  0.86710  0.01191  1.0000
  C   C417      1.0  0.02093  0.79878  0.14592  1.0000
  C   C418      1.0  0.28025  0.99969  0.16184  1.0000
  H   H723      1.0  0.00602  0.92433  0.13882  1.0000
  H   H724      1.0  0.00978  0.83212  0.13982  1.0000
  H   H725      1.0  0.26594  0.99845  0.15106  1.0000
  S   S124      1.0  0.39029  0.65443  0.25247  1.0000
  H   H726      1.0  0.44364  0.74858  0.00985  1.0000
  H   H727      1.0  0.13737  0.59033  0.24817  1.0000
  H   H728      1.0  0.00426  0.98705  0.09850  1.0000
  H   H729      1.0  0.00362  0.79335  0.14656  1.0000
  C   C419      1.0  0.38269  0.79746  0.48979  1.0000
  H   H730      1.0  0.18887  0.56457  0.33391  1.0000
  Fe  Fe65      1.0  0.49206  0.85979  0.39669  1.0000
  S   S125      1.0  0.47845  0.85929  0.36246  1.0000
  Fe  Fe66      1.0  0.45149  0.83702  0.41791  1.0000
  S   S126      1.0  0.43490  0.83452  0.38512  1.0000
  S   S127      1.0  0.44174  0.83124  0.45448  1.0000
  Fe  Fe67      1.0  0.46838  0.82441  0.37106  1.0000
  S   S128      1.0  0.47842  0.79615  0.34778  1.0000
  Fe  Fe68      1.0  0.44590  0.86946  0.37818  1.0000
  S   S129      1.0  0.42045  0.89464  0.36507  1.0000
  S   S130      1.0  0.48434  0.82450  0.40444  1.0000
  S   S131      1.0  0.46003  0.87244  0.41155  1.0000
  Fe  Fe69      1.0  0.13758  0.56376  0.37912  1.0000
  S   S132      1.0  0.10122  0.55889  0.38266  1.0000
  S   S133      1.0  0.16184  0.56771  0.40705  1.0000
  Fe  Fe70      1.0  0.13762  0.55782  0.32864  1.0000
  S   S134      1.0  0.10091  0.55219  0.32894  1.0000
  S   S135      1.0  0.15555  0.56387  0.29516  1.0000
  Fe  Fe71      1.0  0.09775  0.58039  0.35213  1.0000
  S   S136      1.0  0.07447  0.61057  0.35024  1.0000
  Fe  Fe72      1.0  0.10666  0.53071  0.35930  1.0000
  S   S137      1.0  0.13396  0.58737  0.35024  1.0000
  S   S138      1.0  0.14356  0.53427  0.35739  1.0000
  C   C420      1.0  0.18922  0.56948  0.26428  1.0000
  H   H731      1.0  0.22102  0.58465  0.30863  1.0000
  H   H732      1.0  0.11047  0.57303  0.26706  1.0000
  H   H733      1.0  0.42844  0.65895  0.31931  1.0000
  H   H734      1.0  0.45788  0.62885  0.26604  1.0000
  C   C421      1.0  0.43908  0.64508  0.31332  1.0000
  C   C422      1.0  0.05234  0.61574  0.33214  1.0000
  C   C423      1.0  0.04418  0.63746  0.32926  1.0000
  C   C424      1.0  0.02676  0.64239  0.31492  1.0000
  H   H735      1.0  0.34808  0.63450  0.25470  1.0000
  C   C425      1.0  0.02522  0.60385  0.30643  1.0000
  C   C426      1.0  0.04271  0.59892  0.32069  1.0000
  H   H736      1.0  0.05154  0.65060  0.33801  1.0000
  H   H737      1.0  0.21985  0.69606  0.47094  1.0000
  H   H738      1.0  0.40616  0.88594  0.28153  1.0000
  H   H739      1.0  0.04859  0.58210  0.32301  1.0000
  C   C427      1.0  0.18246  0.55825  0.28379  1.0000
  N   N33       1.0  0.43736  0.86071  0.30363  1.0000
  H   H740      1.0  0.48223  0.82304  0.30324  1.0000
  C   C428      1.0  0.19710  0.54292  0.29336  1.0000
  H   H741      1.0  0.20266  0.51811  0.37562  1.0000
  H   H742      1.0  0.19265  0.53155  0.35131  1.0000
  H   H743      1.0  0.19201  0.53364  0.30795  1.0000
  C   C429      1.0  0.46763  0.78051  0.32600  1.0000
  C   C430      1.0  0.48159  0.76536  0.31484  1.0000
  C   C431      1.0  0.47417  0.75344  0.29680  1.0000
  C   C432      1.0  0.45270  0.75678  0.28936  1.0000
  C   C433      1.0  0.43866  0.77170  0.30075  1.0000
  C   C434      1.0  0.44589  0.78310  0.31918  1.0000
  C   C435      1.0  0.07210  0.64168  0.27364  1.0000
  H   H744      1.0  0.48530  0.74223  0.28822  1.0000
  H   H745      1.0  0.42199  0.77437  0.29530  1.0000
  H   H746      1.0  0.43472  0.79399  0.32803  1.0000
  C   C436      1.0  0.42719  0.96781  0.34420  1.0000
  C   C437      1.0  0.40650  0.95856  0.34752  1.0000
  C   C438      1.0  0.40479  0.93616  0.35391  1.0000
  C   C439      1.0  0.42369  0.92285  0.35755  1.0000
  C   C440      1.0  0.44440  0.93216  0.35451  1.0000
  C   C441      1.0  0.44610  0.95442  0.34758  1.0000
  H   H747      1.0  0.39181  0.96854  0.34471  1.0000
  H   H748      1.0  0.38870  0.92909  0.35604  1.0000
  H   H749      1.0  0.45910  0.92214  0.35710  1.0000
  H   H750      1.0  0.46220  0.96135  0.34490  1.0000
  H   H751      1.0  0.42457  0.64354  0.28150  1.0000
  C   C442      1.0  0.38760  0.79359  0.46739  1.0000
  C   C443      1.0  0.40516  0.80422  0.45615  1.0000
  C   C444      1.0  0.41836  0.81858  0.46732  1.0000
  C   C445      1.0  0.41352  0.82238  0.48977  1.0000
  H   H752      1.0  0.25495  0.69735  0.48723  1.0000
  H   H753      1.0  0.37775  0.78226  0.45863  1.0000
  H   H754      1.0  0.40870  0.80098  0.43896  1.0000
  H   H755      1.0  0.20368  0.60901  0.33187  1.0000
  H   H756      1.0  0.38581  0.84137  0.32128  1.0000
  C   C446      1.0  0.15377  0.60513  0.47246  1.0000
  C   C447      1.0  0.13988  0.61020  0.45473  1.0000
  C   C448      1.0  0.14159  0.59844  0.43494  1.0000
  C   C449      1.0  0.15765  0.58174  0.43237  1.0000
  C   C450      1.0  0.17168  0.57678  0.45003  1.0000
  C   C451      1.0  0.16958  0.58816  0.47005  1.0000
  H   H757      1.0  0.12773  0.62341  0.45623  1.0000
  H   H758      1.0  0.13080  0.60262  0.42150  1.0000
  H   H759      1.0  0.18416  0.56391  0.44828  1.0000
  H   H760      1.0  0.18033  0.58392  0.48350  1.0000
  H   H761      1.0  0.11182  0.64199  0.29258  1.0000
  H   H762      1.0  0.39975  0.83619  0.29550  1.0000
  H   H763      1.0  0.10253  0.61703  0.49041  1.0000
  H   H764      1.0  0.44358  0.63469  0.32781  1.0000
  H   H765      1.0  0.43125  0.58561  0.26531  1.0000
  H   H766      1.0  0.44671  0.97846  0.44254  1.0000
  C   C452      1.0  0.45133  0.84072  0.30990  1.0000
  N   N34       1.0  0.21898  0.66980  0.49545  1.0000
  S   S139      1.0  0.44312  0.74446  0.26494  1.0000
  C   C453      1.0  0.23586  0.58169  0.31865  1.0000
  H   H767      1.0  0.07525  0.57091  0.29257  1.0000
  H   H768      1.0  0.24214  0.59735  0.32465  1.0000
  H   H769      1.0  0.17807  0.58121  0.25651  1.0000
  H   H770      1.0  0.06174  0.60902  0.27862  1.0000
  C   C454      1.0  0.23546  0.66835  0.45538  1.0000
  H   H771      1.0  0.43756  0.90639  0.28637  1.0000
  H   H772      1.0  0.02098  0.65922  0.31249  1.0000
  C   C455      1.0  0.43984  0.59455  0.30829  1.0000
  H   H773      1.0  0.05502  0.64749  0.27018  1.0000
  H   H774      1.0  0.20142  0.67474  0.46512  1.0000
  C   C456      1.0  0.47514  0.83990  0.30043  1.0000
  H   H775      1.0  0.41988  0.85896  0.33511  1.0000
  S   S140      1.0  0.15115  0.62121  0.49667  1.0000
  C   C457      1.0  0.21839  0.53949  0.28395  1.0000
  H   H776      1.0  0.42290  0.61271  0.25694  1.0000
  H   H777      1.0  0.24871  0.57494  0.30712  1.0000
  H   H778      1.0  0.22590  0.54989  0.32874  1.0000
  C   C458      1.0  0.39565  0.81213  0.50087  1.0000
  C   C459      1.0  0.21795  0.67785  0.47178  1.0000
  H   H779      1.0  0.48506  0.89504  0.47362  1.0000
  H   H780      1.0  0.08911  0.60209  0.30550  1.0000
  H   H781      1.0  0.36821  0.99693  0.42329  1.0000
  C   C460      1.0  0.41625  0.85927  0.31719  1.0000
  C   C461      1.0  0.40228  0.83896  0.31320  1.0000
  H   H782      1.0  0.45506  0.59825  0.31722  1.0000
  H   H783      1.0  0.48901  0.84559  0.44959  1.0000
  C   C462      1.0  0.20712  0.64844  0.49894  1.0000
  H   H784      1.0  0.45408  0.65259  0.30592  1.0000
  C   C463      1.0  0.44939  0.88093  0.31001  1.0000
  H   H785      1.0  0.01780  0.59070  0.29772  1.0000
  H   H786      1.0  0.18186  0.69974  0.48751  1.0000
  H   H787      1.0  0.24886  0.68023  0.45228  1.0000
  H   H788      1.0  0.45233  0.83870  0.32815  1.0000
  H   H789      1.0  0.42356  0.83348  0.49859  1.0000
  H   H790      1.0  0.43115  0.98734  0.46551  1.0000
  H   H791      1.0  0.39171  0.58903  0.26273  1.0000
  N   N35       1.0  0.21563  0.57108  0.35552  1.0000
  C   C464      1.0  0.21400  0.55169  0.37154  1.0000
  C   C465      1.0  0.22487  0.58983  0.36795  1.0000
  C   C466      1.0  0.23163  0.56455  0.33727  1.0000
  C   C467      1.0  0.19304  0.57638  0.34677  1.0000
  C   C468      1.0  0.20719  0.52967  0.36186  1.0000
  C   C469      1.0  0.21097  0.59746  0.38815  1.0000
  C   C470      1.0  0.18890  0.59991  0.33706  1.0000
  H   H792      1.0  0.22992  0.54853  0.37990  1.0000
  H   H793      1.0  0.20171  0.55518  0.38496  1.0000
  H   H794      1.0  0.22752  0.60457  0.35727  1.0000
  H   H795      1.0  0.24159  0.58523  0.37392  1.0000
  H   H796      1.0  0.24788  0.55966  0.34419  1.0000
  H   H797      1.0  0.18037  0.57408  0.36017  1.0000
  C   C471      1.0  0.47222  0.59619  0.26885  1.0000
  C   C472      1.0  0.43298  0.98972  0.44735  1.0000
  H   H798      1.0  0.21745  0.61314  0.39403  1.0000
  H   H799      1.0  0.19342  0.60050  0.38432  1.0000
  H   H800      1.0  0.21205  0.58539  0.40214  1.0000
  H   H801      1.0  0.23360  0.62428  0.48991  1.0000
  H   H802      1.0  0.17875  0.59881  0.32217  1.0000
  H   H803      1.0  0.17890  0.60997  0.34882  1.0000
  N   N36       1.0  0.41200  0.97746  0.41308  1.0000
  C   C473      1.0  0.38904  0.97142  0.40687  1.0000
  C   C474      1.0  0.42666  0.95735  0.40975  1.0000
  H   H804      1.0  0.42605  0.60191  0.34126  1.0000
  H   H805      1.0  0.47029  0.62243  0.29163  1.0000
  H   H806      1.0  0.11463  0.63478  0.25838  1.0000
  C   C475      1.0  0.42059  0.93658  0.42346  1.0000
  H   H807      1.0  0.22775  0.66636  0.43917  1.0000
  C   C476      1.0  0.21619  0.62837  0.48636  1.0000
  H   H808      1.0  0.38928  0.96412  0.39021  1.0000
  H   H809      1.0  0.38229  0.95860  0.41836  1.0000
  H   H810      1.0  0.44412  0.96046  0.41307  1.0000
  H   H811      1.0  0.42679  0.95279  0.39215  1.0000
  H   H812      1.0  0.47678  0.86012  0.48362  1.0000
  H   H813      1.0  0.39896  0.58145  0.28999  1.0000
  H   H814      1.0  0.40541  0.87401  0.31508  1.0000
  H   H815      1.0  0.40207  0.97267  0.44760  1.0000
  S   S141      1.0  0.43034  0.99572  0.33538  1.0000
  H   H816      1.0  0.22964  0.52777  0.29164  1.0000
  C   C477      1.0  0.42111  0.59366  0.32608  1.0000
  H   H817      1.0  0.43363  0.92369  0.42077  1.0000
  H   H818      1.0  0.41961  0.93967  0.44137  1.0000
  H   H819      1.0  0.40510  0.92942  0.41795  1.0000
  H   H820      1.0  0.21362  0.63037  0.46840  1.0000
  C   C478      1.0  0.22532  0.55118  0.26478  1.0000
  H   H821      1.0  0.25182  0.65440  0.49399  1.0000
  H   H822      1.0  0.40498  0.60049  0.32100  1.0000
  H   H823      1.0  0.43207  0.84336  0.27354  1.0000
  H   H824      1.0  0.48861  0.88235  0.44698  1.0000
  H   H825      1.0  0.46588  0.88158  0.30175  1.0000
  C   C479      1.0  0.42349  0.60113  0.27143  1.0000
  H   H826      1.0  0.41260  0.99440  0.38112  1.0000
  C   C480      1.0  0.11390  0.62700  0.30297  1.0000
  H   H827      1.0  0.38948  0.60950  0.28306  1.0000
  H   H828      1.0  0.40079  0.86238  0.26521  1.0000
  C   C481      1.0  0.08476  0.61588  0.48717  1.0000
  H   H829      1.0  0.47602  0.84336  0.28244  1.0000
  C   C482      1.0  0.10340  0.60594  0.29444  1.0000
  H   H830      1.0  0.22101  0.52170  0.35250  1.0000
  H   H831      1.0  0.08050  0.59822  0.48695  1.0000
  N   N37       1.0  0.43691  0.61073  0.28925  1.0000
  H   H832      1.0  0.11558  0.59232  0.29759  1.0000
  H   H833      1.0  0.35592  0.98404  0.40074  1.0000
  C   C483      1.0  0.43389  0.86058  0.27908  1.0000
  H   H834      1.0  0.10647  0.63090  0.31937  1.0000
  H   H835      1.0  0.44370  0.82550  0.30426  1.0000
  H   H836      1.0  0.14332  0.60600  0.27218  1.0000
  H   H837      1.0  0.42189  0.90552  0.31243  1.0000
  C   C484      1.0  0.01712  0.62559  0.30347  1.0000
  H   H838      1.0  0.05300  0.62291  0.50231  1.0000
  H   H839      1.0  0.49840  0.76303  0.31999  1.0000
  H   H840      1.0  0.24266  0.65211  0.46003  1.0000
  H   H841      1.0  0.44876  0.86671  0.27000  1.0000
  H   H842      1.0  0.00838  0.60830  0.38351  1.0000
  H   H843      1.0  0.45230  0.88049  0.32806  1.0000
  H   H844      1.0  0.44247  0.57756  0.30207  1.0000
  H   H845      1.0  0.01008  0.67588  0.35253  1.0000
  H   H846      1.0  0.13171  0.62397  0.30582  1.0000
  C   C485      1.0  0.45929  0.61575  0.27917  1.0000
  H   H847      1.0  0.06989  0.64598  0.49893  1.0000
  C   C486      1.0  0.39963  0.59514  0.27763  1.0000
  C   C487      1.0  0.37165  0.99037  0.40664  1.0000
  C   C488      1.0  0.43835  0.90338  0.30441  1.0000
  S   S142      1.0  0.44957  0.67874  0.26174  1.0000
  C   C489      1.0  0.49166  0.85306  0.49177  1.0000
  H   H848      1.0  0.41842  0.57621  0.33111  1.0000
  C   C490      1.0  0.07622  0.56915  0.27448  1.0000
  H   H849      1.0  0.06006  0.57384  0.26739  1.0000
  H   H850      1.0  0.44864  0.91657  0.31072  1.0000
  H   H851      1.0  0.40972  0.82390  0.32088  1.0000
  H   H852      1.0  0.08190  0.62289  0.47038  1.0000
  C   C491      1.0  0.42649  0.63237  0.29612  1.0000
  N   N38       1.0  0.09664  0.60614  0.27067  1.0000
  C   C492      1.0  0.49708  0.89042  0.46037  1.0000
  H   H853      1.0  0.40945  0.63065  0.30263  1.0000
  C   C493      1.0  0.41101  0.98462  0.43669  1.0000
  H   H854      1.0  0.49008  0.80862  0.45211  1.0000
  C   C494      1.0  0.41367  0.87375  0.27025  1.0000
  C   C495      1.0  0.13660  0.60694  0.25539  1.0000
  C   C496      1.0  0.44439  0.99865  0.39397  1.0000
  C   C497      1.0  0.09500  0.58255  0.26357  1.0000
  H   H855      1.0  0.47716  0.82037  0.48926  1.0000
  H   H856      1.0  0.45152  0.98501  0.38401  1.0000
  H   H857      1.0  0.48954  0.60102  0.26558  1.0000
  C   C498      1.0  0.07433  0.61718  0.26794  1.0000
  C   C499      1.0  0.11310  0.61706  0.25521  1.0000
  H   H858      1.0  0.07916  0.55139  0.27122  1.0000
  H   H859      1.0  0.45348  0.99986  0.40937  1.0000
  H   H860      1.0  0.18968  0.65020  0.49409  1.0000
  H   H861      1.0  0.07427  0.64415  0.29148  1.0000
  S   S143      1.0  0.25282  0.54701  0.25449  1.0000
  H   H862      1.0  0.40086  0.00005  0.43819  1.0000
  H   H863      1.0  0.47275  0.58140  0.27984  1.0000
  H   H864      1.0  0.08319  0.65227  0.26356  1.0000
  H   H865      1.0  0.48584  0.85117  0.30918  1.0000
  H   H866      1.0  0.20663  0.61379  0.49186  1.0000
  C   C500      1.0  0.21046  0.56600  0.25483  1.0000
  C   C501      1.0  0.48414  0.83091  0.50186  1.0000
  C   C502      1.0  0.41937  0.99611  0.39786  1.0000
  S   S144      1.0  0.36092  0.78276  0.50328  1.0000
  H   H867      1.0  0.00776  0.63794  0.36090  1.0000
  H   H868      1.0  0.10892  0.65275  0.50120  1.0000
  H   H869      1.0  0.41866  0.88302  0.25499  1.0000
  C   C503      1.0  0.25611  0.68784  0.50296  1.0000
  C   C504      1.0  0.24223  0.66688  0.50338  1.0000
  C   C505      1.0  0.36466  0.85941  0.68378  1.0000
  Fe  Fe73      1.0  0.17576  0.59474  0.57601  1.0000
  S   S145      1.0  0.17735  0.62663  0.59432  1.0000
  S   S146      1.0  0.17778  0.55896  0.58939  1.0000
  Fe  Fe74      1.0  0.16442  0.61853  0.53180  1.0000
  S   S147      1.0  0.16598  0.65171  0.54737  1.0000
  Fe  Fe75      1.0  0.19637  0.63933  0.56421  1.0000
  S   S148      1.0  0.22962  0.65682  0.56471  1.0000
  Fe  Fe76      1.0  0.14663  0.63693  0.57596  1.0000
  S   S149      1.0  0.11750  0.65925  0.58673  1.0000
  S   S150      1.0  0.19630  0.60673  0.54673  1.0000
  S   S151      1.0  0.14371  0.60443  0.55970  1.0000
  Fe  Fe77      1.0  0.34505  0.77819  0.58698  1.0000
  S   S152      1.0  0.35502  0.80684  0.56524  1.0000
  S   S153      1.0  0.36454  0.76582  0.61632  1.0000
  Fe  Fe78      1.0  0.30214  0.77047  0.56277  1.0000
  S   S154      1.0  0.30901  0.79931  0.53954  1.0000
  S   S155      1.0  0.26805  0.75469  0.56066  1.0000
  Fe  Fe79      1.0  0.34406  0.78662  0.53723  1.0000
  Fe  Fe80      1.0  0.31947  0.81729  0.56932  1.0000
  S   S156      1.0  0.31150  0.85352  0.57396  1.0000
  S   S157      1.0  0.33671  0.75656  0.55871  1.0000
  S   S158      1.0  0.31007  0.78988  0.59274  1.0000
  S   S159      1.0  0.47806  0.81068  0.71067  1.0000
  Fe  Fe81      1.0  0.42874  0.84315  0.73643  1.0000
  S   S160      1.0  0.44860  0.85691  0.70793  1.0000
  C   C506      1.0  0.25466  0.52920  0.71770  1.0000
  Fe  Fe82      1.0  0.44678  0.82270  0.69469  1.0000
  S   S161      1.0  0.43884  0.82186  0.65838  1.0000
  Fe  Fe83      1.0  0.47835  0.84413  0.72595  1.0000
  S   S162      1.0  0.42526  0.80962  0.72224  1.0000
  Fe  Fe84      1.0  0.28425  0.97488  0.67039  1.0000
  S   S163      1.0  0.25431  0.95516  0.68063  1.0000
  Fe  Fe85      1.0  0.31507  0.94397  0.69661  1.0000
  S   S164      1.0  0.28795  0.92245  0.70932  1.0000
  S   S165      1.0  0.35196  0.93916  0.69981  1.0000
  Fe  Fe86      1.0  0.27633  0.92528  0.67440  1.0000
  S   S166      1.0  0.26684  0.89265  0.66047  1.0000
  Fe  Fe87      1.0  0.26772  0.95360  0.71495  1.0000
  H   H870      1.0  0.17538  0.53067  0.65335  1.0000
  S   S167      1.0  0.30474  0.94499  0.66134  1.0000
  S   S168      1.0  0.29637  0.97514  0.70509  1.0000
  S   S169      1.0  0.02048  0.63533  0.62099  1.0000
  C   C507      1.0  0.38472  0.88084  0.73678  1.0000
  H   H871      1.0  0.30067  0.52418  0.71038  1.0000
  C   C508      1.0  0.35172  0.90313  0.72873  1.0000
  C   C509      1.0  0.36403  0.91665  0.71437  1.0000
  C   C510      1.0  0.38666  0.91223  0.71130  1.0000
  C   C511      1.0  0.39693  0.89428  0.72228  1.0000
  H   H872      1.0  0.39632  0.92265  0.70029  1.0000
  H   H873      1.0  0.41436  0.89107  0.71976  1.0000
  C   C512      1.0  0.30173  0.86397  0.59938  1.0000
  C   C513      1.0  0.29373  0.85009  0.61630  1.0000
  C   C514      1.0  0.28312  0.85909  0.63500  1.0000
  C   C515      1.0  0.28127  0.88199  0.63734  1.0000
  C   C516      1.0  0.29046  0.89586  0.62105  1.0000
  C   C517      1.0  0.30037  0.88686  0.60199  1.0000
  H   H874      1.0  0.29507  0.83244  0.61470  1.0000
  H   H875      1.0  0.27626  0.84829  0.64769  1.0000
  H   H876      1.0  0.28911  0.91353  0.62271  1.0000
  H   H877      1.0  0.30655  0.89770  0.58898  1.0000
  C   C518      1.0  0.38340  0.78276  0.62921  1.0000
  C   C519      1.0  0.38950  0.80304  0.61985  1.0000
  C   C520      1.0  0.40647  0.81485  0.62903  1.0000
  C   C521      1.0  0.41678  0.80705  0.64823  1.0000
  C   C522      1.0  0.40986  0.78739  0.65830  1.0000
  C   C523      1.0  0.39346  0.77512  0.64861  1.0000
  H   H878      1.0  0.38164  0.80934  0.60518  1.0000
  H   H879      1.0  0.41165  0.83014  0.62125  1.0000
  H   H880      1.0  0.41774  0.78122  0.67307  1.0000
  H   H881      1.0  0.38879  0.75949  0.65601  1.0000
  H   H882      1.0  0.01121  0.70599  0.69983  1.0000
  H   H883      1.0  0.30070  0.87383  0.69277  1.0000
  C   C524      1.0  0.36211  0.88543  0.74011  1.0000
  C   C525      1.0  0.09039  0.65198  0.59531  1.0000
  C   C526      1.0  0.07335  0.66809  0.59451  1.0000
  C   C527      1.0  0.05165  0.66314  0.60150  1.0000
  C   C528      1.0  0.04691  0.64214  0.61000  1.0000
  C   C529      1.0  0.06395  0.62605  0.61076  1.0000
  C   C530      1.0  0.08551  0.63085  0.60329  1.0000
  H   H884      1.0  0.07696  0.68452  0.58840  1.0000
  H   H885      1.0  0.03873  0.67567  0.60073  1.0000
  H   H886      1.0  0.06050  0.60978  0.61741  1.0000
  H   H887      1.0  0.09847  0.61837  0.60427  1.0000
  C   C531      1.0  0.23977  0.68428  0.56426  1.0000
  C   C532      1.0  0.26269  0.68727  0.56433  1.0000
  C   C533      1.0  0.27167  0.70855  0.56342  1.0000
  C   C534      1.0  0.25783  0.72727  0.56228  1.0000
  C   C535      1.0  0.23490  0.72429  0.56208  1.0000
  C   C536      1.0  0.22591  0.70301  0.56319  1.0000
  H   H888      1.0  0.27364  0.67298  0.56518  1.0000
  H   H889      1.0  0.28931  0.71044  0.56357  1.0000
  H   H890      1.0  0.22396  0.73857  0.56128  1.0000
  H   H891      1.0  0.20827  0.70114  0.56334  1.0000
  C   C537      1.0  0.21944  0.52095  0.64129  1.0000
  H   H892      1.0  0.01384  0.66133  0.67641  1.0000
  C   C538      1.0  0.19496  0.52172  0.61007  1.0000
  C   C539      1.0  0.19505  0.54491  0.60877  1.0000
  C   C540      1.0  0.20783  0.55602  0.62358  1.0000
  C   C541      1.0  0.21994  0.54411  0.63969  1.0000
  H   H893      1.0  0.43829  0.73205  0.55264  1.0000
  H   H894      1.0  0.01264  0.71811  0.62097  1.0000
  H   H895      1.0  0.20814  0.57382  0.62280  1.0000
  H   H896      1.0  0.22955  0.55296  0.65113  1.0000
  H   H897      1.0  0.38787  0.98926  0.68325  1.0000
  H   H898      1.0  0.39666  0.74905  0.50772  1.0000
  H   H899      1.0  0.27403  0.53760  0.68732  1.0000
  H   H900      1.0  0.04346  0.62633  0.54089  1.0000
  H   H901      1.0  0.35705  0.79785  0.73251  1.0000
  C   C542      1.0  0.00754  0.71575  0.65698  1.0000
  H   H902      1.0  0.17711  0.70544  0.51595  1.0000
  H   H903      1.0  0.18533  0.51292  0.59858  1.0000
  H   H904      1.0  0.44626  0.75217  0.59315  1.0000
  H   H905      1.0  0.14720  0.56014  0.64422  1.0000
  C   C543      1.0  0.38704  0.84839  0.67789  1.0000
  C   C544      1.0  0.05842  0.67665  0.66105  1.0000
  H   H906      1.0  0.24216  0.66017  0.52058  1.0000
  H   H907      1.0  0.17208  0.67864  0.50668  1.0000
  H   H908      1.0  0.06345  0.63268  0.56043  1.0000
  H   H909      1.0  0.09226  0.59303  0.52336  1.0000
  C   C545      1.0  0.02070  0.69447  0.68899  1.0000
  C   C546      1.0  0.15754  0.52714  0.65464  1.0000
  C   C547      1.0  0.03359  0.74396  0.68465  1.0000
  H   H910      1.0  0.28782  0.55246  0.73453  1.0000
  H   H911      1.0  0.11270  0.62319  0.52846  1.0000
  S   S170      1.0  0.23379  0.50692  0.66297  1.0000
  H   H912      1.0  0.08718  0.57651  0.55835  1.0000
  C   C548      1.0  0.42142  0.79804  0.56500  1.0000
  C   C549      1.0  0.14552  0.54928  0.65917  1.0000
  H   H913      1.0  0.06763  0.66964  0.54647  1.0000
  C   C550      1.0  0.05411  0.65987  0.54009  1.0000
  N   N39       1.0  0.35207  0.86927  0.66473  1.0000
  H   H914      1.0  0.40400  0.99693  0.71703  1.0000
  H   H915      1.0  0.46296  0.76784  0.57364  1.0000
  C   C551      1.0  0.35437  0.90219  0.63685  1.0000
  H   H916      1.0  0.38779  0.73126  0.52968  1.0000
  H   H917      1.0  0.15335  0.52257  0.63776  1.0000
  H   H918      1.0  0.35518  0.84690  0.69326  1.0000
  H   H919      1.0  0.38583  0.76872  0.54285  1.0000
  C   C552      1.0  0.20713  0.50981  0.62611  1.0000
  H   H920      1.0  0.03934  0.66405  0.55048  1.0000
  N   N40       1.0  0.15359  0.50886  0.67146  1.0000
  H   H921      1.0  0.42246  0.81068  0.57785  1.0000
  C   C553      1.0  0.34862  0.85298  0.64682  1.0000
  C   C554      1.0  0.23523  0.80775  0.53013  1.0000
  C   C555      1.0  0.31722  0.86584  0.69048  1.0000
  H   H922      1.0  0.24643  0.51528  0.70990  1.0000
  C   C556      1.0  0.36556  0.88780  0.65490  1.0000
  H   H923      1.0  0.33308  0.89543  0.68064  1.0000
  H   H924      1.0  0.23832  0.79235  0.56192  1.0000
  C   C557      1.0  0.45357  0.75251  0.57631  1.0000
  H   H925      1.0  0.39417  0.84101  0.69311  1.0000
  C   C558      1.0  0.33045  0.87920  0.67301  1.0000
  C   C559      1.0  0.40085  0.73844  0.57323  1.0000
  H   H926      1.0  0.38122  0.88141  0.64730  1.0000
  C   C560      1.0  0.43726  0.74962  0.55745  1.0000
  H   H927      1.0  0.33140  0.00247  0.66259  1.0000
  C   C561      1.0  0.37590  0.99590  0.69572  1.0000
  H   H928      1.0  0.09534  0.60367  0.56458  1.0000
  H   H929      1.0  0.41185  0.77482  0.53061  1.0000
  H   H930      1.0  0.04502  0.69916  0.63693  1.0000
  H   H931      1.0  0.43821  0.79503  0.55806  1.0000
  H   H932      1.0  0.23483  0.79072  0.52389  1.0000
  H   H933      1.0  0.06678  0.59612  0.56742  1.0000
  H   H934      1.0  0.16653  0.50807  0.72771  1.0000
  H   H935      1.0  0.21062  0.79888  0.58365  1.0000
  C   C562      1.0  0.01156  0.72910  0.63534  1.0000
  H   H936      1.0  0.05024  0.66501  0.52299  1.0000
  H   H937      1.0  0.12771  0.54744  0.66277  1.0000
  H   H938      1.0  0.24728  0.54987  0.68906  1.0000
  H   H939      1.0  0.32515  0.86597  0.70675  1.0000
  H   H940      1.0  0.38316  0.74349  0.57521  1.0000
  H   H941      1.0  0.09251  0.66958  0.51973  1.0000
  H   H942      1.0  0.39919  0.86028  0.67122  1.0000
  H   H943      1.0  0.36603  0.91493  0.63088  1.0000
  H   H944      1.0  0.04703  0.75493  0.68913  1.0000
  C   C563      1.0  0.36498  0.80349  0.74760  1.0000
  C   C564      1.0  0.08215  0.59420  0.55728  1.0000
  H   H945      1.0  0.40915  0.74390  0.60807  1.0000
  H   H946      1.0  0.15315  0.55804  0.67274  1.0000
  H   H947      1.0  0.37043  0.89918  0.66799  1.0000
  C   C565      1.0  0.41131  0.77709  0.57543  1.0000
  N   N41       1.0  0.41359  0.75665  0.56188  1.0000
  C   C566      1.0  0.40872  0.73051  0.59605  1.0000
  H   H948      1.0  0.06547  0.66609  0.64780  1.0000
  H   H949      1.0  0.41839  0.77481  0.59196  1.0000
  C   C567      1.0  0.07843  0.60092  0.53294  1.0000
  H   H950      1.0  0.37654  0.81649  0.74211  1.0000
  N   N42       1.0  0.27247  0.52087  0.73284  1.0000
  N   N43       1.0  0.02768  0.70597  0.66773  1.0000
  C   C568      1.0  0.33859  0.83068  0.65364  1.0000
  H   H951      1.0  0.23238  0.80808  0.61081  1.0000
  N   N44       1.0  0.24210  0.82754  0.56647  1.0000
  C   C569      1.0  0.25225  0.84618  0.55309  1.0000
  C   C570      1.0  0.25487  0.82497  0.58738  1.0000
  C   C571      1.0  0.21822  0.83334  0.57142  1.0000
  C   C572      1.0  0.25144  0.86899  0.56384  1.0000
  C   C573      1.0  0.20268  0.81401  0.57685  1.0000
  H   H952      1.0  0.26986  0.84219  0.54880  1.0000
  H   H953      1.0  0.24391  0.84874  0.53713  1.0000
  H   H954      1.0  0.25290  0.83990  0.59753  1.0000
  H   H955      1.0  0.21677  0.84498  0.58533  1.0000
  H   H956      1.0  0.21102  0.84227  0.55695  1.0000
  H   H957      1.0  0.23442  0.87459  0.56813  1.0000
  H   H958      1.0  0.26176  0.86945  0.57855  1.0000
  H   H959      1.0  0.25838  0.88129  0.55190  1.0000
  H   H960      1.0  0.19016  0.81939  0.58938  1.0000
  C   C574      1.0  0.20737  0.68651  0.51002  1.0000
  H   H961      1.0  0.18035  0.52094  0.69052  1.0000
  H   H962      1.0  0.36983  0.96910  0.65959  1.0000
  C   C575      1.0  0.24518  0.80695  0.55326  1.0000
  H   H963      1.0  0.05342  0.66541  0.67483  1.0000
  H   H964      1.0  0.46610  0.73889  0.57579  1.0000
  H   H965      1.0  0.36418  0.84945  0.63730  1.0000
  N   N45       1.0  0.07697  0.62539  0.52785  1.0000
  H   H966      1.0  0.44411  0.75922  0.54307  1.0000
  H   H967      1.0  0.41075  0.80524  0.55199  1.0000
  C   C576      1.0  0.40283  0.76184  0.54012  1.0000
  C   C577      1.0  0.24896  0.80566  0.60313  1.0000
  H   H968      1.0  0.39679  0.71849  0.60305  1.0000
  H   H969      1.0  0.26300  0.80277  0.55107  1.0000
  H   H970      1.0  0.38517  0.83487  0.66627  1.0000
  H   H971      1.0  0.05663  0.71669  0.68418  1.0000
  H   H972      1.0  0.36766  0.87229  0.69588  1.0000
  H   H973      1.0  0.31934  0.88277  0.65909  1.0000
  C   C578      1.0  0.03874  0.69018  0.65192  1.0000
  C   C579      1.0  0.11507  0.50378  0.65449  1.0000
  H   H974      1.0  0.35257  0.87517  0.75138  1.0000
  H   H975      1.0  0.42487  0.72171  0.59482  1.0000
  C   C580      1.0  0.05920  0.63505  0.54282  1.0000
  H   H976      1.0  0.34354  0.82427  0.66998  1.0000
  H   H977      1.0  0.02260  0.75374  0.67364  1.0000
  H   H978      1.0  0.30424  0.50398  0.73148  1.0000
  Fe  Fe88      1.0  0.45650  0.80038  0.73988  1.0000
  C   C581      1.0  0.10516  0.65629  0.51875  1.0000
  H   H979      1.0  0.10047  0.63885  0.54975  1.0000
  H   H980      1.0  0.39195  0.81549  0.51798  1.0000
  H   H981      1.0  0.40119  0.72342  0.56314  1.0000
  H   H982      1.0  0.03524  0.68905  0.69867  1.0000
  H   H983      1.0  0.36921  0.99399  0.64239  1.0000
  H   H984      1.0  0.07178  0.68731  0.66623  1.0000
  H   H985      1.0  0.26069  0.80521  0.61688  1.0000
  H   H986      1.0  0.05294  0.72940  0.65816  1.0000
  H   H987      1.0  0.34784  0.97432  0.64138  1.0000
  H   H988      1.0  0.31453  0.84876  0.68565  1.0000
  H   H989      1.0  0.39361  0.78094  0.57890  1.0000
  H   H990      1.0  0.15383  0.53140  0.69868  1.0000
  H   H991      1.0  0.19325  0.80990  0.56213  1.0000
  H   H992      1.0  0.36894  0.98127  0.70456  1.0000
  H   H993      1.0  0.24132  0.53789  0.72717  1.0000
  H   H994      1.0  0.34468  0.81796  0.64194  1.0000
  H   H995      1.0  0.21819  0.81462  0.53025  1.0000
  H   H996      1.0  0.27279  0.82315  0.58328  1.0000
  H   H997      1.0  0.02654  0.73902  0.63538  1.0000
  H   H998      1.0  0.47044  0.83422  0.51390  1.0000
  H   H999      1.0  0.41689  0.73310  0.52219  1.0000
  H   H1000     1.0  0.16863  0.99379  0.73850  1.0000
  H   H1001     1.0  0.32037  0.83156  0.65297  1.0000
  C   C582      1.0  0.04368  0.72353  0.67314  1.0000
  H   H1002     1.0  0.33430  0.90649  0.73131  1.0000
  H   H1003     1.0  0.33753  0.86026  0.63415  1.0000
  H   H1004     1.0  0.25070  0.78941  0.59528  1.0000
  H   H1005     1.0  0.21625  0.92959  0.73821  1.0000
  H   H1006     1.0  0.31737  0.99283  0.62164  1.0000
  H   H1007     1.0  0.20743  0.68071  0.52757  1.0000
  H   H1008     1.0  0.35012  0.89254  0.62236  1.0000
  C   C583      1.0  0.40115  0.74246  0.52430  1.0000
  H   H1009     1.0  0.12044  0.66280  0.52551  1.0000
  C   C584      1.0  0.35917  0.98244  0.65254  1.0000
  C   C585      1.0  0.26189  0.54525  0.69893  1.0000
  H   H1010     1.0  0.33952  0.91112  0.64326  1.0000
  H   H1011     1.0  0.24569  0.81726  0.51825  1.0000
  C   C586      1.0  0.09903  0.63520  0.53202  1.0000
  H   H1012     1.0  0.02676  0.67844  0.64558  1.0000
  S   S171      1.0  0.39715  0.85814  0.75076  1.0000
  H   H1013     1.0  0.10327  0.51804  0.65457  1.0000
  H   H1014     1.0  0.26835  0.56073  0.70518  1.0000
  H   H1015     1.0  0.39098  0.77952  0.74656  1.0000
  H   H1016     1.0  0.33777  0.98105  0.68120  1.0000
  H   H1017     1.0  0.20675  0.64366  0.51678  1.0000
  H   H1018     1.0  0.12405  0.50371  0.63846  1.0000
  C   C587      1.0  0.29180  0.51120  0.72005  1.0000
  C   C588      1.0  0.16275  0.51634  0.69289  1.0000
  H   H1019     1.0  0.12167  0.51599  0.68652  1.0000
  S   S172      1.0  0.24897  0.96319  0.74708  1.0000
  H   H1020     1.0  0.06322  0.59272  0.52785  1.0000
  C   C589      1.0  0.34546  0.99415  0.67073  1.0000
  H   H1021     1.0  0.25144  0.69864  0.51690  1.0000
  H   H1022     1.0  0.14030  0.97383  0.75130  1.0000
  H   H1023     1.0  0.02443  0.73960  0.70011  1.0000
  C   C590      1.0  0.00609  0.67432  0.68675  1.0000
  H   H1024     1.0  0.49715  0.82193  0.51108  1.0000
  C   C591      1.0  0.17880  0.99624  0.75318  1.0000
  H   H1025     1.0  0.49501  0.86401  0.50572  1.0000
  H   H1026     1.0  0.21603  0.70241  0.50948  1.0000
  C   C592      1.0  0.28044  0.53981  0.74579  1.0000
  H   H1027     1.0  0.20742  0.99705  0.73095  1.0000
  H   H1028     1.0  0.27368  0.68307  0.50522  1.0000
  C   C593      1.0  0.12957  0.50384  0.67513  1.0000
  C   C594      1.0  0.07021  0.62838  0.50422  1.0000
  C   C595      1.0  0.18329  0.69264  0.50441  1.0000
  H   H1029     1.0  0.50242  0.88171  0.68842  1.0000
  H   H1030     1.0  0.00299  0.66680  0.70337  1.0000
  C   C596      1.0  0.26291  0.50319  0.74783  1.0000
  C   C597      1.0  0.21219  0.93669  0.75402  1.0000
  S   S173      1.0  0.42016  0.51917  0.87439  1.0000
  Fe  Fe89      1.0  0.44706  0.67174  0.91660  1.0000
  S   S174      1.0  0.43030  0.67892  0.88451  1.0000
  S   S175      1.0  0.43102  0.66889  0.95120  1.0000
  Fe  Fe90      1.0  0.49045  0.65619  0.89286  1.0000
  S   S176      1.0  0.47639  0.66239  0.85911  1.0000
  Fe  Fe91      1.0  0.46227  0.69409  0.87278  1.0000
  S   S177      1.0  0.46215  0.72868  0.85613  1.0000
  Fe  Fe92      1.0  0.44560  0.64683  0.87314  1.0000
  S   S178      1.0  0.42587  0.62232  0.85424  1.0000
  S   S179      1.0  0.47834  0.68881  0.90609  1.0000
  S   S180      1.0  0.46034  0.63875  0.90560  1.0000
  Fe  Fe93      1.0  0.13014  0.95173  0.87899  1.0000
  S   S181      1.0  0.09700  0.96657  0.87051  1.0000
  S   S182      1.0  0.13783  0.95590  0.91554  1.0000
  Fe  Fe94      1.0  0.14208  0.94426  0.82951  1.0000
  S   S183      1.0  0.10951  0.95861  0.81854  1.0000
  S   S184      1.0  0.16347  0.92971  0.80136  1.0000
  Fe  Fe95      1.0  0.11477  0.98497  0.84330  1.0000
  Fe  Fe96      1.0  0.09444  0.93883  0.84661  1.0000
  S   S185      1.0  0.06356  0.91771  0.84790  1.0000
  S   S186      1.0  0.14821  0.97167  0.85267  1.0000
  S   S187      1.0  0.12670  0.92288  0.85665  1.0000
  H   H1031     1.0  0.35700  0.58521  0.89259  1.0000
  H   H1032     1.0  0.26659  0.54891  0.75413  1.0000
  H   H1033     1.0  0.38474  0.59283  0.89125  1.0000
  H   H1034     1.0  0.10091  0.89643  0.76993  1.0000
  H   H1035     1.0  0.33624  0.79456  0.78956  1.0000
  H   H1036     1.0  0.41161  0.77127  0.80138  1.0000
  H   H1037     1.0  0.13412  0.86803  0.83191  1.0000
  H   H1038     1.0  0.45816  0.56651  0.84561  1.0000
  C   C598      1.0  0.04803  0.90364  0.82832  1.0000
  C   C599      1.0  0.03275  0.88801  0.83601  1.0000
  C   C600      1.0  0.02082  0.87559  0.82123  1.0000
  C   C601      1.0  0.02411  0.87853  0.79847  1.0000
  C   C602      1.0  0.03906  0.89449  0.79073  1.0000
  C   C603      1.0  0.05078  0.90713  0.80553  1.0000
  H   H1039     1.0  0.41519  0.73618  0.78354  1.0000
  C   C604      1.0  0.10218  0.86529  0.84708  1.0000
  H   H1040     1.0  0.04160  0.89707  0.77317  1.0000
  H   H1041     1.0  0.06198  0.91947  0.79935  1.0000
  C   C605      1.0  0.14649  0.93808  0.93758  1.0000
  C   C606      1.0  0.15359  0.91629  0.93434  1.0000
  C   C607      1.0  0.16121  0.90322  0.95227  1.0000
  C   C608      1.0  0.16155  0.91161  0.97369  1.0000
  C   C609      1.0  0.15416  0.93328  0.97699  1.0000
  C   C610      1.0  0.14675  0.94642  0.95903  1.0000
  H   H1042     1.0  0.15361  0.90966  0.91796  1.0000
  H   H1043     1.0  0.16699  0.88652  0.94948  1.0000
  H   H1044     1.0  0.15462  0.94008  0.99327  1.0000
  H   H1045     1.0  0.14143  0.96327  0.96174  1.0000
  C   C611      1.0  0.18761  0.93894  0.78682  1.0000
  C   C612      1.0  0.20111  0.95498  0.79507  1.0000
  H   H1046     1.0  0.37666  0.57124  0.91029  1.0000
  N   N46       1.0  0.23747  0.85571  0.00091  1.0000
  H   H1047     1.0  0.19714  0.96198  0.81094  1.0000
  C   C613      1.0  0.49752  0.58094  0.89464  1.0000
  C   C614      1.0  0.34955  0.79920  0.80062  1.0000
  C   C615      1.0  0.41110  0.68580  0.96519  1.0000
  C   C616      1.0  0.40356  0.70599  0.95640  1.0000
  C   C617      1.0  0.38806  0.71897  0.96836  1.0000
  C   C618      1.0  0.37975  0.71189  0.98914  1.0000
  H   H1048     1.0  0.49979  0.60473  0.81802  1.0000
  C   C619      1.0  0.40274  0.67866  0.98595  1.0000
  H   H1049     1.0  0.40981  0.71172  0.94047  1.0000
  H   H1050     1.0  0.38251  0.73467  0.96147  1.0000
  C   C620      1.0  0.22375  0.83622  0.99591  1.0000
  H   H1051     1.0  0.13911  0.99983  0.79422  1.0000
  C   C621      1.0  0.46170  0.73860  0.82814  1.0000
  C   C622      1.0  0.46014  0.76149  0.82383  1.0000
  C   C623      1.0  0.45995  0.77020  0.80201  1.0000
  C   C624      1.0  0.46142  0.75611  0.78411  1.0000
  C   C625      1.0  0.46303  0.73324  0.78839  1.0000
  C   C626      1.0  0.46308  0.72453  0.81021  1.0000
  H   H1052     1.0  0.45913  0.77257  0.83753  1.0000
  H   H1053     1.0  0.45883  0.78781  0.79909  1.0000
  H   H1054     1.0  0.46423  0.72213  0.77472  1.0000
  H   H1055     1.0  0.46433  0.70692  0.81315  1.0000
  C   C627      1.0  0.41907  0.54808  0.86955  1.0000
  C   C628      1.0  0.40981  0.55778  0.85072  1.0000
  C   C629      1.0  0.41158  0.58063  0.84654  1.0000
  C   C630      1.0  0.42269  0.59397  0.86103  1.0000
  C   C631      1.0  0.43136  0.58435  0.88021  1.0000
  C   C632      1.0  0.42942  0.56158  0.88446  1.0000
  H   H1056     1.0  0.40181  0.54759  0.83909  1.0000
  H   H1057     1.0  0.40473  0.58791  0.83170  1.0000
  H   H1058     1.0  0.43990  0.59434  0.89157  1.0000
  H   H1059     1.0  0.43649  0.55420  0.89914  1.0000
  H   H1060     1.0  0.48474  0.59416  0.89656  1.0000
  H   H1061     1.0  0.24574  0.88779  0.98724  1.0000
  C   C633      1.0  0.15058  0.86766  0.78850  1.0000
  H   H1062     1.0  0.16028  0.85968  0.77499  1.0000
  H   H1063     1.0  0.35107  0.61449  0.96441  1.0000
  C   C634      1.0  0.37740  0.78383  0.75855  1.0000
  C   C635      1.0  0.40113  0.60092  0.93909  1.0000
  C   C636      1.0  0.22561  0.95286  0.76218  1.0000
  N   N47       1.0  0.11105  0.86950  0.80524  1.0000
  H   H1064     1.0  0.03030  0.88528  0.85357  1.0000
  H   H1065     1.0  0.41920  0.77485  0.77305  1.0000
  C   C637      1.0  0.47536  0.53530  0.84328  1.0000
  H   H1066     1.0  0.07603  0.87012  0.81279  1.0000
  C   C638      1.0  0.38090  0.64260  0.89461  1.0000
  H   H1067     1.0  0.12290  0.99819  0.75598  1.0000
  H   H1068     1.0  0.22766  0.85493  0.95445  1.0000
  H   H1069     1.0  0.09887  0.92143  0.78461  1.0000
  H   H1070     1.0  0.18324  0.91723  0.75976  1.0000
  H   H1071     1.0  0.39111  0.65179  0.88226  1.0000
  H   H1072     1.0  0.40843  0.58998  0.92621  1.0000
  H   H1073     1.0  0.23519  0.88269  0.94911  1.0000
  C   C639      1.0  0.11824  0.86078  0.82748  1.0000
  C   C640      1.0  0.14892  0.99268  0.78040  1.0000
  H   H1074     1.0  0.13217  0.87264  0.98442  1.0000
  C   C641      1.0  0.23454  0.87410  0.98402  1.0000
  H   H1075     1.0  0.40749  0.64204  0.91714  1.0000
  H   H1076     1.0  0.38934  0.64481  0.95033  1.0000
  H   H1077     1.0  0.31507  0.53569  0.75522  1.0000
  C   C642      1.0  0.11154  0.89431  0.80520  1.0000
  C   C643      1.0  0.40596  0.81544  0.80465  1.0000
  H   H1078     1.0  0.36132  0.63747  0.97827  1.0000
  H   H1079     1.0  0.05303  0.89445  0.96704  1.0000
  C   C644      1.0  0.08792  0.86275  0.80074  1.0000
  H   H1080     1.0  0.46186  0.52874  0.83351  1.0000
  H   H1081     1.0  0.12158  0.84269  0.82721  1.0000
  C   C645      1.0  0.29834  0.53403  0.76281  1.0000
  C   C646      1.0  0.42059  0.61108  0.95064  1.0000
  H   H1082     1.0  0.09842  0.90109  0.81639  1.0000
  H   H1083     1.0  0.23029  0.97419  0.78943  1.0000
  H   H1084     1.0  0.39391  0.81396  0.81859  1.0000
  H   H1085     1.0  0.08863  0.82952  0.81667  1.0000
  H   H1086     1.0  0.08668  0.85619  0.84596  1.0000
  C   C647      1.0  0.40518  0.77071  0.78441  1.0000
  H   H1087     1.0  0.41109  0.83288  0.80373  1.0000
  H   H1088     1.0  0.35214  0.61539  0.91529  1.0000
  H   H1089     1.0  0.40714  0.61893  0.90046  1.0000
  C   C648      1.0  0.24658  0.51111  0.76598  1.0000
  H   H1090     1.0  0.34292  0.79902  0.81786  1.0000
  H   H1091     1.0  0.38349  0.82295  0.77903  1.0000
  H   H1092     1.0  0.15730  0.97791  0.78791  1.0000
  H   H1093     1.0  0.49848  0.57207  0.91081  1.0000
  H   H1094     1.0  0.47648  0.56425  0.82259  1.0000
  C   C649      1.0  0.21996  0.96182  0.78284  1.0000
  H   H1095     1.0  0.09267  0.82966  0.78691  1.0000
  C   C650      1.0  0.36619  0.62370  0.96729  1.0000
  H   H1096     1.0  0.23012  0.82781  0.98087  1.0000
  C   C651      1.0  0.36585  0.60434  0.92095  1.0000
  H   H1097     1.0  0.37809  0.61313  0.97647  1.0000
  C   C652      1.0  0.08401  0.83777  0.80094  1.0000
  H   H1098     1.0  0.08249  0.86920  0.78445  1.0000
  H   H1099     1.0  0.43049  0.62139  0.93910  1.0000
  H   H1100     1.0  0.07050  0.86677  0.99077  1.0000
  H   H1101     1.0  0.37019  0.65482  0.90325  1.0000
  C   C653      1.0  0.26128  0.84823  0.00065  1.0000
  C   C654      1.0  0.38711  0.69156  0.99784  1.0000
  S   S188      1.0  0.45842  0.83304  0.75615  1.0000
  H   H1102     1.0  0.19579  0.85233  0.97866  1.0000
  C   C655      1.0  0.48635  0.59700  0.85153  1.0000
  H   H1103     1.0  0.36185  0.76646  0.79675  1.0000
  H   H1104     1.0  0.06612  0.83517  0.79897  1.0000
  C   C656      1.0  0.36924  0.78278  0.79899  1.0000
  H   H1105     1.0  0.47016  0.60070  0.81942  1.0000
  H   H1106     1.0  0.36326  0.64440  0.93842  1.0000
  H   H1107     1.0  0.49835  0.60701  0.86015  1.0000
  H   H1108     1.0  0.37080  0.63145  0.88507  1.0000
  H   H1109     1.0  0.15846  0.86261  0.80415  1.0000
  H   H1110     1.0  0.43166  0.59766  0.95688  1.0000
  H   H1111     1.0  0.35388  0.81652  0.79725  1.0000
  H   H1112     1.0  0.12730  0.89975  0.81196  1.0000
  H   H1113     1.0  0.12725  0.84195  0.78902  1.0000
  C   C657      1.0  0.06293  0.90041  0.98072  1.0000
  H   H1114     1.0  0.42100  0.80539  0.80807  1.0000
  H   H1115     1.0  0.13109  0.00211  0.90293  1.0000
  H   H1116     1.0  0.35816  0.59461  0.93472  1.0000
  H   H1117     1.0  0.39285  0.58955  0.95114  1.0000
  H   H1118     1.0  0.12513  0.91178  0.77590  1.0000
  H   H1119     1.0  0.41522  0.62096  0.96502  1.0000
  H   H1120     1.0  0.40892  0.81210  0.76944  1.0000
  H   H1121     1.0  0.36617  0.76962  0.75881  1.0000
  H   H1122     1.0  0.09631  0.98874  0.91528  1.0000
  H   H1123     1.0  0.11001  0.85959  0.86261  1.0000
  C   C658      1.0  0.37158  0.58743  0.90290  1.0000
  N   N48       1.0  0.38644  0.78714  0.78119  1.0000
  H   H1124     1.0  0.25610  0.86298  0.95634  1.0000
  C   C659      1.0  0.39590  0.80978  0.78250  1.0000
  C   C660      1.0  0.13227  0.98443  0.76392  1.0000
  C   C661      1.0  0.39619  0.62979  0.91054  1.0000
  H   H1125     1.0  0.47210  0.52960  0.86053  1.0000
  H   H1126     1.0  0.09827  0.88305  0.84879  1.0000
  H   H1127     1.0  0.47426  0.55980  0.88185  1.0000
  H   H1128     1.0  0.27255  0.86228  0.00208  1.0000
  H   H1129     1.0  0.21770  0.88167  0.98529  1.0000
  H   H1130     1.0  0.39522  0.74336  0.76356  1.0000
  H   H1131     1.0  0.09005  0.87907  0.97251  1.0000
  H   H1132     1.0  0.11391  0.85015  0.98059  1.0000
  H   H1133     1.0  0.15211  0.88563  0.78580  1.0000
  C   C662      1.0  0.47498  0.56069  0.84063  1.0000
  C   C663      1.0  0.48448  0.60706  0.82804  1.0000
  H   H1134     1.0  0.37666  0.78105  0.81556  1.0000
  H   H1135     1.0  0.29721  0.51721  0.77009  1.0000
  N   N49       1.0  0.49209  0.57269  0.85305  1.0000
  H   H1136     1.0  0.12043  0.86415  0.77095  1.0000
  H   H1137     1.0  0.29653  0.54528  0.77693  1.0000
  C   C664      1.0  0.19341  0.92975  0.76631  1.0000
  N   N50       1.0  0.38485  0.61710  0.92907  1.0000
  C   C665      1.0  0.37623  0.63346  0.94570  1.0000
  C   C666      1.0  0.10896  0.90612  0.78247  1.0000
  C   C667      1.0  0.23870  0.86793  0.95973  1.0000
  H   H1138     1.0  0.05125  0.90474  0.99434  1.0000
  H   H1139     1.0  0.40843  0.66305  0.99291  1.0000
  C   C668      1.0  0.12650  0.86025  0.78777  1.0000
  H   H1140     1.0  0.11282  0.90672  0.98293  1.0000
  C   C669      1.0  0.19900  0.84122  0.99303  1.0000
  H   H1141     1.0  0.38734  0.74008  0.79255  1.0000
  H   H1142     1.0  0.12011  0.97403  0.77294  1.0000
  H   H1143     1.0  0.35192  0.81079  0.75829  1.0000
  H   H1144     1.0  0.47033  0.60041  0.86020  1.0000
  S   S189      1.0  0.17196  0.89451  0.99549  1.0000
  H   H1145     1.0  0.19053  0.82561  0.99017  1.0000
  H   H1146     1.0  0.48145  0.62508  0.82921  1.0000
  H   H1147     1.0  0.26608  0.84125  0.98441  1.0000
  C   C670      1.0  0.40002  0.74632  0.78072  1.0000
  C   C671      1.0  0.49123  0.56463  0.87686  1.0000
  H   H1148     1.0  0.40479  0.75163  0.00104  1.0000
  H   H1149     1.0  0.07136  0.91533  0.97440  1.0000
  H   H1150     1.0  0.49285  0.79837  0.76970  1.0000
  S   S190      1.0  0.46167  0.76605  0.75613  1.0000
  C   C672      1.0  0.07962  0.88221  0.98751  1.0000
  H   H1151     1.0  0.18365  0.97937  0.75905  1.0000
  H   H1152     1.0  0.23254  0.52075  0.75914  1.0000
  H   H1153     1.0  0.25485  0.52073  0.77852  1.0000
  H   H1154     1.0  0.08452  0.93407  0.00166  1.0000
  H   H1155     1.0  0.49574  0.81942  0.80499  1.0000
  C   C673      1.0  0.12322  0.85911  0.99289  1.0000
  H   H1156     1.0  0.11267  0.94162  0.00016  1.0000
  H   H1157     1.0  0.13578  0.84738  0.99966  1.0000
  H   H1158     1.0  0.00934  0.86347  0.82748  1.0000
  C   C674      1.0  0.10881  0.90606  0.00095  1.0000
  H   H1159     1.0  0.19404  0.00103  0.79114  1.0000
  H   H1160     1.0  0.15034  0.00018  0.93346  1.0000
  H   H1161     1.0  0.39024  0.77721  0.00258  1.0000
  S   S191      1.0  0.01048  0.86244  0.77907  1.0000
  H   H1162     1.0  0.49092  0.52768  0.83691  1.0000
  H   H1163     1.0  0.50157  0.54939  0.87910  1.0000
  H   H1164     1.0  0.10704  0.00256  0.93797  1.0000
  S   S192      1.0  0.36103  0.72952  0.00384  1.0000
  Fe  Fe97      1.0  0.52564  0.36133  0.11591  1.0000
  S   S193      1.0  0.53635  0.36041  0.15151  1.0000
  Fe  Fe98      1.0  0.57173  0.34594  0.09813  1.0000
  S   S194      1.0  0.58466  0.34415  0.13240  1.0000
  S   S195      1.0  0.59856  0.34349  0.07092  1.0000
  Fe  Fe99      1.0  0.55317  0.32786  0.14286  1.0000
  S   S196      1.0  0.55725  0.29383  0.16031  1.0000
  Fe  Fe100     1.0  0.56727  0.37667  0.13825  1.0000
  S   S197      1.0  0.59010  0.40268  0.15125  1.0000
  S   S198      1.0  0.54081  0.32800  0.10776  1.0000
  S   S199      1.0  0.55585  0.37918  0.10355  1.0000
  Fe  Fe101     1.0  0.86888  0.06298  0.17746  1.0000
  S   S200      1.0  0.89788  0.05033  0.19622  1.0000
  S   S201      1.0  0.83483  0.07134  0.19319  1.0000
  Fe  Fe102     1.0  0.89581  0.06332  0.13350  1.0000
  S   S202      1.0  0.92681  0.05076  0.15023  1.0000
  S   S203      1.0  0.89746  0.06444  0.09560  1.0000
  Fe  Fe103     1.0  0.90446  0.02715  0.16830  1.0000
  Fe  Fe104     1.0  0.91803  0.07507  0.17674  1.0000
  S   S204      1.0  0.94024  0.09372  0.19968  1.0000
  S   S205      1.0  0.87405  0.03819  0.15050  1.0000
  S   S206      1.0  0.88844  0.08921  0.15904  1.0000
  H   H1165     1.0  0.56206  0.26087  0.09927  1.0000
  H   H1166     1.0  0.81107  0.01644  0.15546  1.0000
  S   S207      1.0  0.85059  0.12436  0.02129  1.0000
  H   H1167     1.0  0.87535  0.14977  0.25086  1.0000
  H   H1168     1.0  0.64358  0.46737  0.19308  1.0000
  C   C675      1.0  0.96230  0.11234  0.19568  1.0000
  C   C676      1.0  0.97249  0.12046  0.21432  1.0000
  C   C677      1.0  0.85518  0.13328  0.21635  1.0000
  H   H1169     1.0  0.63911  0.37639  0.11322  1.0000
  H   H1170     1.0  0.67540  0.49556  0.21877  1.0000
  C   C678      1.0  0.97004  0.11907  0.17474  1.0000
  H   H1171     1.0  0.96664  0.11544  0.23061  1.0000
  C   C679      1.0  0.81934  0.01524  0.17157  1.0000
  H   H1172     1.0  0.96241  0.11304  0.16024  1.0000
  C   C680      1.0  0.88302  0.08069  0.07554  1.0000
  C   C681      1.0  0.88358  0.07397  0.05346  1.0000
  C   C682      1.0  0.87337  0.08683  0.03673  1.0000
  C   C683      1.0  0.86269  0.10679  0.04184  1.0000
  C   C684      1.0  0.86206  0.11347  0.06391  1.0000
  C   C685      1.0  0.87203  0.10047  0.08068  1.0000
  H   H1173     1.0  0.89198  0.05868  0.04927  1.0000
  H   H1174     1.0  0.87382  0.08134  0.01991  1.0000
  H   H1175     1.0  0.85383  0.12885  0.06808  1.0000
  H   H1176     1.0  0.87151  0.10595  0.09751  1.0000
  C   C686      1.0  0.82103  0.06562  0.21905  1.0000
  C   C687      1.0  0.61110  0.24143  0.14414  1.0000
  H   H1177     1.0  0.87820  0.01680  0.22694  1.0000
  C   C688      1.0  0.58778  0.28526  0.10330  1.0000
  H   H1178     1.0  0.65920  0.45750  0.21558  1.0000
  C   C689      1.0  0.60588  0.32588  0.04872  1.0000
  C   C690      1.0  0.59261  0.30875  0.04243  1.0000
  C   C691      1.0  0.59957  0.29492  0.02508  1.0000
  C   C692      1.0  0.93067  0.10352  0.04036  1.0000
  C   C693      1.0  0.63285  0.31547  0.01976  1.0000
  C   C694      1.0  0.62596  0.32919  0.03720  1.0000
  H   H1179     1.0  0.57696  0.30626  0.05082  1.0000
  H   H1180     1.0  0.59380  0.29904  0.09276  1.0000
  C   C695      1.0  0.61641  0.49518  0.21336  1.0000
  H   H1181     1.0  0.63637  0.34240  0.04184  1.0000
  C   C696      1.0  0.58570  0.43161  0.15349  1.0000
  C   C697      1.0  0.60405  0.44520  0.15465  1.0000
  C   C698      1.0  0.60141  0.46814  0.15723  1.0000
  C   C699      1.0  0.58030  0.47768  0.15943  1.0000
  C   C700      1.0  0.56197  0.46413  0.15800  1.0000
  C   C701      1.0  0.56462  0.44128  0.15476  1.0000
  H   H1182     1.0  0.62044  0.43791  0.15359  1.0000
  H   H1183     1.0  0.61567  0.47836  0.15797  1.0000
  H   H1184     1.0  0.54557  0.47133  0.15960  1.0000
  H   H1185     1.0  0.55034  0.43109  0.15391  1.0000
  C   C702      1.0  0.55381  0.26043  0.23004  1.0000
  C   C703      1.0  0.56001  0.24847  0.21135  1.0000
  C   C704      1.0  0.56099  0.25900  0.19031  1.0000
  C   C705      1.0  0.55596  0.28167  0.18752  1.0000
  C   C706      1.0  0.55002  0.29369  0.20625  1.0000
  C   C707      1.0  0.54890  0.28312  0.22729  1.0000
  H   H1186     1.0  0.56376  0.23103  0.21307  1.0000
  H   H1187     1.0  0.56547  0.24940  0.17606  1.0000
  H   H1188     1.0  0.54603  0.31108  0.20450  1.0000
  H   H1189     1.0  0.77138  0.07681  0.24535  1.0000
  N   N51       1.0  0.61204  0.41601  0.07976  1.0000
  C   C708      1.0  0.59647  0.41192  0.06136  1.0000
  C   C709      1.0  0.59893  0.42766  0.09761  1.0000
  C   C710      1.0  0.61979  0.39382  0.08863  1.0000
  C   C711      1.0  0.63105  0.42925  0.07065  1.0000
  C   C712      1.0  0.60632  0.39977  0.04116  1.0000
  C   C713      1.0  0.58816  0.45001  0.09092  1.0000
  C   C714      1.0  0.63621  0.39371  0.10750  1.0000
  C   C715      1.0  0.64377  0.44283  0.08723  1.0000
  H   H1190     1.0  0.58209  0.40235  0.06765  1.0000
  H   H1191     1.0  0.58953  0.42770  0.05459  1.0000
  H   H1192     1.0  0.60896  0.43064  0.11206  1.0000
  H   H1193     1.0  0.58550  0.41705  0.10423  1.0000
  H   H1194     1.0  0.60545  0.38405  0.09461  1.0000
  H   H1195     1.0  0.62813  0.38399  0.07552  1.0000
  H   H1196     1.0  0.64324  0.41831  0.06195  1.0000
  H   H1197     1.0  0.62505  0.44138  0.05796  1.0000
  H   H1198     1.0  0.59379  0.39974  0.02816  1.0000
  H   H1199     1.0  0.93323  0.08762  0.04949  1.0000
  C   C716      1.0  0.85577  0.13072  0.19115  1.0000
  H   H1200     1.0  0.57304  0.44768  0.08147  1.0000
  H   H1201     1.0  0.58292  0.45885  0.10609  1.0000
  H   H1202     1.0  0.59951  0.46077  0.08134  1.0000
  H   H1203     1.0  0.63004  0.44486  0.23780  1.0000
  C   C717      1.0  0.87424  0.13150  0.25148  1.0000
  C   C718      1.0  0.61749  0.28772  0.12971  1.0000
  C   C719      1.0  0.60665  0.44703  0.21217  1.0000
  H   H1204     1.0  0.64308  0.43677  0.10452  1.0000
  H   H1205     1.0  0.63832  0.46042  0.08649  1.0000
  C   C720      1.0  0.64987  0.47224  0.20928  1.0000
  C   C721      1.0  0.62964  0.30728  0.11889  1.0000
  H   H1206     1.0  0.58827  0.24215  0.11802  1.0000
  H   H1207     1.0  0.61900  0.31783  0.10832  1.0000
  C   C722      1.0  0.59576  0.25458  0.12850  1.0000
  H   H1208     1.0  0.91526  0.08887  0.01283  1.0000
  H   H1209     1.0  0.65239  0.39997  0.10177  1.0000
  H   H1210     1.0  0.89782  0.11949  0.20103  1.0000
  H   H1211     1.0  0.54401  0.29261  0.24152  1.0000
  C   C723      1.0  0.79951  0.07411  0.22271  1.0000
  H   H1212     1.0  0.80630  0.01615  0.18464  1.0000
  H   H1213     1.0  0.84753  0.04691  0.23377  1.0000
  H   H1214     1.0  0.83926  0.12635  0.22238  1.0000
  H   H1215     1.0  0.86960  0.00873  0.18944  1.0000
  H   H1216     1.0  0.61599  0.24629  0.09267  1.0000
  H   H1217     1.0  0.61032  0.38224  0.04497  1.0000
  C   C724      1.0  0.90156  0.15212  0.21440  1.0000
  H   H1218     1.0  0.58195  0.26135  0.13885  1.0000
  H   H1219     1.0  0.61818  0.44187  0.19873  1.0000
  H   H1220     1.0  0.90463  0.08539  0.23694  1.0000
  C   C725      1.0  0.61975  0.29816  0.01366  1.0000
  H   H1221     1.0  0.94450  0.08818  0.01182  1.0000
  C   C726      1.0  0.99799  0.14172  0.19118  1.0000
  N   N52       1.0  0.63105  0.47836  0.22482  1.0000
  C   C727      1.0  0.78793  0.07020  0.24290  1.0000
  H   H1222     1.0  0.60244  0.22663  0.15060  1.0000
  H   H1223     1.0  0.99827  0.07716  0.19484  1.0000
  H   H1224     1.0  0.61212  0.48971  0.19671  1.0000
  H   H1225     1.0  0.91210  0.15434  0.19930  1.0000
  H   H1226     1.0  0.63814  0.25776  0.10668  1.0000
  H   H1227     1.0  0.62989  0.40271  0.12207  1.0000
  H   H1228     1.0  0.63028  0.27866  0.13930  1.0000
  C   C728      1.0  0.99024  0.13500  0.21212  1.0000
  H   H1229     1.0  0.91006  0.13813  0.02368  1.0000
  H   H1230     1.0  0.99783  0.14110  0.22662  1.0000
  H   H1231     1.0  0.57685  0.29339  0.11584  1.0000
  H   H1232     1.0  0.84665  0.02124  0.20333  1.0000
  C   C729      1.0  0.57293  0.27157  0.08896  1.0000
  H   H1233     1.0  0.60539  0.29448  0.14211  1.0000
  H   H1234     1.0  0.87304  0.09161  0.21201  1.0000
  H   H1235     1.0  0.61899  0.26965  0.06292  1.0000
  H   H1236     1.0  0.62099  0.40793  0.03388  1.0000
  H   H1237     1.0  0.89460  0.12311  0.00494  1.0000
  H   H1238     1.0  0.79165  0.08378  0.20981  1.0000
  H   H1239     1.0  0.56183  0.28291  0.07957  1.0000
  C   C730      1.0  0.98771  0.13371  0.17255  1.0000
  H   H1240     1.0  0.86974  0.13938  0.18303  1.0000
  H   H1241     1.0  0.62618  0.29353  0.07809  1.0000
  H   H1242     1.0  0.62650  0.23567  0.13574  1.0000
  H   H1243     1.0  0.61492  0.25115  0.15877  1.0000
  C   C731      1.0  0.63920  0.48823  0.24555  1.0000
  H   H1244     1.0  0.66146  0.44278  0.08215  1.0000
  H   H1245     1.0  0.84043  0.13809  0.18428  1.0000
  H   H1246     1.0  0.59349  0.45789  0.20526  1.0000
  H   H1247     1.0  0.63541  0.31796  0.13207  1.0000
  H   H1248     1.0  0.58924  0.28164  0.02045  1.0000
  H   H1249     1.0  0.85630  0.11321  0.18659  1.0000
  H   H1250     1.0  0.64452  0.30165  0.10946  1.0000
  C   C732      1.0  0.92994  0.09907  0.01543  1.0000
  C   C733      1.0  0.62831  0.27551  0.07705  1.0000
  H   H1251     1.0  0.64591  0.27235  0.07252  1.0000
  H   H1252     1.0  0.90972  0.12005  0.22687  1.0000
  C   C734      1.0  0.83090  0.05322  0.23602  1.0000
  H   H1253     1.0  0.56803  0.09274  0.24268  1.0000
  C   C735      1.0  0.62246  0.26213  0.09837  1.0000
  H   H1254     1.0  0.58254  0.26156  0.07693  1.0000
  N   N53       1.0  0.60621  0.27260  0.11446  1.0000
  N   N54       1.0  0.87418  0.12266  0.22851  1.0000
  C   C736      1.0  0.87127  0.09809  0.22894  1.0000
  H   H1255     1.0  0.94435  0.11428  0.04448  1.0000
  H   H1256     1.0  0.91484  0.11052  0.04686  1.0000
  H   H1257     1.0  0.88697  0.16304  0.21203  1.0000
  C   C737      1.0  0.59473  0.50149  0.22570  1.0000
  H   H1258     1.0  0.96464  0.11967  0.00584  1.0000
  H   H1259     1.0  0.60637  0.46107  0.24454  1.0000
  H   H1260     1.0  0.64839  0.31821  0.01116  1.0000
  C   C738      1.0  0.66665  0.49041  0.20402  1.0000
  H   H1261     1.0  0.85431  0.09385  0.23456  1.0000
  H   H1262     1.0  0.99349  0.13884  0.15626  1.0000
  H   H1263     1.0  0.67939  0.48402  0.19222  1.0000
  H   H1264     1.0  0.94924  0.14177  0.01793  1.0000
  H   H1265     1.0  0.82980  0.02986  0.17219  1.0000
  H   H1266     1.0  0.67121  0.47012  0.24840  1.0000
  C   C739      1.0  0.85638  0.00560  0.20207  1.0000
  H   H1267     1.0  0.85351  0.15118  0.21966  1.0000
  C   C740      1.0  0.88740  0.08432  0.24324  1.0000
  H   H1268     1.0  0.91062  0.15779  0.22880  1.0000
  H   H1269     1.0  0.58418  0.48720  0.22933  1.0000
  H   H1270     1.0  0.57588  0.13298  0.23979  1.0000
  C   C741      1.0  0.58343  0.12224  0.25274  1.0000
  C   C742      1.0  0.90970  0.13295  0.00627  1.0000
  C   C743      1.0  0.89597  0.12754  0.21730  1.0000
  C   C744      1.0  0.61868  0.45782  0.23104  1.0000
  H   H1271     1.0  0.59854  0.43192  0.21862  1.0000
  H   H1272     1.0  0.88301  0.06672  0.24254  1.0000
  H   H1273     1.0  0.59981  0.11686  0.24608  1.0000
  Fe  Fe105     1.0  0.86725  0.37329  0.44195  1.0000
  S   S208      1.0  0.87341  0.40630  0.45563  1.0000
  S   S209      1.0  0.89178  0.35192  0.42211  1.0000
  Fe  Fe106     1.0  0.81844  0.37485  0.45723  1.0000
  S   S210      1.0  0.82163  0.40861  0.47223  1.0000
  S   S211      1.0  0.78481  0.35839  0.45388  1.0000
  Fe  Fe107     1.0  0.84109  0.41755  0.44116  1.0000
  S   S212      1.0  0.84386  0.45060  0.42210  1.0000
  Fe  Fe108     1.0  0.85376  0.39515  0.48564  1.0000
  S   S213      1.0  0.83617  0.38496  0.42551  1.0000
  S   S214      1.0  0.84931  0.36094  0.47258  1.0000
  Fe  Fe109     1.0  0.67363  0.24002  0.42174  1.0000
  S   S215      1.0  0.65801  0.21440  0.44346  1.0000
  S   S216      1.0  0.65998  0.24882  0.38811  1.0000
  Fe  Fe110     1.0  0.71267  0.24501  0.45222  1.0000
  S   S217      1.0  0.69994  0.21839  0.47590  1.0000
  S   S218      1.0  0.74570  0.26090  0.45983  1.0000
  Fe  Fe111     1.0  0.69204  0.19964  0.44556  1.0000
  S   S219      1.0  0.69117  0.16262  0.44172  1.0000
  Fe  Fe112     1.0  0.66676  0.23485  0.47201  1.0000
  S   S220      1.0  0.70752  0.22437  0.42232  1.0000
  S   S221      1.0  0.67970  0.26251  0.44994  1.0000
  Fe  Fe113     1.0  0.75234  0.05939  0.30649  1.0000
  S   S222      1.0  0.72300  0.03727  0.31132  1.0000
  S   S223      1.0  0.78391  0.05161  0.28560  1.0000
  Fe  Fe114     1.0  0.73741  0.08688  0.34673  1.0000
  S   S224      1.0  0.70801  0.06648  0.35486  1.0000
  S   S225      1.0  0.74732  0.11713  0.36490  1.0000
  Fe  Fe115     1.0  0.72957  0.03681  0.34767  1.0000
  C   C745      1.0  0.63038  0.16085  0.45710  1.0000
  Fe  Fe116     1.0  0.70321  0.06853  0.31818  1.0000
  S   S226      1.0  0.66719  0.07499  0.31061  1.0000
  S   S227      1.0  0.75981  0.05727  0.34271  1.0000
  S   S228      1.0  0.73169  0.09069  0.31039  1.0000
  Fe  Fe117     1.0  0.55923  0.21342  0.27214  1.0000
  S   S229      1.0  0.53797  0.20155  0.30117  1.0000
  Fe  Fe118     1.0  0.59190  0.17439  0.27854  1.0000
  S   S230      1.0  0.57321  0.16021  0.30755  1.0000
  C   C746      1.0  0.81926  0.04915  0.25612  1.0000
  Fe  Fe119     1.0  0.54278  0.16731  0.28803  1.0000
  H   H1274     1.0  0.63735  0.00974  0.48583  1.0000
  Fe  Fe120     1.0  0.57000  0.19513  0.31842  1.0000
  S   S231      1.0  0.57532  0.20183  0.35448  1.0000
  S   S232      1.0  0.59077  0.20891  0.29073  1.0000
  H   H1275     1.0  0.63919  0.17778  0.34352  1.0000
  C   C747      1.0  0.65757  0.10057  0.29988  1.0000
  C   C748      1.0  0.63850  0.11037  0.30924  1.0000
  C   C749      1.0  0.62883  0.12931  0.29945  1.0000
  C   C750      1.0  0.63768  0.13813  0.27978  1.0000
  C   C751      1.0  0.65714  0.12876  0.27079  1.0000
  C   C752      1.0  0.66718  0.11014  0.28091  1.0000
  H   H1276     1.0  0.63107  0.10313  0.32400  1.0000
  C   C753      1.0  0.76831  0.01115  0.41467  1.0000
  H   H1277     1.0  0.55650  0.16530  0.47538  1.0000
  H   H1278     1.0  0.68179  0.10259  0.27347  1.0000
  C   C754      1.0  0.63712  0.23452  0.37888  1.0000
  C   C755      1.0  0.62226  0.22456  0.39375  1.0000
  C   C756      1.0  0.60360  0.21426  0.38600  1.0000
  C   C757      1.0  0.59983  0.21346  0.36332  1.0000
  C   C758      1.0  0.61500  0.22290  0.34840  1.0000
  C   C759      1.0  0.63335  0.23374  0.35619  1.0000
  H   H1279     1.0  0.62467  0.22553  0.41125  1.0000
  H   H1280     1.0  0.59185  0.20716  0.39764  1.0000
  H   H1281     1.0  0.61235  0.22233  0.33091  1.0000
  H   H1282     1.0  0.64471  0.24152  0.34460  1.0000
  C   C760      1.0  0.70626  0.15046  0.41974  1.0000
  C   C761      1.0  0.70053  0.12959  0.41257  1.0000
  C   C762      1.0  0.71267  0.11932  0.39544  1.0000
  C   C763      1.0  0.73091  0.12969  0.38572  1.0000
  C   C764      1.0  0.73659  0.15052  0.39289  1.0000
  C   C765      1.0  0.72421  0.16097  0.40969  1.0000
  H   H1283     1.0  0.68665  0.12137  0.42027  1.0000
  H   H1284     1.0  0.70804  0.10337  0.38987  1.0000
  H   H1285     1.0  0.75070  0.15862  0.38547  1.0000
  H   H1286     1.0  0.72887  0.17696  0.41519  1.0000
  C   C766      1.0  0.56324  0.25485  0.31975  1.0000
  H   H1287     1.0  0.64200  0.16093  0.42304  1.0000
  C   C767      1.0  0.69032  0.15170  0.34871  1.0000
  S   S233      1.0  0.51890  0.13889  0.28418  1.0000
  H   H1288     1.0  0.61441  0.13690  0.30698  1.0000
  C   C768      1.0  0.82575  0.46520  0.40393  1.0000
  C   C769      1.0  0.80432  0.45846  0.40034  1.0000
  C   C770      1.0  0.79056  0.47082  0.38599  1.0000
  H   H1289     1.0  0.66880  0.15347  0.30986  1.0000
  H   H1290     1.0  0.55543  0.29072  0.34871  1.0000
  C   C771      1.0  0.83322  0.48433  0.39282  1.0000
  H   H1291     1.0  0.79828  0.44383  0.40874  1.0000
  H   H1292     1.0  0.55146  0.11004  0.25994  1.0000
  H   H1293     1.0  0.72828  0.30332  0.44202  1.0000
  C   C772      1.0  0.59931  0.27119  0.28625  1.0000
  C   C773      1.0  0.92055  0.35647  0.41928  1.0000
  C   C774      1.0  0.93370  0.34274  0.40566  1.0000
  C   C775      1.0  0.95655  0.34599  0.40287  1.0000
  C   C776      1.0  0.96646  0.36315  0.41358  1.0000
  C   C777      1.0  0.95326  0.37691  0.42710  1.0000
  C   C778      1.0  0.93051  0.37352  0.43007  1.0000
  H   H1294     1.0  0.92619  0.32947  0.39724  1.0000
  H   H1295     1.0  0.96646  0.33525  0.39244  1.0000
  H   H1296     1.0  0.96075  0.39017  0.43556  1.0000
  H   H1297     1.0  0.92071  0.38402  0.44082  1.0000
  C   C779      1.0  0.75582  0.28834  0.45868  1.0000
  C   C780      1.0  0.77648  0.29238  0.46761  1.0000
  C   C781      1.0  0.78545  0.31368  0.46672  1.0000
  C   C782      1.0  0.77395  0.33129  0.45666  1.0000
  C   C783      1.0  0.75314  0.32731  0.44806  1.0000
  C   C784      1.0  0.74413  0.30604  0.44903  1.0000
  H   H1298     1.0  0.78566  0.27892  0.47528  1.0000
  H   H1299     1.0  0.80125  0.31646  0.47380  1.0000
  H   H1300     1.0  0.74400  0.34076  0.44032  1.0000
  H   H1301     1.0  0.69190  0.21068  0.37545  1.0000
  H   H1302     1.0  0.78454  0.08089  0.42135  1.0000
  H   H1303     1.0  0.55097  0.09094  0.32620  1.0000
  H   H1304     1.0  0.66165  0.48366  0.27262  1.0000
  H   H1305     1.0  0.76409  0.03442  0.38754  1.0000
  S   S234      1.0  0.73324  0.00440  0.36770  1.0000
  H   H1306     1.0  0.60532  0.26372  0.32024  1.0000
  H   H1307     1.0  0.59462  0.22111  0.48693  1.0000
  H   H1308     1.0  0.64904  0.45877  0.26532  1.0000
  C   C785      1.0  0.79805  0.48992  0.37485  1.0000
  H   H1309     1.0  0.58274  0.28213  0.37562  1.0000
  H   H1310     1.0  0.64605  0.16852  0.46172  1.0000
  C   C786      1.0  0.79768  0.05758  0.25978  1.0000
  H   H1311     1.0  0.59165  0.25565  0.28188  1.0000
  H   H1312     1.0  0.62659  0.19871  0.47866  1.0000
  H   H1313     1.0  0.57371  0.07195  0.32082  1.0000
  H   H1314     1.0  0.96655  0.32063  0.44517  1.0000
  H   H1315     1.0  0.85568  0.13349  0.28254  1.0000
  H   H1316     1.0  0.55568  0.28385  0.28827  1.0000
  H   H1317     1.0  0.60388  0.12568  0.49375  1.0000
  H   H1318     1.0  0.62398  0.05888  0.28638  1.0000
  C   C787      1.0  0.61829  0.15882  0.49547  1.0000
  N   N55       1.0  0.61186  0.16738  0.47293  1.0000
  C   C788      1.0  0.60700  0.06398  0.29168  1.0000
  H   H1319     1.0  0.55741  0.11351  0.29667  1.0000
  H   H1320     1.0  0.59379  0.14112  0.45904  1.0000
  S   S235      1.0  0.62473  0.16060  0.26592  1.0000
  H   H1321     1.0  0.69025  0.01511  0.38899  1.0000
  H   H1322     1.0  0.57805  0.09762  0.33312  1.0000
  H   H1323     1.0  0.88163  0.39096  0.36264  1.0000
  H   H1324     1.0  0.78457  0.04091  0.40646  1.0000
  H   H1325     1.0  0.70720  0.15583  0.34256  1.0000
  H   H1326     1.0  0.70697  0.18546  0.37199  1.0000
  H   H1327     1.0  0.58473  0.16786  0.45065  1.0000
  H   H1328     1.0  0.77457  0.04982  0.44309  1.0000
  C   C789      1.0  0.77646  0.08294  0.40528  1.0000
  C   C790      1.0  0.59071  0.15810  0.46518  1.0000
  H   H1329     1.0  0.54006  0.31545  0.32475  1.0000
  H   H1330     1.0  0.85669  0.40136  0.37617  1.0000
  H   H1331     1.0  0.57584  0.20045  0.48045  1.0000
  C   C791      1.0  0.56844  0.08945  0.32045  1.0000
  H   H1332     1.0  0.60872  0.07200  0.30772  1.0000
  N   N56       1.0  0.67388  0.16908  0.34107  1.0000
  H   H1333     1.0  0.69357  0.04822  0.41838  1.0000
  C   C792      1.0  0.61911  0.13355  0.49879  1.0000
  H   H1334     1.0  0.78797  0.34923  0.38297  1.0000
  H   H1335     1.0  0.82706  0.03946  0.26905  1.0000
  H   H1336     1.0  0.66316  0.18637  0.28656  1.0000
  H   H1337     1.0  0.68865  0.12587  0.32380  1.0000
  H   H1338     1.0  0.69329  0.19850  0.33692  1.0000
  N   N57       1.0  0.90263  0.42462  0.38359  1.0000
  C   C793      1.0  0.90591  0.44339  0.39901  1.0000
  C   C794      1.0  0.89473  0.43472  0.36216  1.0000
  C   C795      1.0  0.92473  0.41333  0.37969  1.0000
  C   C796      1.0  0.88638  0.40896  0.39424  1.0000
  C   C797      1.0  0.91712  0.43736  0.42094  1.0000
  C   C798      1.0  0.87318  0.44864  0.36390  1.0000
  C   C799      1.0  0.92535  0.39339  0.36452  1.0000
  C   C800      1.0  0.76744  0.03510  0.40548  1.0000
  H   H1339     1.0  0.91583  0.45654  0.39073  1.0000
  H   H1340     1.0  0.88984  0.45144  0.40365  1.0000
  H   H1341     1.0  0.89230  0.42225  0.34954  1.0000
  H   H1342     1.0  0.90753  0.44560  0.35462  1.0000
  H   H1343     1.0  0.93688  0.42533  0.37291  1.0000
  H   H1344     1.0  0.93155  0.40679  0.39541  1.0000
  H   H1345     1.0  0.89470  0.39793  0.40648  1.0000
  H   H1346     1.0  0.87361  0.41830  0.40386  1.0000
  H   H1347     1.0  0.93516  0.43491  0.41849  1.0000
  H   H1348     1.0  0.91458  0.45116  0.43249  1.0000
  H   H1349     1.0  0.91014  0.42254  0.42907  1.0000
  H   H1350     1.0  0.86682  0.45207  0.34714  1.0000
  H   H1351     1.0  0.99594  0.29840  0.49568  1.0000
  H   H1352     1.0  0.87603  0.46485  0.37123  1.0000
  H   H1353     1.0  0.91630  0.37940  0.37216  1.0000
  H   H1354     1.0  0.88919  0.12568  0.26033  1.0000
  C   C801      1.0  0.62686  0.16613  0.43237  1.0000
  H   H1355     1.0  0.56241  0.05714  0.29162  1.0000
  H   H1356     1.0  0.69175  0.17095  0.30969  1.0000
  C   C802      1.0  0.55937  0.29271  0.30357  1.0000
  H   H1357     1.0  0.59754  0.04870  0.29362  1.0000
  C   C803      1.0  0.61073  0.19223  0.47307  1.0000
  C   C804      1.0  0.57224  0.28760  0.34187  1.0000
  H   H1358     1.0  0.72551  0.04113  0.39547  1.0000
  N   N58       1.0  0.57209  0.27782  0.31926  1.0000
  S   S236      1.0  0.99518  0.36804  0.41135  1.0000
  H   H1359     1.0  0.91936  0.39747  0.34781  1.0000
  H   H1360     1.0  0.56202  0.24876  0.30275  1.0000
  C   C805      1.0  0.58447  0.27377  0.35958  1.0000
  H   H1361     1.0  0.77398  0.46550  0.38347  1.0000
  H   H1362     1.0  0.52734  0.25243  0.31820  1.0000
  C   C806      1.0  0.57125  0.15664  0.48216  1.0000
  H   H1363     1.0  0.60841  0.19931  0.45626  1.0000
  H   H1364     1.0  0.72683  0.02536  0.42042  1.0000
  H   H1365     1.0  0.66475  0.20425  0.30932  1.0000
  C   C807      1.0  0.59573  0.27650  0.31088  1.0000
  N   N59       1.0  0.75132  0.05074  0.41682  1.0000
  C   C808      1.0  0.75337  0.07293  0.40534  1.0000
  C   C809      1.0  0.72856  0.04229  0.41341  1.0000
  H   H1366     1.0  0.77504  0.10088  0.40146  1.0000
  H   H1367     1.0  0.56950  0.30698  0.29809  1.0000
  C   C810      1.0  0.70913  0.05560  0.42352  1.0000
  C   C811      1.0  0.74877  0.07197  0.45369  1.0000
  C   C812      1.0  0.53414  0.07506  0.27986  1.0000
  H   H1368     1.0  0.74182  0.08541  0.41231  1.0000
  H   H1369     1.0  0.74852  0.07197  0.38783  1.0000
  H   H1370     1.0  0.80274  0.35737  0.40672  1.0000
  C   C813      1.0  0.85387  0.12608  0.26615  1.0000
  H   H1371     1.0  0.56664  0.13921  0.48502  1.0000
  H   H1372     1.0  0.71085  0.26017  0.49524  1.0000
  H   H1373     1.0  0.77209  0.01019  0.43243  1.0000
  H   H1374     1.0  0.70905  0.05450  0.44178  1.0000
  H   H1375     1.0  0.67462  0.31302  0.47821  1.0000
  H   H1376     1.0  0.70855  0.07296  0.41760  1.0000
  H   H1377     1.0  0.74428  0.06702  0.47093  1.0000
  H   H1378     1.0  0.73429  0.08096  0.44707  1.0000
  H   H1379     1.0  0.76255  0.08350  0.45502  1.0000
  H   H1380     1.0  0.74942  0.03658  0.44986  1.0000
  H   H1381     1.0  0.78505  0.33427  0.40804  1.0000
  C   C814      1.0  0.57178  0.10189  0.29809  1.0000
  H   H1382     1.0  0.54003  0.23467  0.33857  1.0000
  H   H1383     1.0  0.57496  0.24283  0.32748  1.0000
  H   H1384     1.0  0.60413  0.29231  0.31344  1.0000
  H   H1385     1.0  0.57409  0.16377  0.49836  1.0000
  C   C815      1.0  0.97552  0.32772  0.45895  1.0000
  H   H1386     1.0  0.64249  0.18500  0.30770  1.0000
  C   C816      1.0  0.66035  0.18742  0.30468  1.0000
  H   H1387     1.0  0.94272  0.38749  0.36246  1.0000
  H   H1388     1.0  0.53610  0.26262  0.34424  1.0000
  C   C817      1.0  0.87351  0.39436  0.37870  1.0000
  H   H1389     1.0  0.62435  0.18388  0.42857  1.0000
  C   C818      1.0  0.65622  0.47412  0.25842  1.0000
  H   H1390     1.0  0.61723  0.26916  0.28259  1.0000
  H   H1391     1.0  0.84972  0.48977  0.39545  1.0000
  H   H1392     1.0  0.99336  0.34685  0.49608  1.0000
  H   H1393     1.0  0.61311  0.15682  0.42580  1.0000
  H   H1394     1.0  0.87100  0.37807  0.38693  1.0000
  H   H1395     1.0  0.62529  0.49155  0.25736  1.0000
  H   H1396     1.0  0.78720  0.07573  0.39210  1.0000
  H   H1397     1.0  0.86009  0.44022  0.37367  1.0000
  H   H1398     1.0  0.63489  0.16474  0.49944  1.0000
  C   C819      1.0  0.68050  0.19154  0.34840  1.0000
  C   C820      1.0  0.59227  0.20302  0.48728  1.0000
  C   C821      1.0  0.75642  0.05120  0.44101  1.0000
  C   C822      1.0  0.65068  0.16423  0.34877  1.0000
  C   C823      1.0  0.68605  0.12795  0.34178  1.0000
  C   C824      1.0  0.64639  0.16151  0.37380  1.0000
  H   H1399     1.0  0.69155  0.15108  0.36686  1.0000
  H   H1400     1.0  0.64421  0.14964  0.34053  1.0000
  H   H1401     1.0  0.69820  0.11664  0.34976  1.0000
  H   H1402     1.0  0.66950  0.12236  0.34710  1.0000
  C   C825      1.0  0.67452  0.16929  0.31617  1.0000
  H   H1403     1.0  0.67977  0.18569  0.38481  1.0000
  H   H1404     1.0  0.64306  0.17777  0.38137  1.0000
  H   H1405     1.0  0.65978  0.15267  0.38254  1.0000
  H   H1406     1.0  0.63175  0.15117  0.37674  1.0000
  H   H1407     1.0  0.57974  0.30416  0.34092  1.0000
  C   C826      1.0  0.54037  0.25138  0.33072  1.0000
  H   H1408     1.0  0.60237  0.27219  0.35580  1.0000
  N   N60       1.0  0.57417  0.08827  0.27766  1.0000
  C   C827      1.0  0.53740  0.30293  0.31213  1.0000
  H   H1409     1.0  0.59312  0.28464  0.27520  1.0000
  H   H1410     1.0  0.57741  0.25721  0.36206  1.0000
  C   C828      1.0  0.69019  0.19305  0.37154  1.0000
  H   H1411     1.0  0.58627  0.11244  0.29954  1.0000
  H   H1412     1.0  0.66630  0.20339  0.34776  1.0000
  N   N61       1.0  0.82428  0.31034  0.40543  1.0000
  C   C829      1.0  0.84242  0.29692  0.39434  1.0000
  C   C830      1.0  0.80565  0.29518  0.41150  1.0000
  C   C831      1.0  0.83214  0.32062  0.42605  1.0000
  C   C832      1.0  0.81704  0.32855  0.38974  1.0000
  C   C833      1.0  0.86454  0.30851  0.39035  1.0000
  C   C834      1.0  0.79230  0.28717  0.39212  1.0000
  C   C835      1.0  0.84137  0.30437  0.44362  1.0000
  C   C836      1.0  0.79721  0.34307  0.39750  1.0000
  H   H1413     1.0  0.84601  0.28143  0.40390  1.0000
  H   H1414     1.0  0.83719  0.29146  0.37796  1.0000
  H   H1415     1.0  0.79384  0.30286  0.42342  1.0000
  H   H1416     1.0  0.81185  0.28012  0.42037  1.0000
  H   H1417     1.0  0.84490  0.33304  0.42211  1.0000
  H   H1418     1.0  0.81852  0.33012  0.43423  1.0000
  H   H1419     1.0  0.83063  0.34019  0.38645  1.0000
  H   H1420     1.0  0.81359  0.32223  0.37314  1.0000
  H   H1421     1.0  0.87270  0.31179  0.40601  1.0000
  H   H1422     1.0  0.87595  0.29747  0.38091  1.0000
  H   H1423     1.0  0.86285  0.32404  0.38055  1.0000
  H   H1424     1.0  0.77991  0.27536  0.39864  1.0000
  H   H1425     1.0  0.78301  0.30087  0.38396  1.0000
  H   H1426     1.0  0.80281  0.27839  0.37982  1.0000
  H   H1427     1.0  0.84690  0.31385  0.45779  1.0000
  H   H1428     1.0  0.85587  0.29478  0.43743  1.0000
  H   H1429     1.0  0.82864  0.29303  0.45017  1.0000
  H   H1430     1.0  0.97299  0.34576  0.45768  1.0000
  H   H1431     1.0  0.70242  0.30358  0.47843  1.0000
  C   C837      1.0  0.59765  0.08014  0.27418  1.0000
  H   H1432     1.0  0.63358  0.12592  0.49017  1.0000
  C   C838      1.0  0.81958  0.49648  0.37822  1.0000
  H   H1433     1.0  0.96747  0.32162  0.47441  1.0000
  H   H1434     1.0  0.52923  0.31168  0.29816  1.0000
  H   H1435     1.0  0.83849  0.13315  0.25917  1.0000
  H   H1436     1.0  0.56158  0.05929  0.26279  1.0000
  H   H1437     1.0  0.61151  0.01297  0.50011  1.0000
  H   H1438     1.0  0.63379  0.14282  0.45795  1.0000
  H   H1439     1.0  0.72586  0.28415  0.49774  1.0000
  S   S237      1.0  0.64199  0.24258  0.50001  1.0000
  H   H1440     1.0  0.69215  0.32424  0.49777  1.0000
  H   H1441     1.0  0.52576  0.29056  0.31857  1.0000
  S   S238      1.0  0.56193  0.17954  0.25771  1.0000
  H   H1442     1.0  0.53022  0.08674  0.29323  1.0000
  H   H1443     1.0  0.60917  0.09410  0.27365  1.0000
  H   H1444     1.0  0.66424  0.13562  0.25568  1.0000
  H   H1445     1.0  0.88635  0.08868  0.26085  1.0000
  C   C839      1.0  0.68846  0.30887  0.48930  1.0000
  H   H1446     1.0  0.67404  0.27743  0.49596  1.0000
  H   H1447     1.0  0.00031  0.30221  0.45960  1.0000
  H   H1448     1.0  0.85208  0.10813  0.26908  1.0000
  H   H1449     1.0  0.58543  0.13252  0.26731  1.0000
  H   H1450     1.0  0.52794  0.08212  0.26410  1.0000
  H   H1451     1.0  0.52472  0.05992  0.28355  1.0000
  C   C840      1.0  0.55894  0.06903  0.27801  1.0000
  C   C841      1.0  0.99999  0.32029  0.45717  1.0000
  S   S239      1.0  0.55166  0.24802  0.25709  1.0000
  C   C842      1.0  0.56832  0.10266  0.25789  1.0000
  H   H1452     1.0  0.59966  0.07208  0.25792  1.0000
  S   S240      1.0  0.87163  0.39880  0.51824  1.0000
  H   H1453     1.0  0.87040  0.37041  0.72623  1.0000
  Fe  Fe121     1.0  0.57635  0.17521  0.60073  1.0000
  S   S241      1.0  0.59032  0.16585  0.63396  1.0000
  S   S242      1.0  0.60074  0.17472  0.57103  1.0000
  Fe  Fe122     1.0  0.52877  0.17469  0.61887  1.0000
  S   S243      1.0  0.54013  0.16561  0.65287  1.0000
  Fe  Fe123     1.0  0.56604  0.19102  0.64787  1.0000
  S   S244      1.0  0.57631  0.21015  0.67823  1.0000
  Fe  Fe124     1.0  0.56338  0.14122  0.63679  1.0000
  S   S245      1.0  0.56202  0.10727  0.65387  1.0000
  S   S246      1.0  0.55357  0.20195  0.61445  1.0000
  S   S247      1.0  0.55048  0.14880  0.60297  1.0000
  Fe  Fe125     1.0  0.87523  0.45081  0.63943  1.0000
  S   S248      1.0  0.91217  0.44916  0.63861  1.0000
  S   S249      1.0  0.85383  0.44865  0.60910  1.0000
  Fe  Fe126     1.0  0.87275  0.46360  0.68850  1.0000
  S   S250      1.0  0.90980  0.46360  0.69031  1.0000
  S   S251      1.0  0.85596  0.47360  0.72114  1.0000
  Fe  Fe127     1.0  0.90937  0.48098  0.65705  1.0000
  Fe  Fe128     1.0  0.90944  0.43204  0.67192  1.0000
  S   S252      1.0  0.92665  0.39960  0.68232  1.0000
  S   S253      1.0  0.87264  0.48344  0.65665  1.0000
  S   S254      1.0  0.87230  0.43117  0.67142  1.0000
  H   H1454     1.0  0.60674  0.26700  0.68975  1.0000
  H   H1455     1.0  0.52615  0.22153  0.70244  1.0000
  S   S255      1.0  0.62554  0.02226  0.64636  1.0000
  C   C843      1.0  0.95255  0.39538  0.69494  1.0000
  C   C844      1.0  0.95932  0.37383  0.70115  1.0000
  C   C845      1.0  0.98006  0.36957  0.71052  1.0000
  H   H1456     1.0  0.73994  0.30774  0.53542  1.0000
  H   H1457     1.0  0.59063  0.36368  0.71288  1.0000
  C   C846      1.0  0.96666  0.41269  0.69847  1.0000
  H   H1458     1.0  0.94853  0.36030  0.69856  1.0000
  H   H1459     1.0  0.58714  0.32383  0.72757  1.0000
  C   C847      1.0  0.99634  0.33759  0.65922  1.0000
  H   H1460     1.0  0.96171  0.42935  0.69382  1.0000
  C   C848      1.0  0.83046  0.46544  0.73364  1.0000
  C   C849      1.0  0.81420  0.45544  0.72176  1.0000
  C   C850      1.0  0.79416  0.44951  0.73229  1.0000
  H   H1461     1.0  0.90760  0.44534  0.74377  1.0000
  H   H1462     1.0  0.81688  0.45254  0.70437  1.0000
  C   C851      1.0  0.89689  0.46907  0.54354  1.0000
  C   C852      1.0  0.63357  0.04082  0.70493  1.0000
  C   C853      1.0  0.57948  0.08359  0.65079  1.0000
  C   C854      1.0  0.59878  0.08390  0.63778  1.0000
  C   C855      1.0  0.61240  0.06483  0.63633  1.0000
  C   C856      1.0  0.60685  0.04519  0.64768  1.0000
  C   C857      1.0  0.58739  0.04478  0.66048  1.0000
  C   C858      1.0  0.57384  0.06391  0.66205  1.0000
  H   H1463     1.0  0.60337  0.09890  0.62906  1.0000
  H   H1464     1.0  0.62746  0.06536  0.62646  1.0000
  H   H1465     1.0  0.58293  0.02984  0.66937  1.0000
  H   H1466     1.0  0.55895  0.06348  0.67220  1.0000
  C   C859      1.0  0.56835  0.23457  0.69248  1.0000
  C   C860      1.0  0.55548  0.25142  0.68286  1.0000
  C   C861      1.0  0.54899  0.27007  0.69511  1.0000
  C   C862      1.0  0.55565  0.27246  0.71697  1.0000
  C   C863      1.0  0.56884  0.25578  0.72648  1.0000
  C   C864      1.0  0.57511  0.23700  0.71430  1.0000
  H   H1467     1.0  0.55068  0.25018  0.66594  1.0000
  H   H1468     1.0  0.53901  0.28296  0.68747  1.0000
  H   H1469     1.0  0.69928  0.01573  0.67469  1.0000
  H   H1470     1.0  0.58514  0.22413  0.72193  1.0000
  C   C865      1.0  0.63181  0.22418  0.52097  1.0000
  C   C866      1.0  0.61381  0.23085  0.53451  1.0000
  C   C867      1.0  0.60447  0.21628  0.55047  1.0000
  C   C868      1.0  0.61311  0.19484  0.55312  1.0000
  C   C869      1.0  0.63157  0.18849  0.54008  1.0000
  C   C870      1.0  0.64089  0.20302  0.52413  1.0000
  H   H1471     1.0  0.60670  0.24722  0.53231  1.0000
  H   H1472     1.0  0.59028  0.22144  0.56034  1.0000
  H   H1473     1.0  0.63857  0.17205  0.54218  1.0000
  N   N62       1.0  0.69813  0.28112  0.52109  1.0000
  C   C871      1.0  0.86612  0.41286  0.54331  1.0000
  C   C872      1.0  0.84701  0.42571  0.54696  1.0000
  C   C873      1.0  0.84349  0.43639  0.56722  1.0000
  C   C874      1.0  0.85896  0.43441  0.58407  1.0000
  C   C875      1.0  0.87815  0.42172  0.58035  1.0000
  C   C876      1.0  0.88167  0.41106  0.56011  1.0000
  H   H1474     1.0  0.83489  0.42726  0.53426  1.0000
  H   H1475     1.0  0.82857  0.44614  0.56989  1.0000
  H   H1476     1.0  0.89020  0.41998  0.59311  1.0000
  H   H1477     1.0  0.89649  0.40114  0.55749  1.0000
  H   H1478     1.0  0.66002  0.01919  0.67763  1.0000
  H   H1479     1.0  0.65109  0.33268  0.72965  1.0000
  H   H1480     1.0  0.78165  0.44193  0.72286  1.0000
  C   C877      1.0  0.90342  0.48038  0.58984  1.0000
  H   H1481     1.0  0.84405  0.42081  0.70971  1.0000
  H   H1482     1.0  0.87940  0.46480  0.54624  1.0000
  C   C878      1.0  0.51772  0.20821  0.69407  1.0000
  C   C879      1.0  0.52661  0.06689  0.61428  1.0000
  C   C880      1.0  0.98742  0.40843  0.70778  1.0000
  H   H1483     1.0  0.63905  0.01956  0.75307  1.0000
  H   H1484     1.0  0.60126  0.27965  0.66376  1.0000
  H   H1485     1.0  0.86327  0.48325  0.57383  1.0000
  H   H1486     1.0  0.52607  0.22428  0.65026  1.0000
  H   H1487     1.0  0.62450  0.02962  0.69426  1.0000
  H   H1488     1.0  0.98198  0.33524  0.64861  1.0000
  H   H1489     1.0  0.65496  0.19776  0.51415  1.0000
  H   H1490     1.0  0.84375  0.39125  0.70668  1.0000
  H   H1491     1.0  0.72895  0.24206  0.52602  1.0000
  H   H1492     1.0  0.61690  0.07024  0.69185  1.0000
  C   C881      1.0  0.66914  0.02859  0.68983  1.0000
  H   H1493     1.0  0.68365  0.24876  0.52268  1.0000
  C   C882      1.0  0.63746  0.31796  0.69965  1.0000
  H   H1494     1.0  0.67208  0.04499  0.68198  1.0000
  C   C883      1.0  0.60168  0.30305  0.69035  1.0000
  H   H1495     1.0  0.53585  0.18461  0.71422  1.0000
  H   H1496     1.0  0.72530  0.31656  0.51112  1.0000
  H   H1497     1.0  0.64061  0.06251  0.67596  1.0000
  C   C884      1.0  0.99655  0.31272  0.50649  1.0000
  C   C885      1.0  0.73474  0.25862  0.52085  1.0000
  H   H1498     1.0  0.64892  0.30339  0.69885  1.0000
  H   H1499     1.0  0.51187  0.24832  0.64041  1.0000
  H   H1500     1.0  0.70346  0.02804  0.70049  1.0000
  H   H1501     1.0  0.62104  0.12963  0.51664  1.0000
  H   H1502     1.0  0.64929  0.29726  0.74120  1.0000
  H   H1503     1.0  0.58446  0.30022  0.69617  1.0000
  H   H1504     1.0  0.97944  0.31635  0.51250  1.0000
  H   H1505     1.0  0.54402  0.06420  0.61912  1.0000
  C   C886      1.0  0.90149  0.49277  0.55049  1.0000
  H   H1506     1.0  0.93178  0.45771  0.59209  1.0000
  H   H1507     1.0  0.66623  0.33779  0.70462  1.0000
  C   C887      1.0  0.63405  0.06362  0.69313  1.0000
  C   C888      1.0  0.61023  0.28179  0.67926  1.0000
  H   H1508     1.0  0.74956  0.25592  0.51003  1.0000
  N   N63       1.0  0.65564  0.03067  0.71093  1.0000
  H   H1509     1.0  0.65239  0.27193  0.53668  1.0000
  H   H1510     1.0  0.72075  0.33004  0.53647  1.0000
  H   H1511     1.0  0.60036  0.31571  0.67685  1.0000
  H   H1512     1.0  0.87103  0.43678  0.74721  1.0000
  C   C889      1.0  0.69210  0.01759  0.69160  1.0000
  H   H1513     1.0  0.83962  0.41586  0.75060  1.0000
  H   H1514     1.0  0.87728  0.42844  0.72048  1.0000
  C   C890      1.0  0.92856  0.47563  0.58933  1.0000
  H   H1515     1.0  0.90750  0.45670  0.55218  1.0000
  C   C891      1.0  0.64935  0.33615  0.71182  1.0000
  H   H1516     1.0  0.60087  0.28793  0.73223  1.0000
  H   H1517     1.0  0.67436  0.05949  0.71780  1.0000
  C   C892      1.0  0.88042  0.42389  0.73795  1.0000
  H   H1518     1.0  0.66173  0.25332  0.55754  1.0000
  C   C893      1.0  0.51848  0.18783  0.70953  1.0000
  H   H1519     1.0  0.58019  0.34427  0.69440  1.0000
  H   H1520     1.0  0.69092  0.30848  0.54257  1.0000
  H   H1521     1.0  0.52857  0.20401  0.67976  1.0000
  C   C894      1.0  0.68767  0.26228  0.53392  1.0000
  C   C895      1.0  0.88157  0.38458  0.72741  1.0000
  H   H1522     1.0  0.98504  0.35295  0.71524  1.0000
  S   S256      1.0  0.54745  0.29688  0.73111  1.0000
  C   C896      1.0  0.66653  0.04544  0.72685  1.0000
  H   H1523     1.0  0.96254  0.36740  0.65000  1.0000
  H   H1524     1.0  0.64099  0.35247  0.70974  1.0000
  C   C897      1.0  0.99437  0.38684  0.71361  1.0000
  N   N64       1.0  0.61522  0.31124  0.70887  1.0000
  H   H1525     1.0  0.64338  0.07573  0.70225  1.0000
  H   H1526     1.0  0.63627  0.32410  0.68226  1.0000
  H   H1527     1.0  0.62510  0.27779  0.71851  1.0000
  C   C898      1.0  0.61744  0.29279  0.72583  1.0000
  H   H1528     1.0  0.93685  0.47989  0.57345  1.0000
  H   H1529     1.0  0.62804  0.28228  0.67496  1.0000
  H   H1530     1.0  0.73993  0.26761  0.53542  1.0000
  H   H1531     1.0  0.88293  0.39196  0.71043  1.0000
  C   C899      1.0  0.70526  0.29804  0.53709  1.0000
  C   C900      1.0  0.83879  0.40509  0.71745  1.0000
  H   H1532     1.0  0.66887  0.28164  0.55887  1.0000
  H   H1533     1.0  0.69928  0.25480  0.54599  1.0000
  C   C901      1.0  0.90516  0.42761  0.74076  1.0000
  H   H1534     1.0  0.86505  0.49705  0.61200  1.0000
  H   H1535     1.0  0.90329  0.36268  0.74717  1.0000
  H   H1536     1.0  0.89482  0.46466  0.58779  1.0000
  H   H1537     1.0  0.71147  0.28961  0.55230  1.0000
  H   H1538     1.0  0.90063  0.46751  0.52562  1.0000
  H   H1539     1.0  0.52371  0.08947  0.64037  1.0000
  H   H1540     1.0  0.52778  0.10229  0.61401  1.0000
  H   H1541     1.0  0.90985  0.36390  0.71840  1.0000
  C   C902      1.0  0.66651  0.26801  0.54743  1.0000
  H   H1542     1.0  0.82050  0.40573  0.71818  1.0000
  H   H1543     1.0  0.93655  0.48473  0.60250  1.0000
  H   H1544     1.0  0.97570  0.37088  0.62290  1.0000
  H   H1545     1.0  0.96782  0.39417  0.63914  1.0000
  H   H1546     1.0  0.57406  0.25725  0.74328  1.0000
  H   H1547     1.0  0.89911  0.48480  0.60711  1.0000
  C   C903      1.0  0.59512  0.34882  0.70326  1.0000
  H   H1548     1.0  0.61154  0.33751  0.73247  1.0000
  H   H1549     1.0  0.83985  0.38673  0.74809  1.0000
  C   C904      1.0  0.63153  0.29725  0.74587  1.0000
  H   H1550     1.0  0.51324  0.17295  0.70109  1.0000
  H   H1551     1.0  0.99509  0.30347  0.67029  1.0000
  C   C905      1.0  0.60236  0.33001  0.71921  1.0000
  H   H1552     1.0  0.98940  0.34211  0.67569  1.0000
  H   H1553     1.0  0.60825  0.35332  0.69110  1.0000
  C   C906      1.0  0.97461  0.37702  0.63994  1.0000
  C   C907      1.0  0.84729  0.40206  0.74111  1.0000
  C   C908      1.0  0.72379  0.31364  0.52912  1.0000
  N   N65       1.0  0.87202  0.40123  0.74339  1.0000
  C   C909      1.0  0.90426  0.37402  0.73258  1.0000
  H   H1554     1.0  0.50879  0.19030  0.72501  1.0000
  H   H1555     1.0  0.91473  0.42310  0.72562  1.0000
  H   H1556     1.0  0.91714  0.38619  0.73486  1.0000
  H   H1557     1.0  0.52673  0.06670  0.59601  1.0000
  H   H1558     1.0  0.51435  0.12159  0.65512  1.0000
  C   C910      1.0  0.50956  0.23220  0.64906  1.0000
  C   C911      1.0  0.51825  0.08930  0.62307  1.0000
  H   H1559     1.0  0.99831  0.42192  0.71021  1.0000
  H   H1560     1.0  0.69283  0.01995  0.73550  1.0000
  H   H1561     1.0  0.61811  0.00910  0.73560  1.0000
  H   H1562     1.0  0.60741  0.16537  0.50878  1.0000
  H   H1563     1.0  0.62285  0.04314  0.71987  1.0000
  H   H1564     1.0  0.50860  0.24850  0.67992  1.0000
  N   N66       1.0  0.89531  0.49807  0.57407  1.0000
  C   C912      1.0  0.68402  0.03459  0.74205  1.0000
  H   H1565     1.0  0.65384  0.05291  0.73816  1.0000
  H   H1566     1.0  0.69681  0.04681  0.74518  1.0000
  C   C913      1.0  0.71707  0.27149  0.50767  1.0000
  H   H1567     1.0  0.66690  0.29810  0.51521  1.0000
  H   H1568     1.0  0.51724  0.05289  0.62134  1.0000
  H   H1569     1.0  0.91912  0.49595  0.54664  1.0000
  C   C914      1.0  0.87053  0.49967  0.57604  1.0000
  C   C915      1.0  0.65143  0.00801  0.72056  1.0000
  C   C916      1.0  0.63545  0.00711  0.74072  1.0000
  C   C917      1.0  0.68103  0.29071  0.50578  1.0000
  H   H1570     1.0  0.50510  0.23699  0.72796  1.0000
  C   C918      1.0  0.99726  0.37700  0.65086  1.0000
  H   H1571     1.0  0.99431  0.38202  0.66818  1.0000
  H   H1572     1.0  0.59260  0.19777  0.50485  1.0000
  Fe  Fe129     1.0  0.84776  0.12010  0.98403  1.0000
  S   S257      1.0  0.85712  0.14879  0.96147  1.0000
  Fe  Fe130     1.0  0.83303  0.09248  0.94512  1.0000
  S   S258      1.0  0.84145  0.11915  0.92041  1.0000
  S   S259      1.0  0.81940  0.05849  0.93801  1.0000
  Fe  Fe131     1.0  0.87249  0.12300  0.93943  1.0000
  S   S260      1.0  0.90645  0.11998  0.92233  1.0000
  Fe  Fe132     1.0  0.82519  0.14290  0.94449  1.0000
  S   S261      1.0  0.80137  0.16900  0.92940  1.0000
  S   S262      1.0  0.86492  0.09477  0.96301  1.0000
  S   S263      1.0  0.81497  0.11577  0.96825  1.0000
  Fe  Fe133     1.0  0.74750  0.44836  0.80127  1.0000
  S   S264      1.0  0.71911  0.47195  0.80867  1.0000
  H   H1573     1.0  0.66770  0.37701  0.76953  1.0000
  Fe  Fe134     1.0  0.74124  0.42451  0.84605  1.0000
  S   S265      1.0  0.71311  0.44656  0.85714  1.0000
  S   S266      1.0  0.75335  0.39306  0.86315  1.0000
  Fe  Fe135     1.0  0.70111  0.44278  0.82272  1.0000
  S   S267      1.0  0.66426  0.43885  0.82056  1.0000
  Fe  Fe136     1.0  0.73290  0.47442  0.84265  1.0000
  S   S268      1.0  0.72783  0.41892  0.81263  1.0000
  S   S269      1.0  0.76268  0.45258  0.83431  1.0000
  Fe  Fe137     1.0  0.58997  0.34794  0.77861  1.0000
  S   S270      1.0  0.56999  0.35670  0.80876  1.0000
  N   N67       1.0  0.58528  0.26160  0.93695  1.0000
  H   H1574     1.0  0.57351  0.24027  0.98069  1.0000
  S   S271      1.0  0.53360  0.32108  0.79227  1.0000
  Fe  Fe138     1.0  0.54030  0.35718  0.78731  1.0000
  H   H1575     1.0  0.91217  0.41888  0.75520  1.0000
  Fe  Fe139     1.0  0.56485  0.32030  0.81189  1.0000
  S   S272      1.0  0.56848  0.30646  0.84664  1.0000
  S   S273      1.0  0.58672  0.31128  0.78292  1.0000
  Fe  Fe140     1.0  0.69210  0.31201  0.94494  1.0000
  S   S274      1.0  0.70540  0.28487  0.92354  1.0000
  S   S275      1.0  0.70149  0.34782  0.94356  1.0000
  Fe  Fe141     1.0  0.65790  0.28323  0.96864  1.0000
  S   S276      1.0  0.66838  0.25369  0.94861  1.0000
  Fe  Fe142     1.0  0.70340  0.26305  0.95413  1.0000
  S   S277      1.0  0.72970  0.23864  0.96774  1.0000
  Fe  Fe143     1.0  0.66961  0.27748  0.91958  1.0000
  S   S278      1.0  0.65801  0.26967  0.88554  1.0000
  S   S279      1.0  0.69277  0.29120  0.97620  1.0000
  S   S280      1.0  0.65653  0.30597  0.93892  1.0000
  S   S281      1.0  0.99136  0.18008  0.91595  1.0000
  H   H1576     1.0  0.65914  0.45920  0.89450  1.0000
  H   H1577     1.0  0.79008  0.27698  0.90402  1.0000
  C   C919      1.0  0.59521  0.29939  0.85545  1.0000
  C   C920      1.0  0.60215  0.30668  0.87584  1.0000
  C   C921      1.0  0.62177  0.29830  0.88498  1.0000
  C   C922      1.0  0.63448  0.28240  0.87381  1.0000
  C   C923      1.0  0.62805  0.27588  0.85296  1.0000
  C   C924      1.0  0.60852  0.28438  0.84377  1.0000
  H   H1578     1.0  0.59196  0.31840  0.88487  1.0000
  H   H1579     1.0  0.62677  0.30382  0.90082  1.0000
  H   H1580     1.0  0.63786  0.26370  0.84415  1.0000
  H   H1581     1.0  0.60322  0.27853  0.82811  1.0000
  C   C925      1.0  0.73767  0.38050  0.88463  1.0000
  C   C926      1.0  0.74047  0.35779  0.88890  1.0000
  C   C927      1.0  0.72886  0.34741  0.90644  1.0000
  C   C928      1.0  0.71477  0.35980  0.92016  1.0000
  C   C929      1.0  0.71194  0.38248  0.91586  1.0000
  C   C930      1.0  0.72312  0.39277  0.89798  1.0000
  H   H1582     1.0  0.75172  0.34825  0.87862  1.0000
  H   H1583     1.0  0.73117  0.32995  0.90958  1.0000
  H   H1584     1.0  0.70120  0.39219  0.92652  1.0000
  H   H1585     1.0  0.72104  0.41030  0.89497  1.0000
  C   C931      1.0  0.65346  0.41686  0.80613  1.0000
  C   C932      1.0  0.63109  0.41207  0.80907  1.0000
  C   C933      1.0  0.62196  0.39454  0.79800  1.0000
  C   C934      1.0  0.63511  0.38182  0.78370  1.0000
  C   C935      1.0  0.65745  0.38671  0.78064  1.0000
  C   C936      1.0  0.66663  0.40415  0.79185  1.0000
  H   H1586     1.0  0.62076  0.42190  0.81999  1.0000
  C   C937      1.0  0.61798  0.23581  0.92433  1.0000
  H   H1587     1.0  0.97134  0.13831  0.97323  1.0000
  H   H1588     1.0  0.68383  0.40785  0.78930  1.0000
  C   C938      1.0  0.81225  0.04540  0.91328  1.0000
  C   C939      1.0  0.81290  0.05623  0.89267  1.0000
  C   C940      1.0  0.80501  0.04587  0.87395  1.0000
  C   C941      1.0  0.79704  0.02430  0.87538  1.0000
  C   C942      1.0  0.79727  0.01313  0.89581  1.0000
  C   C943      1.0  0.80464  0.02370  0.91463  1.0000
  H   H1589     1.0  0.81898  0.07279  0.89126  1.0000
  H   H1590     1.0  0.80499  0.05466  0.85824  1.0000
  H   H1591     1.0  0.75653  0.29348  0.92223  1.0000
  H   H1592     1.0  0.67260  0.47310  0.85106  1.0000
  C   C944      1.0  0.92975  0.13716  0.92085  1.0000
  C   C945      1.0  0.92893  0.15889  0.92799  1.0000
  C   C946      1.0  0.94796  0.17175  0.92648  1.0000
  C   C947      1.0  0.96802  0.16302  0.91801  1.0000
  C   C948      1.0  0.96885  0.14127  0.91099  1.0000
  C   C949      1.0  0.94980  0.12848  0.91233  1.0000
  H   H1593     1.0  0.91361  0.16584  0.93446  1.0000
  H   H1594     1.0  0.94712  0.18859  0.93188  1.0000
  H   H1595     1.0  0.98415  0.13431  0.90442  1.0000
  H   H1596     1.0  0.95064  0.11169  0.90676  1.0000
  C   C950      1.0  0.78092  0.18759  0.94055  1.0000
  C   C951      1.0  0.77756  0.19026  0.96324  1.0000
  C   C952      1.0  0.76149  0.20555  0.97116  1.0000
  C   C953      1.0  0.74838  0.21829  0.95662  1.0000
  C   C954      1.0  0.75156  0.21545  0.93392  1.0000
  C   C955      1.0  0.76774  0.20026  0.92600  1.0000
  H   H1597     1.0  0.78751  0.18072  0.97470  1.0000
  H   H1598     1.0  0.75934  0.20764  0.98874  1.0000
  H   H1599     1.0  0.74175  0.22512  0.92246  1.0000
  H   H1600     1.0  0.77013  0.19838  0.90841  1.0000
  H   H1601     1.0  0.95789  0.22191  0.84626  1.0000
  C   C956      1.0  0.92734  0.11099  0.97707  1.0000
  C   C957      1.0  0.86986  0.03092  0.87110  1.0000
  C   C958      1.0  0.99481  0.22680  0.87141  1.0000
  H   H1602     1.0  0.75042  0.26791  0.93558  1.0000
  C   C959      1.0  0.66287  0.48037  0.86495  1.0000
  S   S282      1.0  0.51567  0.38634  0.78566  1.0000
  H   H1603     1.0  0.71055  0.49170  0.89485  1.0000
  H   H1604     1.0  0.65113  0.50104  0.90298  1.0000
  H   H1605     1.0  0.55545  0.24441  0.94573  1.0000
  H   H1606     1.0  0.82198  0.30208  0.96416  1.0000
  H   H1607     1.0  0.87256  0.40289  0.80122  1.0000
  N   N68       1.0  0.98406  0.19726  0.84365  1.0000
  H   H1608     1.0  0.56894  0.26444  0.88172  1.0000
  H   H1609     1.0  0.62379  0.22433  0.93757  1.0000
  H   H1610     1.0  0.94522  0.15306  0.97266  1.0000
  H   H1611     1.0  0.60785  0.30092  0.94484  1.0000
  C   C960      1.0  0.95067  0.13152  0.00296  1.0000
  H   H1612     1.0  0.98349  0.23971  0.86473  1.0000
  H   H1613     1.0  0.94875  0.15878  0.86912  1.0000
  H   H1614     1.0  0.92650  0.12468  0.96486  1.0000
  H   H1615     1.0  0.76575  0.26237  0.89892  1.0000
  C   C961      1.0  0.86749  0.40954  0.78486  1.0000
  H   H1616     1.0  0.76846  0.29717  0.98292  1.0000
  H   H1617     1.0  0.80367  0.27799  0.98857  1.0000
  H   H1618     1.0  0.58253  0.28646  0.91096  1.0000
  H   H1619     1.0  0.80588  0.29454  0.93088  1.0000
  N   N69       1.0  0.77711  0.28500  0.95014  1.0000
  H   H1620     1.0  0.78571  0.31540  0.93248  1.0000
  C   C962      1.0  0.76075  0.29389  0.96705  1.0000
  C   C963      1.0  0.78869  0.26441  0.95895  1.0000
  C   C964      1.0  0.79354  0.30192  0.94255  1.0000
  H   H1621     1.0  0.63399  0.46218  0.88009  1.0000
  C   C965      1.0  0.61920  0.47513  0.83772  1.0000
  C   C966      1.0  0.94556  0.09489  0.96876  1.0000
  H   H1622     1.0  0.75962  0.32913  0.95669  1.0000
  S   S283      1.0  0.78612  0.01252  0.85147  1.0000
  S   S284      1.0  0.76408  0.44595  0.76684  1.0000
  H   H1623     1.0  0.78481  0.25075  0.91791  1.0000
  H   H1624     1.0  0.74818  0.28135  0.97133  1.0000
  H   H1625     1.0  0.98131  0.17760  0.81434  1.0000
  H   H1626     1.0  0.59884  0.22987  0.96820  1.0000
  C   C967      1.0  0.80712  0.31237  0.96047  1.0000
  H   H1627     1.0  0.80401  0.01513  0.93047  1.0000
  H   H1628     1.0  0.84925  0.41053  0.78539  1.0000
  H   H1629     1.0  0.87441  0.00436  0.89507  1.0000
  C   C968      1.0  0.95445  0.16876  0.85457  1.0000
  H   H1630     1.0  0.73745  0.32060  0.97444  1.0000
  H   H1631     1.0  0.98276  0.22087  0.80121  1.0000
  H   H1632     1.0  0.88181  0.03024  0.85711  1.0000
  H   H1633     1.0  0.60466  0.48072  0.84765  1.0000
  H   H1634     1.0  0.61878  0.49361  0.87735  1.0000
  H   H1635     1.0  0.57450  0.21385  0.96848  1.0000
  H   H1636     1.0  0.96182  0.23982  0.81021  1.0000
  H   H1637     1.0  0.61319  0.47199  0.82097  1.0000
  H   H1638     1.0  0.86973  0.37744  0.77034  1.0000
  C   C969      1.0  0.76423  0.27872  0.93037  1.0000
  H   H1639     1.0  0.95448  0.20298  0.82497  1.0000
  H   H1640     1.0  0.59537  0.25489  0.88979  1.0000
  H   H1641     1.0  0.77930  0.26190  0.99412  1.0000
  Fe  Fe144     1.0  0.55627  0.31506  0.76262  1.0000
  H   H1642     1.0  0.91137  0.10261  0.97557  1.0000
  H   H1643     1.0  0.62568  0.45907  0.84396  1.0000
  H   H1644     1.0  0.58893  0.31121  0.96516  1.0000
  H   H1645     1.0  0.81241  0.32889  0.95450  1.0000
  H   H1646     1.0  0.67552  0.48683  0.87580  1.0000
  H   H1647     1.0  0.96020  0.15700  0.84186  1.0000
  H   H1648     1.0  0.85493  0.04050  0.86609  1.0000
  N   N70       1.0  0.66923  0.35344  0.85070  1.0000
  C   C970      1.0  0.64555  0.35835  0.84493  1.0000
  C   C971      1.0  0.67531  0.36936  0.86813  1.0000
  C   C972      1.0  0.67072  0.32997  0.85964  1.0000
  C   C973      1.0  0.68316  0.35622  0.82994  1.0000
  C   C974      1.0  0.63513  0.34207  0.82927  1.0000
  C   C975      1.0  0.67408  0.39403  0.86145  1.0000
  C   C976      1.0  0.68858  0.32433  0.87661  1.0000
  C   C977      1.0  0.70826  0.35492  0.83250  1.0000
  H   H1649     1.0  0.63488  0.35884  0.86015  1.0000
  H   H1650     1.0  0.64371  0.37484  0.83679  1.0000
  H   H1651     1.0  0.69232  0.36618  0.87373  1.0000
  H   H1652     1.0  0.66462  0.36702  0.88318  1.0000
  H   H1653     1.0  0.65509  0.32546  0.86839  1.0000
  H   H1654     1.0  0.67280  0.31809  0.84599  1.0000
  H   H1655     1.0  0.67927  0.34364  0.81772  1.0000
  H   H1656     1.0  0.67931  0.37235  0.82176  1.0000
  H   H1657     1.0  0.61773  0.34729  0.82664  1.0000
  H   H1658     1.0  0.64339  0.34212  0.81279  1.0000
  H   H1659     1.0  0.63482  0.32504  0.83616  1.0000
  H   H1660     1.0  0.67981  0.40379  0.87534  1.0000
  H   H1661     1.0  0.68506  0.39797  0.84709  1.0000
  H   H1662     1.0  0.65705  0.39989  0.85813  1.0000
  H   H1663     1.0  0.68962  0.30620  0.87922  1.0000
  H   H1664     1.0  0.68415  0.33152  0.89285  1.0000
  H   H1665     1.0  0.70511  0.32972  0.87133  1.0000
  H   H1666     1.0  0.71419  0.36740  0.84381  1.0000
  H   H1667     1.0  0.71631  0.35849  0.81620  1.0000
  H   H1668     1.0  0.71397  0.33824  0.83772  1.0000
  C   C978      1.0  0.58086  0.27852  0.95450  1.0000
  C   C979      1.0  0.60985  0.25799  0.93408  1.0000
  C   C980      1.0  0.59021  0.30162  0.94979  1.0000
  C   C981      1.0  0.58071  0.23085  0.96669  1.0000
  H   H1669     1.0  0.56284  0.28076  0.95785  1.0000
  H   H1670     1.0  0.58795  0.27290  0.97043  1.0000
  H   H1671     1.0  0.61708  0.27139  0.92365  1.0000
  H   H1672     1.0  0.61784  0.25898  0.95033  1.0000
  H   H1673     1.0  0.58067  0.31101  0.93722  1.0000
  H   H1674     1.0  0.84709  0.01086  0.88890  1.0000
  H   H1675     1.0  0.94347  0.07817  0.97616  1.0000
  H   H1676     1.0  0.96230  0.10065  0.97188  1.0000
  H   H1677     1.0  0.88994  0.16201  0.99829  1.0000
  H   H1678     1.0  0.63273  0.23878  0.91358  1.0000
  N   N71       1.0  0.75912  0.10605  0.92744  1.0000
  C   C982      1.0  0.76065  0.12933  0.93542  1.0000
  C   C983      1.0  0.78001  0.10104  0.91438  1.0000
  C   C984      1.0  0.75812  0.09092  0.94751  1.0000
  C   C985      1.0  0.73869  0.10449  0.91397  1.0000
  C   C986      1.0  0.74184  0.13753  0.95095  1.0000
  C   C987      1.0  0.78475  0.11657  0.89442  1.0000
  C   C988      1.0  0.75655  0.06612  0.94340  1.0000
  C   C989      1.0  0.73841  0.08588  0.89695  1.0000
  H   H1679     1.0  0.77629  0.13141  0.94418  1.0000
  H   H1680     1.0  0.76108  0.14137  0.92131  1.0000
  H   H1681     1.0  0.78044  0.08414  0.90812  1.0000
  H   H1682     1.0  0.79450  0.10145  0.92520  1.0000
  H   H1683     1.0  0.77281  0.09310  0.95780  1.0000
  H   H1684     1.0  0.74355  0.09497  0.95821  1.0000
  H   H1685     1.0  0.72389  0.10273  0.92502  1.0000
  H   H1686     1.0  0.73599  0.12012  0.90432  1.0000
  H   H1687     1.0  0.74326  0.15559  0.95284  1.0000
  H   H1688     1.0  0.72534  0.13472  0.94437  1.0000
  H   H1689     1.0  0.74318  0.13008  0.96775  1.0000
  H   H1690     1.0  0.79093  0.13256  0.89979  1.0000
  H   H1691     1.0  0.79801  0.10911  0.88388  1.0000
  H   H1692     1.0  0.77019  0.11952  0.88409  1.0000
  H   H1693     1.0  0.75774  0.05702  0.95944  1.0000
  H   H1694     1.0  0.77019  0.05963  0.93283  1.0000
  H   H1695     1.0  0.74042  0.06213  0.93659  1.0000
  H   H1696     1.0  0.72135  0.07989  0.89600  1.0000
  H   H1697     1.0  0.74892  0.07123  0.90062  1.0000
  H   H1698     1.0  0.74261  0.09236  0.88014  1.0000
  H   H1699     1.0  0.55732  0.27409  0.91864  1.0000
  H   H1700     1.0  0.65585  0.44537  0.86931  1.0000
  H   H1701     1.0  0.98514  0.17327  0.87053  1.0000
  C   C990      1.0  0.79441  0.26361  0.98356  1.0000
  C   C991      1.0  0.80627  0.46353  0.76669  1.0000
  H   H1702     1.0  0.57080  0.23970  0.89792  1.0000
  H   H1703     1.0  0.77844  0.24976  0.95683  1.0000
  C   C992      1.0  0.95834  0.14664  0.98344  1.0000
  H   H1704     1.0  0.60621  0.22751  0.91401  1.0000
  H   H1705     1.0  0.85207  0.02316  0.83334  1.0000
  H   H1706     1.0  0.94419  0.09328  0.95064  1.0000
  H   H1707     1.0  0.83871  0.47732  0.76553  1.0000
  H   H1708     1.0  0.80484  0.24867  0.98691  1.0000
  C   C993      1.0  0.74836  0.31539  0.96043  1.0000
  C   C994      1.0  0.57792  0.25619  0.89549  1.0000
  C   C995      1.0  0.63718  0.49255  0.83562  1.0000
  H   H1709     1.0  0.89445  0.39194  0.76971  1.0000
  H   H1710     1.0  0.87422  0.42629  0.78301  1.0000
  H   H1711     1.0  0.80330  0.46683  0.78397  1.0000
  H   H1712     1.0  0.96505  0.19468  0.87451  1.0000
  H   H1713     1.0  0.60470  0.39104  0.80034  1.0000
  H   H1714     1.0  0.73748  0.31313  0.94640  1.0000
  C   C996      1.0  0.00208  0.20987  0.85396  1.0000
  C   C997      1.0  0.65201  0.46102  0.87787  1.0000
  C   C998      1.0  0.86360  0.00820  0.88087  1.0000
  H   H1715     1.0  0.64956  0.48585  0.82353  1.0000
  C   C999      1.0  0.96710  0.21250  0.83333  1.0000
  H   H1716     1.0  0.90486  0.15182  0.97497  1.0000
  H   H1717     1.0  0.93987  0.17832  0.84875  1.0000
  C   C1000     1.0  0.57354  0.24103  0.94436  1.0000
  C   C1001     1.0  0.57526  0.27053  0.91599  1.0000
  S   S285      1.0  0.62426  0.35967  0.76951  1.0000
  H   H1718     1.0  0.62933  0.28367  0.75826  1.0000
  C   C1002     1.0  0.97283  0.18394  0.86179  1.0000
  C   C1003     1.0  0.99364  0.18131  0.82689  1.0000
  C   C1004     1.0  0.97578  0.22920  0.81592  1.0000
  C   C1005     1.0  0.90597  0.15447  0.99288  1.0000
  H   H1719     1.0  0.57525  0.22788  0.93211  1.0000
  S   S286      1.0  0.56103  0.35143  0.75653  1.0000
  H   H1720     1.0  0.87807  0.04033  0.88389  1.0000
  H   H1721     1.0  0.80421  0.26094  0.94936  1.0000
  C   C1006     1.0  0.77731  0.26656  0.91199  1.0000
  H   H1722     1.0  0.79767  0.31557  0.97590  1.0000
  S   S287      1.0  0.62797  0.27995  0.99222  1.0000
  C   C1007     1.0  0.84618  0.00667  0.82972  1.0000
  C   C1008     1.0  0.87660  0.39405  0.76682  1.0000
  H   H1723     1.0  0.67663  0.03042  0.75851  1.0000
  C   C1009     1.0  0.82636  0.46945  0.75615  1.0000
  H   H1724     1.0  0.91869  0.16664  0.99620  1.0000
  H   H1725     1.0  0.99786  0.16507  0.83488  1.0000
  H   H1726     1.0  0.96630  0.16126  0.99007  1.0000
  H   H1727     1.0  0.98802  0.24033  0.82258  1.0000
  N   N72       1.0  0.92975  0.11909  0.00015  1.0000
  H   H1728     1.0  0.98745  0.21896  0.88643  1.0000
  H   H1729     1.0  0.82975  0.00917  0.82233  1.0000
  C   C1010     1.0  0.78996  0.45358  0.75477  1.0000
  N   N73       1.0  0.64812  0.49887  0.85651  1.0000
  H   H1730     1.0  0.69090  0.50122  0.83569  1.0000
  H   H1731     1.0  0.62672  0.31267  0.75423  1.0000
  C   C1011     1.0  0.53330  0.63318  0.13543  1.0000
  S   S288      1.0  0.64087  0.61857  0.01773  1.0000
  H   H1732     1.0  0.59776  0.51037  0.24102  1.0000
  H   H1733     1.0  0.55613  0.64418  0.01518  1.0000
  Fe  Fe145     1.0  0.60165  0.58411  0.17290  1.0000
  S   S289      1.0  0.63872  0.58420  0.16859  1.0000
  S   S290      1.0  0.58475  0.61742  0.18021  1.0000
  Fe  Fe146     1.0  0.60033  0.53407  0.16567  1.0000
  S   S291      1.0  0.63698  0.53088  0.16142  1.0000
  Fe  Fe147     1.0  0.63904  0.55356  0.19022  1.0000
  S   S292      1.0  0.65678  0.54595  0.22274  1.0000
  Fe  Fe148     1.0  0.63384  0.56186  0.13999  1.0000
  S   S293      1.0  0.65397  0.56235  0.10750  1.0000
  S   S294      1.0  0.60218  0.55476  0.19590  1.0000
  S   S295      1.0  0.59687  0.56379  0.14278  1.0000
  Fe  Fe149     1.0  0.93246  0.87447  0.12110  1.0000
  S   S296      1.0  0.95556  0.86941  0.09218  1.0000
  S   S297      1.0  0.91211  0.90661  0.11897  1.0000
  Fe  Fe150     1.0  0.94571  0.82915  0.14166  1.0000
  S   S298      1.0  0.97006  0.82142  0.11388  1.0000
  S   S299      1.0  0.93710  0.80950  0.17361  1.0000
  Fe  Fe151     1.0  0.98031  0.85679  0.11632  1.0000
  Fe  Fe152     1.0  0.94327  0.83483  0.09139  1.0000
  S   S300      1.0  0.93743  0.82367  0.05617  1.0000
  S   S301      1.0  0.95776  0.86373  0.14556  1.0000
  S   S302      1.0  0.91842  0.84057  0.11891  1.0000
  H   H1734     1.0  0.94132  0.94273  0.09927  1.0000
  S   S303      1.0  0.97252  0.72627  0.23076  1.0000
  C   C1012     1.0  0.89375  0.75463  0.18130  1.0000
  C   C1013     1.0  0.94693  0.78592  0.18890  1.0000
  C   C1014     1.0  0.96360  0.77177  0.18082  1.0000
  C   C1015     1.0  0.97119  0.75370  0.19388  1.0000
  C   C1016     1.0  0.96200  0.74922  0.21503  1.0000
  C   C1017     1.0  0.94512  0.76320  0.22300  1.0000
  C   C1018     1.0  0.93772  0.78142  0.21003  1.0000
  H   H1735     1.0  0.97065  0.77473  0.16452  1.0000
  H   H1736     1.0  0.98421  0.74300  0.18750  1.0000
  H   H1737     1.0  0.62451  0.64081  0.21141  1.0000
  H   H1738     1.0  0.92487  0.79226  0.21654  1.0000
  C   C1019     1.0  0.68299  0.55167  0.23372  1.0000
  C   C1020     1.0  0.82750  0.96867  0.23160  1.0000
  C   C1021     1.0  0.69969  0.56184  0.22121  1.0000
  C   C1022     1.0  0.95772  0.94738  0.09226  1.0000
  H   H1739     1.0  0.69716  0.56600  0.20402  1.0000
  C   C1023     1.0  0.52122  0.63400  0.22054  1.0000
  C   C1024     1.0  0.52829  0.61194  0.21810  1.0000
  C   C1025     1.0  0.54774  0.60652  0.20596  1.0000
  C   C1026     1.0  0.56057  0.62319  0.19642  1.0000
  C   C1027     1.0  0.55374  0.64528  0.19924  1.0000
  C   C1028     1.0  0.98824  0.92174  0.14207  1.0000
  H   H1740     1.0  0.51861  0.59890  0.22554  1.0000
  H   H1741     1.0  0.55278  0.58947  0.20399  1.0000
  H   H1742     1.0  0.56359  0.65831  0.19204  1.0000
  C   C1029     1.0  0.63615  0.60213  0.24544  1.0000
  C   C1030     1.0  0.91343  0.81297  0.04457  1.0000
  C   C1031     1.0  0.91137  0.81363  0.02149  1.0000
  C   C1032     1.0  0.89299  0.80467  0.01150  1.0000
  C   C1033     1.0  0.87678  0.79423  0.02444  1.0000
  C   C1034     1.0  0.87885  0.79356  0.04750  1.0000
  C   C1035     1.0  0.89688  0.80310  0.05754  1.0000
  H   H1743     1.0  0.64643  0.50460  0.24201  1.0000
  H   H1744     1.0  0.92726  0.71562  0.22460  1.0000
  H   H1745     1.0  0.86640  0.78561  0.05771  1.0000
  H   H1746     1.0  0.89827  0.80233  0.07528  1.0000
  C   C1036     1.0  0.64476  0.60251  0.04241  1.0000
  C   C1037     1.0  0.63090  0.60659  0.06091  1.0000
  C   C1038     1.0  0.63331  0.59437  0.08084  1.0000
  C   C1039     1.0  0.64977  0.57796  0.08261  1.0000
  C   C1040     1.0  0.66363  0.57389  0.06411  1.0000
  C   C1041     1.0  0.66113  0.58600  0.04412  1.0000
  H   H1747     1.0  0.61832  0.61941  0.05994  1.0000
  H   H1748     1.0  0.62259  0.59779  0.09491  1.0000
  H   H1749     1.0  0.67646  0.56130  0.06529  1.0000
  H   H1750     1.0  0.67196  0.58265  0.03012  1.0000
  C   C1042     1.0  0.91324  0.96824  0.16172  1.0000
  C   C1043     1.0  0.90363  0.96906  0.14104  1.0000
  C   C1044     1.0  0.90310  0.94993  0.12841  1.0000
  C   C1045     1.0  0.91242  0.92986  0.13612  1.0000
  C   C1046     1.0  0.92188  0.92899  0.15690  1.0000
  C   C1047     1.0  0.92207  0.94805  0.16971  1.0000
  H   H1751     1.0  0.89663  0.98444  0.13475  1.0000
  H   H1752     1.0  0.89564  0.95075  0.11241  1.0000
  H   H1753     1.0  0.92894  0.91362  0.16313  1.0000
  H   H1754     1.0  0.92935  0.94721  0.18580  1.0000
  N   N74       1.0  0.65446  0.61687  0.23743  1.0000
  C   C1048     1.0  0.99734  0.95177  0.10145  1.0000
  H   H1755     1.0  0.95773  0.91940  0.12530  1.0000
  H   H1756     1.0  0.87793  0.84955  0.01983  1.0000
  H   H1757     1.0  0.81844  0.97569  0.24606  1.0000
  H   H1758     1.0  0.50550  0.66929  0.13030  1.0000
  H   H1759     1.0  0.97244  0.81987  0.20877  1.0000
  H   H1760     1.0  0.95490  0.96396  0.08476  1.0000
  H   H1761     1.0  0.62522  0.51083  0.21033  1.0000
  H   H1762     1.0  0.86465  0.96113  0.20709  1.0000
  H   H1763     1.0  0.87642  0.75175  0.17745  1.0000
  H   H1764     1.0  0.68290  0.62012  0.18649  1.0000
  H   H1765     1.0  0.98164  0.96754  0.13814  1.0000
  H   H1766     1.0  0.82051  0.95216  0.22948  1.0000
  H   H1767     1.0  0.87511  0.74439  0.21813  1.0000
  C   C1049     1.0  0.64792  0.64086  0.23978  1.0000
  H   H1768     1.0  0.94987  0.93384  0.06071  1.0000
  H   H1769     1.0  0.80924  0.97627  0.20260  1.0000
  H   H1770     1.0  0.65890  0.50506  0.19601  1.0000
  H   H1771     1.0  0.51338  0.61183  0.15550  1.0000
  C   C1050     1.0  0.96319  0.93208  0.07287  1.0000
  H   H1772     1.0  0.91028  0.69236  0.22710  1.0000
  C   C1051     1.0  0.85655  0.96676  0.19179  1.0000
  H   H1773     1.0  0.98198  0.93242  0.15551  1.0000
  H   H1774     1.0  0.96377  0.91454  0.07814  1.0000
  H   H1775     1.0  0.68796  0.62285  0.24721  1.0000
  H   H1776     1.0  0.53864  0.65045  0.13378  1.0000
  C   C1052     1.0  0.79646  0.83664  0.03849  1.0000
  H   H1777     1.0  0.81425  0.87791  0.02923  1.0000
  H   H1778     1.0  0.98196  0.84697  0.20401  1.0000
  H   H1779     1.0  0.86112  0.71784  0.17067  1.0000
  H   H1780     1.0  0.84646  0.70042  0.19024  1.0000
  C   C1053     1.0  0.90679  0.73331  0.18729  1.0000
  H   H1781     1.0  0.84484  0.96677  0.23636  1.0000
  H   H1782     1.0  0.94433  0.68340  0.20725  1.0000
  H   H1783     1.0  0.51401  0.69576  0.15793  1.0000
  H   H1784     1.0  0.64782  0.61510  0.20240  1.0000
  H   H1785     1.0  0.82911  0.94341  0.19149  1.0000
  H   H1786     1.0  0.87870  0.98777  0.22509  1.0000
  H   H1787     1.0  0.94061  0.98380  0.11318  1.0000
  C   C1054     1.0  0.95720  0.98595  0.11992  1.0000
  C   C1055     1.0  0.88126  0.70293  0.19689  1.0000
  H   H1788     1.0  0.54826  0.62308  0.13940  1.0000
  C   C1056     1.0  0.93130  0.69270  0.19826  1.0000
  H   H1789     1.0  0.92219  0.68048  0.18906  1.0000
  H   H1790     1.0  0.52865  0.67101  0.16527  1.0000
  H   H1791     1.0  0.78287  0.82475  0.03822  1.0000
  H   H1792     1.0  0.93806  0.76021  0.23931  1.0000
  H   H1793     1.0  0.85579  0.93184  0.18476  1.0000
  H   H1794     1.0  0.87524  0.85484  0.04838  1.0000
  H   H1795     1.0  0.92342  0.73893  0.19146  1.0000
  H   H1796     1.0  0.84776  0.82841  0.03744  1.0000
  H   H1797     1.0  0.69699  0.61480  0.21150  1.0000
  C   C1057     1.0  0.00057  0.97317  0.08771  1.0000
  H   H1798     1.0  0.89454  0.76686  0.19454  1.0000
  C   C1058     1.0  0.71986  0.56663  0.23095  1.0000
  H   H1799     1.0  0.95496  0.95649  0.13911  1.0000
  H   H1800     1.0  0.92402  0.82132  0.01132  1.0000
  H   H1801     1.0  0.88869  0.69375  0.18281  1.0000
  H   H1802     1.0  0.78871  0.85330  0.03925  1.0000
  H   H1803     1.0  0.90925  0.72396  0.17182  1.0000
  H   H1804     1.0  0.94005  0.70405  0.18665  1.0000
  H   H1805     1.0  0.90158  0.76244  0.16641  1.0000
  C   C1059     1.0  0.82319  0.98370  0.21111  1.0000
  C   C1060     1.0  0.97473  0.92463  0.12093  1.0000
  N   N75       1.0  0.89752  0.71867  0.20563  1.0000
  S   S304      1.0  0.91433  0.99182  0.17828  1.0000
  H   H1806     1.0  0.68145  0.64042  0.20748  1.0000
  S   S305      1.0  0.57586  0.50606  0.16520  1.0000
  C   C1061     1.0  0.61486  0.60294  0.23222  1.0000
  H   H1807     1.0  0.56804  0.66877  0.00524  1.0000
  C   C1062     1.0  0.67413  0.61175  0.25159  1.0000
  H   H1808     1.0  0.98676  0.90450  0.14832  1.0000
  H   H1809     1.0  0.60469  0.65626  0.02103  1.0000
  C   C1063     1.0  0.84494  0.94671  0.18274  1.0000
  H   H1810     1.0  0.96763  0.99495  0.10777  1.0000
  H   H1811     1.0  0.82236  0.98070  0.16674  1.0000
  S   S306      1.0  0.85349  0.78202  0.01289  1.0000
  H   H1812     1.0  0.52745  0.62754  0.11943  1.0000
  H   H1813     1.0  0.68069  0.59479  0.24867  1.0000
  H   H1814     1.0  0.86530  0.87531  0.02925  1.0000
  C   C1064     1.0  0.87672  0.71950  0.24330  1.0000
  C   C1065     1.0  0.91636  0.70510  0.21510  1.0000
  H   H1815     1.0  0.83608  0.85268  0.04907  1.0000
  C   C1066     1.0  0.53410  0.65067  0.21106  1.0000
  C   C1067     1.0  0.82127  0.87273  0.01300  1.0000
  H   H1816     1.0  0.58276  0.65637  0.04110  1.0000
  H   H1817     1.0  0.98336  0.82785  0.16908  1.0000
  C   C1068     1.0  0.96752  0.96372  0.12767  1.0000
  C   C1069     1.0  0.57165  0.65087  0.00790  1.0000
  H   H1818     1.0  0.86269  0.70983  0.23789  1.0000
  H   H1819     1.0  0.87050  0.97046  0.18016  1.0000
  N   N76       1.0  0.82987  0.84931  0.01429  1.0000
  H   H1820     1.0  0.61773  0.59950  0.21455  1.0000
  H   H1821     1.0  0.73265  0.57445  0.22107  1.0000
  H   H1822     1.0  0.90069  0.74271  0.23099  1.0000
  H   H1823     1.0  0.52372  0.63395  0.16984  1.0000
  C   C1070     1.0  0.51600  0.62988  0.15418  1.0000
  C   C1071     1.0  0.84444  0.84624  0.03394  1.0000
  H   H1824     1.0  0.85305  0.72707  0.19791  1.0000
  C   C1072     1.0  0.66107  0.61119  0.21408  1.0000
  H   H1825     1.0  0.84221  0.94880  0.16478  1.0000
  H   H1826     1.0  0.66398  0.59311  0.21275  1.0000
  C   C1073     1.0  0.85945  0.71294  0.18838  1.0000
  H   H1827     1.0  0.87731  0.68957  0.20919  1.0000
  H   H1828     1.0  0.84685  0.99512  0.16012  1.0000
  C   C1074     1.0  0.68181  0.62248  0.20460  1.0000
  H   H1829     1.0  0.83471  0.88457  0.01003  1.0000
  H   H1830     1.0  0.59242  0.63073  0.03032  1.0000
  C   C1075     1.0  0.88777  0.73240  0.22401  1.0000
  H   H1831     1.0  0.52914  0.66772  0.21317  1.0000
  C   C1076     1.0  0.58904  0.64828  0.02590  1.0000
  H   H1832     1.0  0.64582  0.66103  0.20926  1.0000
  N   N77       1.0  0.97442  0.94737  0.11024  1.0000
  H   H1833     1.0  0.60564  0.61875  0.23429  1.0000
  H   H1834     1.0  0.66294  0.65086  0.24110  1.0000
  C   C1077     1.0  0.86691  0.85732  0.03239  1.0000
  C   C1078     1.0  0.81108  0.83364  0.01756  1.0000
  C   C1079     1.0  0.98731  0.82938  0.20416  1.0000
  S   S307      1.0  0.95443  0.66996  0.25218  1.0000
  N   N78       1.0  0.84223  0.98714  0.19501  1.0000
  C   C1080     1.0  0.63470  0.65188  0.22082  1.0000
  H   H1835     1.0  0.80562  0.83281  0.05373  1.0000
  H   H1836     1.0  0.98146  0.91209  0.10935  1.0000
  C   C1081     1.0  0.51194  0.67843  0.16370  1.0000
  H   H1837     1.0  0.60384  0.58989  0.23878  1.0000
  H   H1838     1.0  0.64211  0.58464  0.24602  1.0000
  H   H1839     1.0  0.62320  0.66452  0.22785  1.0000
  H   H1840     1.0  0.98649  0.97783  0.07732  1.0000
  H   H1841     1.0  0.95472  0.99666  0.13442  1.0000
  H   H1842     1.0  0.97878  0.93644  0.06416  1.0000
  H   H1843     1.0  0.99545  0.80399  0.18156  1.0000
  C   C1082     1.0  0.72376  0.56126  0.25327  1.0000
  C   C1083     1.0  0.99591  0.82227  0.18119  1.0000
  H   H1844     1.0  0.58496  0.51287  0.21497  1.0000
  H   H1845     1.0  0.81751  0.81627  0.01803  1.0000
  C   C1084     1.0  0.83323  0.99363  0.17272  1.0000
  H   H1846     1.0  0.88851  0.70850  0.25201  1.0000
  H   H1847     1.0  0.99945  0.82603  0.21719  1.0000
  H   H1848     1.0  0.50365  0.67918  0.18016  1.0000
  H   H1849     1.0  0.81670  0.99986  0.21716  1.0000
  C   C1085     1.0  0.86762  0.00250  0.22441  1.0000
  H   H1850     1.0  0.85541  0.00241  0.23830  1.0000
  S   S308      1.0  0.52159  0.87936  0.40729  1.0000
  Fe  Fe153     1.0  0.64649  0.87240  0.44721  1.0000
  S   S309      1.0  0.64054  0.90448  0.46371  1.0000
  S   S310      1.0  0.62074  0.85173  0.43078  1.0000
  Fe  Fe154     1.0  0.69500  0.87007  0.46049  1.0000
  S   S311      1.0  0.69213  0.90242  0.47842  1.0000
  S   S312      1.0  0.72877  0.85244  0.45570  1.0000
  Fe  Fe155     1.0  0.65981  0.89002  0.49195  1.0000
  Fe  Fe156     1.0  0.67316  0.91523  0.44912  1.0000
  S   S313      1.0  0.67254  0.95168  0.43791  1.0000
  S   S314      1.0  0.66393  0.85678  0.47624  1.0000
  S   S315      1.0  0.67786  0.88385  0.43023  1.0000
  Fe  Fe157     1.0  0.78464  0.53775  0.33811  1.0000
  S   S316      1.0  0.75473  0.55990  0.33193  1.0000
  H   H1851     1.0  0.79477  0.56322  0.43643  1.0000
  Fe  Fe158     1.0  0.81542  0.56985  0.31406  1.0000
  S   S317      1.0  0.78819  0.59397  0.30600  1.0000
  S   S318      1.0  0.85200  0.57531  0.30875  1.0000
  Fe  Fe159     1.0  0.77660  0.58759  0.34087  1.0000
  S   S319      1.0  0.76435  0.61664  0.36098  1.0000
  Fe  Fe160     1.0  0.76826  0.56456  0.29724  1.0000
  H   H1852     1.0  0.64983  0.93761  0.49652  1.0000
  S   S320      1.0  0.80506  0.56529  0.34971  1.0000
  S   S321      1.0  0.79691  0.54060  0.30275  1.0000
  Fe  Fe161     1.0  0.84307  0.72160  0.47549  1.0000
  S   S322      1.0  0.83236  0.75089  0.45420  1.0000
  Fe  Fe162     1.0  0.81995  0.68931  0.44620  1.0000
  S   S323      1.0  0.80680  0.71598  0.42371  1.0000
  S   S324      1.0  0.81710  0.65264  0.44091  1.0000
  Fe  Fe163     1.0  0.84096  0.72928  0.42530  1.0000
  S   S325      1.0  0.85455  0.74116  0.39201  1.0000
  Fe  Fe164     1.0  0.79903  0.73565  0.45411  1.0000
  S   S326      1.0  0.76552  0.75257  0.46237  1.0000
  S   S327      1.0  0.85460  0.70155  0.44641  1.0000
  S   S328      1.0  0.80927  0.70733  0.47672  1.0000
  Fe  Fe165     1.0  0.94576  0.69640  0.30889  1.0000
  S   S329      1.0  0.92702  0.70874  0.27934  1.0000
  S   S330      1.0  0.94222  0.70446  0.34514  1.0000
  Fe  Fe166     1.0  0.97163  0.66100  0.28371  1.0000
  H   H1853     1.0  0.98242  0.68222  0.36092  1.0000
  Fe  Fe167     1.0  0.92337  0.67272  0.27272  1.0000
  H   H1854     1.0  0.61110  0.93167  0.49345  1.0000
  S   S331      1.0  0.97878  0.69617  0.29075  1.0000
  S   S332      1.0  0.93978  0.66076  0.30337  1.0000
  C   C1086     1.0  0.87842  0.72961  0.37916  1.0000
  C   C1087     1.0  0.89468  0.71851  0.39130  1.0000
  C   C1088     1.0  0.91398  0.71051  0.38058  1.0000
  C   C1089     1.0  0.91691  0.71300  0.35761  1.0000
  C   C1090     1.0  0.90019  0.72316  0.34535  1.0000
  C   C1091     1.0  0.88117  0.73172  0.35614  1.0000
  H   H1855     1.0  0.89273  0.71681  0.40902  1.0000
  H   H1856     1.0  0.92688  0.70276  0.39019  1.0000
  H   H1857     1.0  0.90232  0.72527  0.32768  1.0000
  H   H1858     1.0  0.86864  0.74024  0.34665  1.0000
  C   C1092     1.0  0.78028  0.62744  0.38191  1.0000
  C   C1093     1.0  0.77317  0.64695  0.39210  1.0000
  C   C1094     1.0  0.78477  0.65525  0.40973  1.0000
  C   C1095     1.0  0.80326  0.64377  0.41765  1.0000
  C   C1096     1.0  0.81046  0.62433  0.40737  1.0000
  C   C1097     1.0  0.79926  0.61643  0.38929  1.0000
  H   H1859     1.0  0.75850  0.65557  0.38647  1.0000
  H   H1860     1.0  0.77903  0.67020  0.41761  1.0000
  H   H1861     1.0  0.82479  0.61541  0.41337  1.0000
  H   H1862     1.0  0.80507  0.60162  0.38132  1.0000
  C   C1098     1.0  0.86221  0.59923  0.29532  1.0000
  C   C1099     1.0  0.88460  0.60392  0.29699  1.0000
  C   C1100     1.0  0.89336  0.62283  0.28665  1.0000
  C   C1101     1.0  0.87982  0.63721  0.27443  1.0000
  C   C1102     1.0  0.85746  0.63246  0.27260  1.0000
  C   C1103     1.0  0.84866  0.61356  0.28304  1.0000
  H   H1863     1.0  0.89522  0.59279  0.30626  1.0000
  H   H1864     1.0  0.91066  0.62610  0.28789  1.0000
  H   H1865     1.0  0.83144  0.60998  0.28146  1.0000
  C   C1104     1.0  0.73874  0.82458  0.45799  1.0000
  C   C1105     1.0  0.75916  0.81879  0.44795  1.0000
  C   C1106     1.0  0.76761  0.79690  0.44900  1.0000
  C   C1107     1.0  0.75575  0.78047  0.46024  1.0000
  C   C1108     1.0  0.73540  0.78630  0.47039  1.0000
  C   C1109     1.0  0.72703  0.80820  0.46943  1.0000
  H   H1866     1.0  0.76844  0.83129  0.43908  1.0000
  H   H1867     1.0  0.78318  0.79273  0.44094  1.0000
  H   H1868     1.0  0.72613  0.77381  0.47926  1.0000
  H   H1869     1.0  0.71165  0.81244  0.47779  1.0000
  H   H1870     1.0  0.67412  0.53845  0.26595  1.0000
  H   H1871     1.0  0.78066  0.80302  0.49276  1.0000
  C   C1110     1.0  0.95485  0.60813  0.33614  1.0000
  C   C1111     1.0  0.80627  0.53989  0.41232  1.0000
  C   C1112     1.0  0.50636  0.81493  0.45653  1.0000
  C   C1113     1.0  0.54906  0.87110  0.41368  1.0000
  C   C1114     1.0  0.55714  0.84955  0.41094  1.0000
  C   C1115     1.0  0.57907  0.84391  0.41632  1.0000
  C   C1116     1.0  0.59311  0.85963  0.42469  1.0000
  C   C1117     1.0  0.58490  0.88107  0.42772  1.0000
  C   C1118     1.0  0.56306  0.88676  0.42216  1.0000
  H   H1872     1.0  0.54661  0.83731  0.40443  1.0000
  H   H1873     1.0  0.58523  0.82727  0.41387  1.0000
  H   H1874     1.0  0.59548  0.89337  0.43406  1.0000
  H   H1875     1.0  0.55702  0.90347  0.42432  1.0000
  C   C1119     1.0  0.68905  0.96556  0.41744  1.0000
  C   C1120     1.0  0.68265  0.98694  0.41021  1.0000
  H   H1876     1.0  0.70972  0.54680  0.28291  1.0000
  C   C1121     1.0  0.93047  0.63885  0.37430  1.0000
  H   H1877     1.0  0.96120  0.59671  0.32329  1.0000
  C   C1122     1.0  0.70867  0.95631  0.40889  1.0000
  C   C1123     1.0  0.62425  0.00061  0.49490  1.0000
  H   H1878     1.0  0.68363  0.94824  0.48551  1.0000
  C   C1124     1.0  0.99274  0.64746  0.36621  1.0000
  H   H1879     1.0  0.71391  0.93997  0.41431  1.0000
  H   H1880     1.0  0.60327  0.95833  0.50279  1.0000
  N   N79       1.0  0.84490  0.66577  0.35464  1.0000
  C   C1125     1.0  0.84472  0.64104  0.35309  1.0000
  C   C1126     1.0  0.86128  0.67164  0.37162  1.0000
  C   C1127     1.0  0.85165  0.67652  0.33293  1.0000
  C   C1128     1.0  0.82203  0.67390  0.36091  1.0000
  C   C1129     1.0  0.82987  0.63199  0.33537  1.0000
  C   C1130     1.0  0.85553  0.66493  0.39571  1.0000
  C   C1131     1.0  0.87373  0.66829  0.32268  1.0000
  C   C1132     1.0  0.81956  0.69863  0.36593  1.0000
  H   H1881     1.0  0.86163  0.63405  0.35034  1.0000
  H   H1882     1.0  0.83892  0.63342  0.36893  1.0000
  H   H1883     1.0  0.86399  0.68961  0.37119  1.0000
  H   H1884     1.0  0.87767  0.66396  0.36783  1.0000
  H   H1885     1.0  0.83874  0.67487  0.32045  1.0000
  H   H1886     1.0  0.85339  0.69457  0.33475  1.0000
  H   H1887     1.0  0.81037  0.67090  0.34754  1.0000
  H   H1888     1.0  0.81557  0.66454  0.37552  1.0000
  H   H1889     1.0  0.83407  0.63847  0.31865  1.0000
  H   H1890     1.0  0.83220  0.61381  0.33498  1.0000
  H   H1891     1.0  0.81216  0.63518  0.33924  1.0000
  H   H1892     1.0  0.84018  0.67311  0.40186  1.0000
  H   H1893     1.0  0.85438  0.64687  0.39813  1.0000
  H   H1894     1.0  0.86885  0.67032  0.40639  1.0000
  H   H1895     1.0  0.87362  0.65054  0.31908  1.0000
  H   H1896     1.0  0.88788  0.67186  0.33308  1.0000
  H   H1897     1.0  0.87660  0.67718  0.30670  1.0000
  H   H1898     1.0  0.82927  0.70313  0.38023  1.0000
  H   H1899     1.0  0.80206  0.70253  0.37026  1.0000
  H   H1900     1.0  0.82421  0.70931  0.35160  1.0000
  N   N80       1.0  0.76647  0.55662  0.41663  1.0000
  S   S333      1.0  0.99496  0.63081  0.28546  1.0000
  C   C1133     1.0  0.76318  0.52138  0.44161  1.0000
  C   C1134     1.0  0.79095  0.55930  0.41913  1.0000
  C   C1135     1.0  0.75643  0.54564  0.43688  1.0000
  H   H1901     1.0  0.52945  0.87662  0.45635  1.0000
  H   H1902     1.0  0.51695  0.84529  0.44135  1.0000
  C   C1136     1.0  0.53114  0.84300  0.48708  1.0000
  S   S334      1.0  0.89029  0.66138  0.26168  1.0000
  H   H1903     1.0  0.68649  0.61231  0.28484  1.0000
  H   H1904     1.0  0.55885  0.85797  0.46815  1.0000
  H   H1905     1.0  0.94961  0.59732  0.35007  1.0000
  H   H1906     1.0  0.98928  0.61524  0.33841  1.0000
  H   H1907     1.0  0.79682  0.57353  0.40889  1.0000
  H   H1908     1.0  0.91733  0.65188  0.37356  1.0000
  H   H1909     1.0  0.76079  0.55455  0.45189  1.0000
  H   H1910     1.0  0.82571  0.51096  0.36960  1.0000
  C   C1137     1.0  0.50566  0.84044  0.45525  1.0000
  H   H1911     1.0  0.50375  0.90596  0.45322  1.0000
  H   H1912     1.0  0.72893  0.55637  0.38667  1.0000
  H   H1913     1.0  0.97250  0.62463  0.39877  1.0000
  H   H1914     1.0  0.51851  0.80840  0.44418  1.0000
  H   H1915     1.0  0.89003  0.69330  0.49404  1.0000
  H   H1916     1.0  0.95772  0.60658  0.38276  1.0000
  H   H1917     1.0  0.98813  0.66794  0.33565  1.0000
  H   H1918     1.0  0.76117  0.58701  0.39802  1.0000
  H   H1919     1.0  0.56541  0.83258  0.48185  1.0000
  H   H1920     1.0  0.82361  0.76127  0.50121  1.0000
  C   C1138     1.0  0.75596  0.57929  0.41406  1.0000
  H   H1921     1.0  0.92546  0.62551  0.36363  1.0000
  H   H1922     1.0  0.79873  0.76784  0.48811  1.0000
  C   C1139     1.0  0.72174  0.96835  0.39351  1.0000
  H   H1923     1.0  0.77860  0.59877  0.43365  1.0000
  N   N81       1.0  0.97235  0.63394  0.36421  1.0000
  H   H1924     1.0  0.78167  0.00194  0.40575  1.0000
  C   C1140     1.0  0.97268  0.61663  0.38242  1.0000
  C   C1141     1.0  0.95246  0.64916  0.36688  1.0000
  C   C1142     1.0  0.76213  0.54441  0.39591  1.0000
  C   C1143     1.0  0.73777  0.54073  0.39095  1.0000
  C   C1144     1.0  0.71528  0.98964  0.38615  1.0000
  H   H1925     1.0  0.82329  0.54311  0.41738  1.0000
  C   C1145     1.0  0.97326  0.62389  0.34172  1.0000
  H   H1926     1.0  0.52854  0.82633  0.49413  1.0000
  H   H1927     1.0  0.77023  0.52793  0.39595  1.0000
  H   H1928     1.0  0.73700  0.96107  0.38723  1.0000
  H   H1929     1.0  0.63838  0.95860  0.47954  1.0000
  H   H1930     1.0  0.83542  0.81491  0.46946  1.0000
  Fe  Fe168     1.0  0.95931  0.70550  0.26032  1.0000
  H   H1931     1.0  0.77869  0.52017  0.45088  1.0000
  H   H1932     1.0  0.73707  0.53026  0.37622  1.0000
  H   H1933     1.0  0.75362  0.59074  0.44842  1.0000
  H   H1934     1.0  0.81506  0.79440  0.46795  1.0000
  H   H1935     1.0  0.94038  0.61734  0.32947  1.0000
  H   H1936     1.0  0.80694  0.53846  0.39412  1.0000
  C   C1146     1.0  0.51626  0.87604  0.46936  1.0000
  H   H1937     1.0  0.71833  0.78524  0.40530  1.0000
  N   N82       1.0  0.67873  0.81317  0.40685  1.0000
  C   C1147     1.0  0.66515  0.83004  0.39412  1.0000
  C   C1148     1.0  0.69783  0.82491  0.41622  1.0000
  C   C1149     1.0  0.66426  0.80364  0.42524  1.0000
  C   C1150     1.0  0.68634  0.79553  0.39115  1.0000
  C   C1151     1.0  0.64344  0.82184  0.38488  1.0000
  C   C1152     1.0  0.71311  0.83692  0.39944  1.0000
  C   C1153     1.0  0.67543  0.79629  0.44685  1.0000
  C   C1154     1.0  0.70274  0.77804  0.40016  1.0000
  H   H1938     1.0  0.66088  0.84442  0.40461  1.0000
  H   H1939     1.0  0.67458  0.83680  0.37965  1.0000
  H   H1940     1.0  0.70858  0.81348  0.42581  1.0000
  H   H1941     1.0  0.69168  0.83731  0.42826  1.0000
  H   H1942     1.0  0.65147  0.81593  0.43068  1.0000
  H   H1943     1.0  0.65491  0.78946  0.41943  1.0000
  H   H1944     1.0  0.67210  0.78630  0.38536  1.0000
  H   H1945     1.0  0.69402  0.80299  0.37599  1.0000
  H   H1946     1.0  0.64645  0.80974  0.37170  1.0000
  H   H1947     1.0  0.63231  0.81484  0.39785  1.0000
  H   H1948     1.0  0.63435  0.83612  0.37738  1.0000
  H   H1949     1.0  0.71973  0.82594  0.38644  1.0000
  H   H1950     1.0  0.70491  0.85172  0.39202  1.0000
  H   H1951     1.0  0.72751  0.84296  0.40822  1.0000
  H   H1952     1.0  0.66354  0.78697  0.45742  1.0000
  H   H1953     1.0  0.67989  0.81089  0.45626  1.0000
  H   H1954     1.0  0.69022  0.78563  0.44437  1.0000
  H   H1955     1.0  0.70723  0.76639  0.38686  1.0000
  H   H1956     1.0  0.69535  0.76813  0.41384  1.0000
  H   H1957     1.0  0.84688  0.64343  0.26311  1.0000
  C   C1155     1.0  0.81994  0.80882  0.47730  1.0000
  H   H1958     1.0  0.75302  0.61202  0.42766  1.0000
  H   H1959     1.0  0.80156  0.52393  0.41993  1.0000
  H   H1960     1.0  0.63825  0.64334  0.25540  1.0000
  H   H1961     1.0  0.73812  0.54697  0.43704  1.0000
  C   C1156     1.0  0.99242  0.60015  0.38172  1.0000
  H   H1962     1.0  0.99533  0.65163  0.38372  1.0000
  S   S335      1.0  0.74963  0.56796  0.26450  1.0000
  H   H1963     1.0  0.66524  0.98489  0.48281  1.0000
  H   H1964     1.0  0.76952  0.55320  0.38133  1.0000
  H   H1965     1.0  0.66043  0.59984  0.28357  1.0000
  C   C1157     1.0  0.76079  0.59583  0.43217  1.0000
  N   N83       1.0  0.51108  0.85249  0.47579  1.0000
  H   H1966     1.0  0.97294  0.63694  0.32865  1.0000
  H   H1967     1.0  0.66749  0.99427  0.41664  1.0000
  H   H1968     1.0  0.52280  0.88488  0.48358  1.0000
  C   C1158     1.0  0.55233  0.84150  0.47253  1.0000
  H   H1969     1.0  0.73773  0.57844  0.41359  1.0000
  H   H1970     1.0  0.93092  0.63285  0.39171  1.0000
  C   C1159     1.0  0.70704  0.55105  0.26576  1.0000
  H   H1971     1.0  0.63083  0.60605  0.26260  1.0000
  H   H1972     1.0  0.66256  0.62965  0.28125  1.0000
  H   H1973     1.0  0.94942  0.65849  0.35123  1.0000
  H   H1974     1.0  0.80737  0.82226  0.47540  1.0000
  H   H1975     1.0  0.95544  0.66183  0.37939  1.0000
  H   H1976     1.0  0.72910  0.53186  0.40462  1.0000
  H   H1977     1.0  0.54993  0.83228  0.45728  1.0000
  H   H1978     1.0  0.99076  0.58820  0.39577  1.0000
  C   C1160     1.0  0.68685  0.54628  0.25604  1.0000
  C   C1161     1.0  0.63915  0.95273  0.49705  1.0000
  C   C1162     1.0  0.99310  0.66951  0.35294  1.0000
  H   H1979     1.0  0.70224  0.97016  0.48709  1.0000
  H   H1980     1.0  0.75306  0.00222  0.41172  1.0000
  C   C1163     1.0  0.68851  0.96180  0.49604  1.0000
  C   C1164     1.0  0.66933  0.97849  0.49960  1.0000
  H   H1981     1.0  0.51029  0.80740  0.47268  1.0000
  S   S336      1.0  0.77973  0.50511  0.35733  1.0000
  H   H1982     1.0  0.76486  0.51129  0.42673  1.0000
  C   C1165     1.0  0.67030  0.61364  0.27671  1.0000
  H   H1983     1.0  0.84011  0.79411  0.50220  1.0000
  H   H1984     1.0  0.53491  0.85294  0.50167  1.0000
  C   C1166     1.0  0.82392  0.80310  0.50185  1.0000
  H   H1985     1.0  0.74995  0.51340  0.45167  1.0000
  C   C1167     1.0  0.69553  0.99883  0.39452  1.0000
  H   H1986     1.0  0.61637  0.98943  0.48349  1.0000
  H   H1987     1.0  0.99288  0.59043  0.36646  1.0000
  H   H1988     1.0  0.87009  0.73132  0.25562  1.0000
  H   H1989     1.0  0.76011  0.77586  0.51400  1.0000
  H   H1990     1.0  0.86357  0.51030  0.56263  1.0000
  Fe  Fe169     1.0  0.95441  0.68651  0.64050  1.0000
  S   S337      1.0  0.97659  0.68701  0.60979  1.0000
  S   S338      1.0  0.95044  0.71875  0.66003  1.0000
  Fe  Fe170     1.0  0.93867  0.63937  0.63079  1.0000
  S   S339      1.0  0.96033  0.63731  0.60056  1.0000
  S   S340      1.0  0.91298  0.61273  0.63743  1.0000
  Fe  Fe171     1.0  0.98652  0.65248  0.62029  1.0000
  Fe  Fe172     1.0  0.94832  0.67187  0.59247  1.0000
  S   S341      1.0  0.93815  0.67591  0.55639  1.0000
  S   S342      1.0  0.96551  0.65233  0.65168  1.0000
  S   S343      1.0  0.92565  0.67356  0.62214  1.0000
  Fe  Fe173     1.0  0.62335  0.98661  0.65926  1.0000
  S   S344      1.0  0.65687  0.97078  0.66412  1.0000
  Fe  Fe174     1.0  0.60015  0.94306  0.67061  1.0000
  S   S345      1.0  0.63217  0.92442  0.67592  1.0000
  S   S346      1.0  0.56593  0.92797  0.66967  1.0000
  Fe  Fe175     1.0  0.64243  0.95427  0.69429  1.0000
  S   S347      1.0  0.65871  0.95138  0.72809  1.0000
  Fe  Fe176     1.0  0.64448  0.94237  0.64520  1.0000
  S   S348      1.0  0.66880  0.92740  0.62005  1.0000
  S   S349      1.0  0.60936  0.97198  0.69097  1.0000
  S   S350      1.0  0.61202  0.95912  0.63846  1.0000
  C   C1168     1.0  0.72134  0.88272  0.72272  1.0000
  C   C1169     1.0  0.97062  0.88599  0.73184  1.0000
  S   S351      1.0  0.64179  0.89622  0.52485  1.0000
  C   C1170     1.0  0.96184  0.93344  0.74500  1.0000
  C   C1171     1.0  0.66116  0.91903  0.59351  1.0000
  C   C1172     1.0  0.67761  0.91260  0.57805  1.0000
  C   C1173     1.0  0.67210  0.90555  0.55693  1.0000
  C   C1174     1.0  0.65001  0.90466  0.55116  1.0000
  C   C1175     1.0  0.63361  0.91112  0.56662  1.0000
  C   C1176     1.0  0.63912  0.91840  0.58760  1.0000
  H   H1991     1.0  0.69471  0.91301  0.58246  1.0000
  H   H1992     1.0  0.68490  0.90063  0.54521  1.0000
  H   H1993     1.0  0.61647  0.91048  0.56237  1.0000
  H   H1994     1.0  0.62627  0.92321  0.59932  1.0000
  C   C1177     1.0  0.68613  0.95334  0.73768  1.0000
  H   H1995     1.0  0.70259  0.89621  0.64069  1.0000
  H   H1996     1.0  0.66459  0.94321  0.53029  1.0000
  H   H1997     1.0  0.72186  0.87369  0.63963  1.0000
  H   H1998     1.0  0.67041  0.96251  0.56443  1.0000
  C   C1178     1.0  0.91570  0.69037  0.54379  1.0000
  C   C1179     1.0  0.90239  0.70576  0.55504  1.0000
  C   C1180     1.0  0.88491  0.71685  0.54419  1.0000
  C   C1181     1.0  0.88024  0.71245  0.52212  1.0000
  H   H1999     1.0  0.81204  0.80692  0.54411  1.0000
  C   C1182     1.0  0.91103  0.68600  0.52174  1.0000
  H   H2000     1.0  0.90580  0.70939  0.57196  1.0000
  H   H2001     1.0  0.87496  0.72895  0.55294  1.0000
  C   C1183     1.0  0.70384  0.95910  0.72371  1.0000
  H   H2002     1.0  0.88007  0.54332  0.56883  1.0000
  C   C1184     1.0  0.95416  0.73087  0.68640  1.0000
  C   C1185     1.0  0.94925  0.75349  0.68893  1.0000
  C   C1186     1.0  0.95225  0.76397  0.70921  1.0000
  C   C1187     1.0  0.96043  0.75203  0.72739  1.0000
  C   C1188     1.0  0.96550  0.72943  0.72480  1.0000
  C   C1189     1.0  0.96227  0.71890  0.70460  1.0000
  H   H2003     1.0  0.94296  0.76303  0.67509  1.0000
  H   H2004     1.0  0.94826  0.78132  0.71076  1.0000
  H   H2005     1.0  0.97170  0.71991  0.73869  1.0000
  H   H2006     1.0  0.96578  0.70148  0.70325  1.0000
  C   C1190     1.0  0.52614  0.87933  0.71409  1.0000
  C   C1191     1.0  0.51824  0.88696  0.69379  1.0000
  C   C1192     1.0  0.53071  0.90170  0.68047  1.0000
  C   C1193     1.0  0.55131  0.90892  0.68711  1.0000
  C   C1194     1.0  0.55933  0.90110  0.70732  1.0000
  C   C1195     1.0  0.54679  0.88646  0.72072  1.0000
  H   H2007     1.0  0.72708  0.91319  0.70559  1.0000
  H   H2008     1.0  0.52430  0.90762  0.66490  1.0000
  H   H2009     1.0  0.57507  0.90652  0.71274  1.0000
  H   H2010     1.0  0.73890  0.96419  0.72099  1.0000
  C   C1196     1.0  0.92623  0.53767  0.64317  1.0000
  C   C1197     1.0  0.94384  0.55222  0.64131  1.0000
  C   C1198     1.0  0.94007  0.57516  0.63916  1.0000
  C   C1199     1.0  0.91858  0.58386  0.63886  1.0000
  C   C1200     1.0  0.90092  0.56926  0.64028  1.0000
  C   C1201     1.0  0.90470  0.54628  0.64230  1.0000
  H   H2011     1.0  0.96057  0.54576  0.64179  1.0000
  H   H2012     1.0  0.95383  0.58614  0.63804  1.0000
  H   H2013     1.0  0.88422  0.57580  0.64003  1.0000
  H   H2014     1.0  0.89101  0.53526  0.64327  1.0000
  C   C1202     1.0  0.88510  0.54657  0.73404  1.0000
  H   H2015     1.0  0.90315  0.52269  0.59784  1.0000
  H   H2016     1.0  0.71871  0.92761  0.65360  1.0000
  H   H2017     1.0  0.54222  0.79713  0.71713  1.0000
  H   H2018     1.0  0.54969  0.82476  0.72128  1.0000
  H   H2019     1.0  0.73245  0.89574  0.67046  1.0000
  H   H2020     1.0  0.83511  0.77739  0.56221  1.0000
  H   H2021     1.0  0.78586  0.75408  0.53326  1.0000
  H   H2022     1.0  0.83928  0.66797  0.54329  1.0000
  H   H2023     1.0  0.89754  0.52178  0.68414  1.0000
  H   H2024     1.0  0.68404  0.97697  0.54234  1.0000
  H   H2025     1.0  0.92391  0.51813  0.57762  1.0000
  H   H2026     1.0  0.69489  0.86923  0.65085  1.0000
  H   H2027     1.0  0.87851  0.57380  0.68831  1.0000
  C   C1203     1.0  0.90883  0.55895  0.70256  1.0000
  N   N84       1.0  0.64912  0.96965  0.51133  1.0000
  H   H2028     1.0  0.61893  0.98304  0.52607  1.0000
  S   S352      1.0  0.85804  0.72702  0.50925  1.0000
  H   H2029     1.0  0.84810  0.78771  0.53758  1.0000
  H   H2030     1.0  0.91247  0.51018  0.73195  1.0000
  H   H2031     1.0  0.84845  0.62750  0.55378  1.0000
  C   C1204     1.0  0.71713  0.88618  0.67279  1.0000
  C   C1205     1.0  0.70835  0.88122  0.64980  1.0000
  C   C1206     1.0  0.54760  0.80852  0.72984  1.0000
  H   H2032     1.0  0.93036  0.50825  0.69439  1.0000
  H   H2033     1.0  0.97503  0.96598  0.75027  1.0000
  C   C1207     1.0  0.89332  0.69681  0.51102  1.0000
  H   H2034     1.0  0.80755  0.73600  0.52342  1.0000
  C   C1208     1.0  0.72533  0.95984  0.73198  1.0000
  N   N85       1.0  0.87674  0.63494  0.57302  1.0000
  C   C1209     1.0  0.89335  0.63114  0.55446  1.0000
  C   C1210     1.0  0.87413  0.61332  0.58546  1.0000
  C   C1211     1.0  0.88522  0.65227  0.58790  1.0000
  C   C1212     1.0  0.91598  0.62163  0.56126  1.0000
  C   C1213     1.0  0.85772  0.61323  0.60519  1.0000
  C   C1214     1.0  0.86796  0.66675  0.60033  1.0000
  H   H2035     1.0  0.88676  0.61997  0.54204  1.0000
  H   H2036     1.0  0.89685  0.64684  0.54537  1.0000
  H   H2037     1.0  0.86924  0.60028  0.57408  1.0000
  H   H2038     1.0  0.89001  0.60751  0.59256  1.0000
  H   H2039     1.0  0.89611  0.64452  0.60052  1.0000
  H   H2040     1.0  0.89592  0.66401  0.57858  1.0000
  H   H2041     1.0  0.92235  0.63026  0.57550  1.0000
  H   H2042     1.0  0.91538  0.60370  0.56507  1.0000
  H   H2043     1.0  0.92805  0.62391  0.54736  1.0000
  H   H2044     1.0  0.86303  0.65604  0.52988  1.0000
  H   H2045     1.0  0.85590  0.59600  0.61137  1.0000
  H   H2046     1.0  0.86423  0.62240  0.61912  1.0000
  H   H2047     1.0  0.85943  0.67854  0.58904  1.0000
  H   H2048     1.0  0.87653  0.67684  0.61232  1.0000
  H   H2049     1.0  0.85561  0.65715  0.60982  1.0000
  H   H2050     1.0  0.90229  0.53852  0.54887  1.0000
  H   H2051     1.0  0.85563  0.54445  0.70244  1.0000
  H   H2052     1.0  0.93761  0.89817  0.73541  1.0000
  H   H2053     1.0  0.99621  0.70255  0.65263  1.0000
  C   C1215     1.0  0.91831  0.52575  0.72401  1.0000
  H   H2054     1.0  0.72262  0.87000  0.67992  1.0000
  H   H2055     1.0  0.94932  0.50869  0.71615  1.0000
  H   H2056     1.0  0.84257  0.50848  0.59727  1.0000
  H   H2057     1.0  0.70825  0.87110  0.72759  1.0000
  H   H2058     1.0  0.70101  0.96287  0.70654  1.0000
  H   H2059     1.0  0.51485  0.73744  0.75374  1.0000
  C   C1216     1.0  0.89306  0.57855  0.69740  1.0000
  H   H2060     1.0  0.67576  0.99278  0.50835  1.0000
  C   C1217     1.0  0.65480  0.95864  0.53305  1.0000
  H   H2061     1.0  0.86579  0.52517  0.60146  1.0000
  C   C1218     1.0  0.69246  0.91894  0.67809  1.0000
  H   H2062     1.0  0.74962  0.80288  0.51843  1.0000
  H   H2063     1.0  0.55307  0.88077  0.73641  1.0000
  C   C1219     1.0  0.71262  0.90273  0.70918  1.0000
  C   C1220     1.0  0.80640  0.76724  0.50449  1.0000
  H   H2064     1.0  0.66979  0.88039  0.72739  1.0000
  H   H2065     1.0  0.66538  0.90747  0.71491  1.0000
  H   H2066     1.0  0.94520  0.53300  0.69962  1.0000
  H   H2067     1.0  0.79889  0.78187  0.54853  1.0000
  H   H2068     1.0  0.90654  0.55446  0.57269  1.0000
  C   C1221     1.0  0.71002  0.93456  0.66821  1.0000
  H   H2069     1.0  0.88793  0.58742  0.71253  1.0000
  H   H2070     1.0  0.68268  0.92859  0.69037  1.0000
  H   H2071     1.0  0.70177  0.91261  0.72039  1.0000
  S   S353      1.0  0.93210  0.50900  0.64672  1.0000
  N   N86       1.0  0.80631  0.78998  0.51392  1.0000
  H   H2072     1.0  0.72215  0.93923  0.68045  1.0000
  H   H2073     1.0  0.86611  0.54125  0.67469  1.0000
  H   H2074     1.0  0.98978  0.67921  0.68030  1.0000
  H   H2075     1.0  0.83513  0.76122  0.53806  1.0000
  H   H2076     1.0  0.70171  0.95001  0.66236  1.0000
  H   H2077     1.0  0.68802  0.86571  0.69691  1.0000
  H   H2078     1.0  0.99742  0.72598  0.66855  1.0000
  C   C1222     1.0  0.66597  0.88964  0.71191  1.0000
  H   H2079     1.0  0.88514  0.50806  0.70655  1.0000
  H   H2080     1.0  0.64897  0.88509  0.70789  1.0000
  H   H2081     1.0  0.67181  0.88138  0.67795  1.0000
  C   C1223     1.0  0.86081  0.50820  0.59804  1.0000
  H   H2082     1.0  0.91653  0.55404  0.68655  1.0000
  H   H2083     1.0  0.65831  0.98755  0.55410  1.0000
  H   H2084     1.0  0.73499  0.87391  0.71393  1.0000
  C   C1224     1.0  0.85516  0.64156  0.56273  1.0000
  H   H2085     1.0  0.84109  0.61948  0.60090  1.0000
  H   H2086     1.0  0.68075  0.91580  0.66482  1.0000
  H   H2087     1.0  0.53684  0.76829  0.73979  1.0000
  C   C1225     1.0  0.68191  0.88272  0.69290  1.0000
  N   N87       1.0  0.70105  0.89763  0.68826  1.0000
  C   C1226     1.0  0.85615  0.66122  0.54614  1.0000
  H   H2088     1.0  0.84232  0.64572  0.57536  1.0000
  H   H2089     1.0  0.92122  0.67420  0.51283  1.0000
  H   H2090     1.0  0.86615  0.67471  0.55210  1.0000
  H   H2091     1.0  0.76512  0.78979  0.53968  1.0000
  H   H2092     1.0  0.92641  0.53485  0.73719  1.0000
  H   H2093     1.0  0.56387  0.80320  0.73611  1.0000
  H   H2094     1.0  0.85367  0.51888  0.68993  1.0000
  H   H2095     1.0  0.87195  0.55846  0.72908  1.0000
  C   C1227     1.0  0.76400  0.79169  0.52157  1.0000
  H   H2096     1.0  0.91718  0.93929  0.75000  1.0000
  C   C1228     1.0  0.88733  0.52487  0.69926  1.0000
  H   H2097     1.0  0.63968  0.95342  0.54224  1.0000
  H   H2098     1.0  0.78534  0.81920  0.51611  1.0000
  C   C1229     1.0  0.83380  0.77832  0.54399  1.0000
  C   C1230     1.0  0.93665  0.51874  0.70734  1.0000
  C   C1231     1.0  0.81170  0.78977  0.53804  1.0000
  H   H2099     1.0  0.92237  0.56590  0.71209  1.0000
  H   H2100     1.0  0.64472  0.99734  0.70783  1.0000
  N   N88       1.0  0.89932  0.53922  0.71470  1.0000
  H   H2101     1.0  0.72818  0.88873  0.73823  1.0000
  C   C1232     1.0  0.86460  0.53318  0.69123  1.0000
  H   H2102     1.0  0.90195  0.59066  0.68666  1.0000
  H   H2103     1.0  0.97900  0.93126  0.73840  1.0000
  C   C1233     1.0  0.66761  0.97251  0.54912  1.0000
  C   C1234     1.0  0.90569  0.51934  0.57996  1.0000
  C   C1235     1.0  0.89797  0.53991  0.56666  1.0000
  H   H2104     1.0  0.51408  0.81487  0.74043  1.0000
  H   H2105     1.0  0.82643  0.81901  0.51009  1.0000
  C   C1236     1.0  0.79515  0.74878  0.51841  1.0000
  S   S354      1.0  0.51086  0.86117  0.73191  1.0000
  H   H2106     1.0  0.61556  0.93807  0.52136  1.0000
  H   H2107     1.0  0.50819  0.77477  0.74181  1.0000
  H   H2108     1.0  0.86247  0.51864  0.73694  1.0000
  H   H2109     1.0  0.96437  0.87298  0.72124  1.0000
  C   C1237     1.0  0.95145  0.89464  0.74669  1.0000
  C   C1238     1.0  0.78454  0.80190  0.51053  1.0000
  H   H2110     1.0  0.95126  0.93348  0.73026  1.0000
  H   H2111     1.0  0.89243  0.50392  0.53885  1.0000
  H   H2112     1.0  0.98390  0.87803  0.74160  1.0000
  H   H2113     1.0  0.69510  0.95496  0.51168  1.0000
  H   H2114     1.0  0.97745  0.89894  0.72068  1.0000
  H   H2115     1.0  0.66674  0.99928  0.72558  1.0000
  C   C1239     1.0  0.53003  0.81117  0.74846  1.0000
  H   H2116     1.0  0.99768  0.74113  0.63308  1.0000
  H   H2117     1.0  0.63693  0.99063  0.74898  1.0000
  C   C1240     1.0  0.52320  0.77191  0.75179  1.0000
  H   H2118     1.0  0.89504  0.55584  0.74572  1.0000
  C   C1241     1.0  0.87345  0.52805  0.74733  1.0000
  H   H2119     1.0  0.94617  0.96638  0.74645  1.0000
  C   C1242     1.0  0.63320  0.98854  0.51562  1.0000
  H   H2120     1.0  0.78331  0.74032  0.50804  1.0000
  H   H2121     1.0  0.64103  0.00138  0.52529  1.0000
  H   H2122     1.0  0.69159  0.00083  0.69906  1.0000
  C   C1243     1.0  0.61597  0.94505  0.50433  1.0000
  S   S355      1.0  0.96508  0.76431  0.75348  1.0000
  H   H2123     1.0  0.90817  0.91120  0.75290  1.0000
  H   H2124     1.0  0.83286  0.87671  0.83721  1.0000
  S   S356      1.0  0.52147  0.63475  0.89861  1.0000
  Fe  Fe177     1.0  0.65839  0.61736  0.98382  1.0000
  S   S357      1.0  0.66278  0.64996  0.96564  1.0000
  Fe  Fe178     1.0  0.67300  0.59126  0.94283  1.0000
  S   S358      1.0  0.67784  0.62192  0.92195  1.0000
  S   S359      1.0  0.67687  0.55521  0.93272  1.0000
  Fe  Fe179     1.0  0.69430  0.63553  0.95153  1.0000
  S   S360      1.0  0.72749  0.65191  0.94410  1.0000
  Fe  Fe180     1.0  0.64595  0.63435  0.93755  1.0000
  S   S361      1.0  0.62085  0.65683  0.92010  1.0000
  S   S362      1.0  0.69132  0.60386  0.97172  1.0000
  S   S363      1.0  0.63979  0.60279  0.95632  1.0000
  Fe  Fe181     1.0  0.78504  0.97672  0.83988  1.0000
  S   S364      1.0  0.75502  0.95758  0.83106  1.0000
  Fe  Fe182     1.0  0.81690  0.94166  0.82043  1.0000
  S   S365      1.0  0.78982  0.92038  0.80953  1.0000
  S   S366      1.0  0.85356  0.93369  0.82200  1.0000
  Fe  Fe183     1.0  0.77204  0.95166  0.79824  1.0000
  H   H2125     1.0  0.60284  0.64016  0.96087  1.0000
  Fe  Fe184     1.0  0.77454  0.92741  0.84279  1.0000
  S   S367      1.0  0.76154  0.89726  0.86113  1.0000
  S   S368      1.0  0.80106  0.97245  0.80629  1.0000
  S   S369      1.0  0.80254  0.94698  0.85437  1.0000
  Fe  Fe185     1.0  0.94744  0.81724  0.81628  1.0000
  S   S370      1.0  0.92636  0.80627  0.78898  1.0000
  S   S371      1.0  0.93774  0.81723  0.85269  1.0000
  Fe  Fe186     1.0  0.98033  0.84060  0.78474  1.0000
  Fe  Fe187     1.0  0.93082  0.84068  0.77556  1.0000
  H   H2126     1.0  0.62098  0.52041  0.86644  1.0000
  H   H2127     1.0  0.82431  0.97204  0.88617  1.0000
  S   S372      1.0  0.95025  0.85213  0.80358  1.0000
  S   S373      1.0  0.97928  0.80620  0.79940  1.0000
  Fe  Fe188     1.0  0.79923  0.76512  0.95325  1.0000
  S   S374      1.0  0.80473  0.79467  0.97428  1.0000
  S   S375      1.0  0.76655  0.74735  0.96015  1.0000
  Fe  Fe189     1.0  0.84345  0.77172  0.92917  1.0000
  S   S376      1.0  0.85224  0.80082  0.94873  1.0000
  S   S377      1.0  0.86595  0.75865  0.90191  1.0000
  Fe  Fe190     1.0  0.83945  0.78188  0.97819  1.0000
  Fe  Fe191     1.0  0.81720  0.81179  0.94338  1.0000
  S   S378      1.0  0.81538  0.84874  0.93725  1.0000
  S   S379      1.0  0.83329  0.75120  0.95913  1.0000
  S   S380      1.0  0.80904  0.78370  0.92183  1.0000
  C   C1244     1.0  0.91579  0.80201  0.86436  1.0000
  C   C1245     1.0  0.90961  0.78203  0.85572  1.0000
  C   C1246     1.0  0.89386  0.76910  0.86708  1.0000
  C   C1247     1.0  0.88372  0.77637  0.88674  1.0000
  C   C1248     1.0  0.88905  0.79694  0.89468  1.0000
  C   C1249     1.0  0.90532  0.80947  0.88378  1.0000
  H   H2128     1.0  0.91766  0.77608  0.84083  1.0000
  H   H2129     1.0  0.88983  0.75323  0.86079  1.0000
  H   H2130     1.0  0.88130  0.80280  0.90969  1.0000
  H   H2131     1.0  0.91007  0.82490  0.89056  1.0000
  C   C1250     1.0  0.86532  0.91192  0.80660  1.0000
  C   C1251     1.0  0.88470  0.90143  0.81392  1.0000
  C   C1252     1.0  0.89517  0.88479  0.80148  1.0000
  C   C1253     1.0  0.88692  0.87920  0.78111  1.0000
  H   H2132     1.0  0.88520  0.51662  0.75568  1.0000
  C   C1254     1.0  0.85636  0.90554  0.78682  1.0000
  H   H2133     1.0  0.89166  0.90618  0.82927  1.0000
  H   H2134     1.0  0.91002  0.87684  0.80736  1.0000
  C   C1255     1.0  0.90977  0.72649  0.93092  1.0000
  H   H2135     1.0  0.82278  0.83433  0.81381  1.0000
  C   C1256     1.0  0.77761  0.88341  0.88127  1.0000
  C   C1257     1.0  0.79456  0.89395  0.89168  1.0000
  C   C1258     1.0  0.80604  0.88305  0.90873  1.0000
  C   C1259     1.0  0.80106  0.86136  0.91517  1.0000
  C   C1260     1.0  0.78459  0.85053  0.90433  1.0000
  C   C1261     1.0  0.77277  0.86163  0.88759  1.0000
  H   H2136     1.0  0.79827  0.91076  0.88716  1.0000
  H   H2137     1.0  0.81869  0.89155  0.91709  1.0000
  H   H2138     1.0  0.78053  0.83386  0.90925  1.0000
  H   H2139     1.0  0.75963  0.85341  0.87967  1.0000
  H   H2140     1.0  0.85297  0.86772  0.81824  1.0000
  H   H2141     1.0  0.82181  0.85993  0.79938  1.0000
  C   C1262     1.0  0.83818  0.82623  0.88361  1.0000
  C   C1263     1.0  0.77611  0.53543  0.95245  1.0000
  C   C1264     1.0  0.91679  0.79827  0.94768  1.0000
  C   C1265     1.0  0.73880  0.67791  0.95025  1.0000
  C   C1266     1.0  0.72767  0.69328  0.96355  1.0000
  C   C1267     1.0  0.73659  0.71423  0.96658  1.0000
  C   C1268     1.0  0.75698  0.72005  0.95679  1.0000
  C   C1269     1.0  0.76846  0.70441  0.94406  1.0000
  C   C1270     1.0  0.75939  0.68354  0.94079  1.0000
  H   H2142     1.0  0.71212  0.68913  0.97144  1.0000
  H   H2143     1.0  0.72763  0.72607  0.97662  1.0000
  H   H2144     1.0  0.78412  0.70855  0.93640  1.0000
  H   H2145     1.0  0.76829  0.67182  0.93058  1.0000
  C   C1271     1.0  0.54884  0.64148  0.90504  1.0000
  C   C1272     1.0  0.56425  0.62426  0.90903  1.0000
  C   C1273     1.0  0.58625  0.62866  0.91389  1.0000
  C   C1274     1.0  0.59316  0.65041  0.91467  1.0000
  C   C1275     1.0  0.57776  0.66764  0.91074  1.0000
  C   C1276     1.0  0.55569  0.66323  0.90609  1.0000
  H   H2146     1.0  0.55916  0.60737  0.90820  1.0000
  H   H2147     1.0  0.59796  0.61524  0.91660  1.0000
  H   H2148     1.0  0.58293  0.68452  0.91119  1.0000
  H   H2149     1.0  0.54406  0.67665  0.90299  1.0000
  C   C1277     1.0  0.71783  0.52181  0.87715  1.0000
  C   C1278     1.0  0.69022  0.94866  0.76006  1.0000
  C   C1279     1.0  0.69568  0.51994  0.91112  1.0000
  C   C1280     1.0  0.69289  0.54299  0.91111  1.0000
  C   C1281     1.0  0.70272  0.55545  0.89404  1.0000
  C   C1282     1.0  0.71509  0.54489  0.87716  1.0000
  C   C1283     1.0  0.53404  0.57942  0.85141  1.0000
  C   C1284     1.0  0.50904  0.81908  0.79209  1.0000
  H   H2150     1.0  0.70070  0.57319  0.89376  1.0000
  H   H2151     1.0  0.72264  0.55466  0.86402  1.0000
  N   N89       1.0  0.75449  0.57191  0.94257  1.0000
  C   C1285     1.0  0.75183  0.59509  0.95101  1.0000
  C   C1286     1.0  0.73316  0.56057  0.94806  1.0000
  C   C1287     1.0  0.75756  0.57361  0.91784  1.0000
  H   H2152     1.0  0.64843  0.52958  0.89384  1.0000
  H   H2153     1.0  0.69014  0.53021  0.83124  1.0000
  H   H2154     1.0  0.73680  0.60340  0.94424  1.0000
  H   H2155     1.0  0.74933  0.59495  0.96921  1.0000
  H   H2156     1.0  0.73171  0.54487  0.93943  1.0000
  H   H2157     1.0  0.71905  0.57075  0.94187  1.0000
  H   H2158     1.0  0.74285  0.58188  0.91038  1.0000
  H   H2159     1.0  0.77178  0.58399  0.91312  1.0000
  H   H2160     1.0  0.77460  0.56529  0.97097  1.0000
  H   H2161     1.0  0.91979  0.98473  0.85296  1.0000
  H   H2162     1.0  0.83800  0.95082  0.90167  1.0000
  H   H2163     1.0  0.93786  0.93190  0.78641  1.0000
  H   H2164     1.0  0.54898  0.57492  0.84142  1.0000
  C   C1288     1.0  0.57879  0.60105  0.96994  1.0000
  H   H2165     1.0  0.79096  0.99665  0.89728  1.0000
  H   H2166     1.0  0.72466  0.72457  0.89016  1.0000
  N   N90       1.0  0.68412  0.70238  0.90600  1.0000
  C   C1289     1.0  0.66781  0.68496  0.90090  1.0000
  C   C1290     1.0  0.68401  0.70417  0.93075  1.0000
  C   C1291     1.0  0.70658  0.69433  0.89810  1.0000
  C   C1292     1.0  0.67742  0.72361  0.89429  1.0000
  C   C1293     1.0  0.66697  0.67800  0.87666  1.0000
  C   C1294     1.0  0.66162  0.71047  0.94171  1.0000
  C   C1295     1.0  0.72586  0.70981  0.90121  1.0000
  C   C1296     1.0  0.68578  0.74527  0.90372  1.0000
  H   H2167     1.0  0.67089  0.66970  0.91102  1.0000
  H   H2168     1.0  0.65076  0.69059  0.90537  1.0000
  H   H2169     1.0  0.69602  0.71610  0.93630  1.0000
  H   H2170     1.0  0.68943  0.68817  0.93845  1.0000
  H   H2171     1.0  0.71089  0.67822  0.90629  1.0000
  H   H2172     1.0  0.70683  0.69128  0.88013  1.0000
  H   H2173     1.0  0.68269  0.72317  0.87658  1.0000
  H   H2174     1.0  0.65912  0.72543  0.89436  1.0000
  H   H2175     1.0  0.65213  0.66796  0.87469  1.0000
  H   H2176     1.0  0.90771  0.77175  0.92763  1.0000
  C   C1297     1.0  0.63098  0.50636  0.87332  1.0000
  H   H2177     1.0  0.65020  0.69649  0.94189  1.0000
  H   H2178     1.0  0.66421  0.71448  0.95921  1.0000
  H   H2179     1.0  0.65370  0.72505  0.93365  1.0000
  H   H2180     1.0  0.74148  0.70101  0.89658  1.0000
  H   H2181     1.0  0.72753  0.71476  0.91847  1.0000
  H   H2182     1.0  0.67670  0.94421  0.77109  1.0000
  H   H2183     1.0  0.69002  0.75677  0.88982  1.0000
  H   H2184     1.0  0.70060  0.74366  0.91382  1.0000
  H   H2185     1.0  0.67246  0.75382  0.91333  1.0000
  H   H2186     1.0  0.91073  0.73727  0.91592  1.0000
  H   H2187     1.0  0.90151  0.93042  0.77374  1.0000
  C   C1298     1.0  0.51424  0.56749  0.84242  1.0000
  C   C1299     1.0  0.66221  0.51851  0.85095  1.0000
  C   C1300     1.0  0.89366  0.75700  0.96665  1.0000
  C   C1301     1.0  0.93167  0.76143  0.97790  1.0000
  H   H2188     1.0  0.94117  0.73523  0.94242  1.0000
  H   H2189     1.0  0.77164  0.61642  0.92860  1.0000
  S   S381      1.0  0.73437  0.50942  0.85604  1.0000
  H   H2190     1.0  0.84143  0.97886  0.90874  1.0000
  H   H2191     1.0  0.62598  0.51626  0.90739  1.0000
  H   H2192     1.0  0.92463  0.72186  0.96277  1.0000
  H   H2193     1.0  0.61308  0.64184  0.98750  1.0000
  H   H2194     1.0  0.90696  0.96869  0.87425  1.0000
  H   H2195     1.0  0.67146  0.52344  0.86553  1.0000
  H   H2196     1.0  0.88923  0.77266  0.97488  1.0000
  H   H2197     1.0  0.88238  0.75639  0.95253  1.0000
  N   N91       1.0  0.91736  0.75686  0.95868  1.0000
  H   H2198     1.0  0.96434  0.74931  0.96604  1.0000
  H   H2199     1.0  0.78724  0.60357  0.95088  1.0000
  C   C1302     1.0  0.84210  0.84248  0.99340  1.0000
  H   H2200     1.0  0.95924  0.77838  0.96042  1.0000
  H   H2201     1.0  0.92543  0.77616  0.98691  1.0000
  H   H2202     1.0  0.76837  0.62583  0.95592  1.0000
  C   C1303     1.0  0.95632  0.76459  0.97231  1.0000
  C   C1304     1.0  0.84379  0.99146  0.85031  1.0000
  H   H2203     1.0  0.61840  0.67611  0.96747  1.0000
  H   H2204     1.0  0.51394  0.57108  0.82437  1.0000
  H   H2205     1.0  0.84998  0.83464  0.89395  1.0000
  C   C1305     1.0  0.77415  0.56090  0.95325  1.0000
  H   H2206     1.0  0.53424  0.82649  0.75697  1.0000
  H   H2207     1.0  0.78964  0.56739  0.94571  1.0000
  H   H2208     1.0  0.56650  0.60940  0.00239  1.0000
  H   H2209     1.0  0.80497  0.85609  0.82414  1.0000
  H   H2210     1.0  0.81820  0.83117  0.85532  1.0000
  H   H2211     1.0  0.84575  0.81390  0.83319  1.0000
  C   C1306     1.0  0.83116  0.84044  0.86349  1.0000
  C   C1307     1.0  0.82128  0.85227  0.81621  1.0000
  H   H2212     1.0  0.85367  0.89164  0.86130  1.0000
  H   H2213     1.0  0.77705  0.52829  0.96944  1.0000
  C   C1308     1.0  0.83997  0.86148  0.82977  1.0000
  H   H2214     1.0  0.84925  0.87411  0.88558  1.0000
  N   N92       1.0  0.84938  0.84624  0.84726  1.0000
  C   C1309     1.0  0.86079  0.87818  0.87173  1.0000
  C   C1310     1.0  0.85888  0.82531  0.83756  1.0000
  C   C1311     1.0  0.72947  0.95505  0.75438  1.0000
  C   C1312     1.0  0.86768  0.85779  0.85826  1.0000
  H   H2215     1.0  0.88873  0.83824  0.82064  1.0000
  C   C1313     1.0  0.53637  0.63832  0.97664  1.0000
  H   H2216     1.0  0.93620  0.77251  0.93195  1.0000
  H   H2217     1.0  0.84143  0.91355  0.78102  1.0000
  H   H2218     1.0  0.82243  0.85552  0.86958  1.0000
  C   C1314     1.0  0.87428  0.82824  0.81715  1.0000
  H   H2219     1.0  0.87569  0.88482  0.87913  1.0000
  H   H2220     1.0  0.87687  0.84626  0.86940  1.0000
  H   H2221     1.0  0.82341  0.82300  0.89419  1.0000
  H   H2222     1.0  0.88016  0.86346  0.84580  1.0000
  H   H2223     1.0  0.68133  0.66729  0.87206  1.0000
  H   H2224     1.0  0.86867  0.81582  0.84999  1.0000
  H   H2225     1.0  0.86553  0.83542  0.80276  1.0000
  H   H2226     1.0  0.88078  0.81178  0.81223  1.0000
  C   C1315     1.0  0.57947  0.61534  0.99057  1.0000
  C   C1316     1.0  0.50808  0.79737  0.77952  1.0000
  H   H2227     1.0  0.59102  0.60613  0.95714  1.0000
  H   H2228     1.0  0.65181  0.53316  0.84625  1.0000
  H   H2229     1.0  0.85962  0.95373  0.86819  1.0000
  S   S382      1.0  0.75709  0.95592  0.76372  1.0000
  H   H2230     1.0  0.52758  0.63429  0.96145  1.0000
  H   H2231     1.0  0.90736  0.99850  0.87592  1.0000
  C   C1317     1.0  0.63995  0.51364  0.89550  1.0000
  H   H2232     1.0  0.85373  0.82850  0.99690  1.0000
  N   N93       1.0  0.95605  0.91443  0.76034  1.0000
  C   C1318     1.0  0.93565  0.91884  0.77439  1.0000
  H   H2233     1.0  0.53390  0.76606  0.80255  1.0000
  C   C1319     1.0  0.86730  0.88943  0.77399  1.0000
  C   C1320     1.0  0.52023  0.75025  0.76506  1.0000
  H   H2234     1.0  0.99526  0.91767  0.80179  1.0000
  H   H2235     1.0  0.74088  0.54417  0.98004  1.0000
  C   C1321     1.0  0.91989  0.77414  0.94062  1.0000
  H   H2236     1.0  0.80496  0.86614  0.98160  1.0000
  S   S383      1.0  0.90158  0.86103  0.76336  1.0000
  H   H2237     1.0  0.58280  0.58367  0.97469  1.0000
  H   H2238     1.0  0.84501  0.80992  0.87876  1.0000
  C   C1322     1.0  0.67970  0.51545  0.83233  1.0000
  C   C1323     1.0  0.54891  0.78935  0.77712  1.0000
  H   H2239     1.0  0.55584  0.80581  0.78008  1.0000
  C   C1324     1.0  0.71169  0.94951  0.76837  1.0000
  H   H2240     1.0  0.82897  0.99729  0.85956  1.0000
  H   H2241     1.0  0.83953  0.97516  0.84384  1.0000
  C   C1325     1.0  0.88736  0.73843  0.98328  1.0000
  H   H2242     1.0  0.92885  0.80305  0.95996  1.0000
  H   H2243     1.0  0.96859  0.92991  0.80345  1.0000
  H   H2244     1.0  0.55835  0.66398  0.96769  1.0000
  C   C1326     1.0  0.85480  0.86043  0.98026  1.0000
  H   H2245     1.0  0.84334  0.87223  0.97194  1.0000
  H   H2246     1.0  0.51356  0.58860  0.89134  1.0000
  C   C1327     1.0  0.92412  0.73480  0.94949  1.0000
  Fe  Fe192     1.0  0.95819  0.79772  0.77045  1.0000
  H   H2247     1.0  0.54689  0.78981  0.81337  1.0000
  H   H2248     1.0  0.59027  0.67943  0.96077  1.0000
  H   H2249     1.0  0.89991  0.80173  0.95412  1.0000
  H   H2250     1.0  0.87444  0.96506  0.88989  1.0000
  H   H2251     1.0  0.56423  0.63989  0.95349  1.0000
  C   C1328     1.0  0.55983  0.64583  0.97024  1.0000
  H   H2252     1.0  0.79166  0.53042  0.94370  1.0000
  H   H2253     1.0  0.80533  0.89427  0.98844  1.0000
  H   H2254     1.0  0.59522  0.61090  0.99879  1.0000
  H   H2255     1.0  0.98914  0.93983  0.78328  1.0000
  H   H2256     1.0  0.53213  0.59760  0.85015  1.0000
  N   N94       1.0  0.86315  0.98918  0.86536  1.0000
  H   H2257     1.0  0.51834  0.54960  0.84406  1.0000
  H   H2258     1.0  0.66565  0.69229  0.86506  1.0000
  H   H2259     1.0  0.68833  0.51014  0.92436  1.0000
  C   C1329     1.0  0.60142  0.67275  0.97360  1.0000
  H   H2260     1.0  0.86611  0.86968  0.99030  1.0000
  H   H2261     1.0  0.97133  0.89271  0.78455  1.0000
  H   H2262     1.0  0.89229  0.72465  0.93612  1.0000
  H   H2263     1.0  0.88643  0.00004  0.83966  1.0000
  H   H2264     1.0  0.76183  0.55551  0.88755  1.0000
  S   S384      1.0  0.96102  0.83165  0.75494  1.0000
  C   C1330     1.0  0.54754  0.77759  0.80003  1.0000
  H   H2265     1.0  0.53737  0.57416  0.86860  1.0000
  H   H2266     1.0  0.56156  0.78040  0.76694  1.0000
  H   H2267     1.0  0.91930  0.80924  0.93296  1.0000
  H   H2268     1.0  0.83071  0.83576  0.98132  1.0000
  H   H2269     1.0  0.89143  0.80590  0.99385  1.0000
  C   C1331     1.0  0.98196  0.92518  0.79164  1.0000
  H   H2270     1.0  0.71451  0.94577  0.78561  1.0000
  H   H2271     1.0  0.53600  0.74419  0.77202  1.0000
  H   H2272     1.0  0.76256  0.52735  0.94430  1.0000
  H   H2273     1.0  0.77868  0.54500  0.90898  1.0000
  H   H2274     1.0  0.53611  0.62325  0.98721  1.0000
  C   C1332     1.0  0.83976  0.96776  0.89465  1.0000
  H   H2275     1.0  0.93106  0.74770  0.99031  1.0000
  H   H2276     1.0  0.88323  0.97137  0.84152  1.0000
  H   H2277     1.0  0.95728  0.95772  0.77246  1.0000
  H   H2278     1.0  0.50598  0.83356  0.78095  1.0000
  C   C1333     1.0  0.59924  0.64765  0.97709  1.0000
  H   H2279     1.0  0.56220  0.60136  0.96274  1.0000
  H   H2280     1.0  0.91599  0.70995  0.92598  1.0000
  H   H2281     1.0  0.85699  0.99889  0.81694  1.0000
  H   H2282     1.0  0.52697  0.65157  0.98530  1.0000
  H   H2283     1.0  0.67223  0.51387  0.81598  1.0000
  H   H2284     1.0  0.72676  0.57052  0.98265  1.0000
  C   C1334     1.0  0.72837  0.55549  0.97274  1.0000
  H   H2285     1.0  0.96479  0.76863  0.98766  1.0000
  C   C1335     1.0  0.86024  0.96828  0.87903  1.0000
  H   H2286     1.0  0.88864  0.72196  0.97584  1.0000
  H   H2287     1.0  0.56297  0.76778  0.80255  1.0000
  N   N95       1.0  0.57748  0.63992  0.98646  1.0000
  H   H2288     1.0  0.99015  0.90446  0.76495  1.0000
  C   C1336     1.0  0.80349  0.87742  0.99566  1.0000
  H   H2289     1.0  0.74950  0.53938  0.90899  1.0000
  C   C1337     1.0  0.77110  0.61073  0.94611  1.0000
  C   C1338     1.0  0.70815  0.50940  0.89433  1.0000
  C   C1339     1.0  0.76206  0.55195  0.90559  1.0000
  H   H2290     1.0  0.52491  0.82091  0.80032  1.0000
  C   C1340     1.0  0.97500  0.90812  0.77497  1.0000
  H   H2291     1.0  0.86992  0.74093  0.98871  1.0000
  H   H2292     1.0  0.86481  0.85245  0.96697  1.0000
  N   N96       1.0  0.52776  0.79212  0.76474  1.0000
  H   H2293     1.0  0.71230  0.54717  0.97439  1.0000
  H   H2294     1.0  0.86286  0.53552  0.76050  1.0000
  H   H2295     1.0  0.86074  0.88517  0.75829  1.0000
  H   H2296     1.0  0.93192  0.90404  0.78485  1.0000
  H   H2297     1.0  0.59896  0.68185  0.98909  1.0000
  H   H2298     1.0  0.89711  0.73860  0.99842  1.0000
  H   H2299     1.0  0.50486  0.78417  0.79195  1.0000
  H   H2300     1.0  0.62953  0.50736  0.82744  1.0000
  C   C1341     1.0  0.90555  0.98448  0.86481  1.0000
  H   H2301     1.0  0.50732  0.75144  0.77817  1.0000
  C   C1342     1.0  0.88411  0.98633  0.85178  1.0000
  H   H2302     1.0  0.94606  0.88056  0.75748  1.0000
  C   C1343     1.0  0.91467  0.92531  0.76173  1.0000
  H   H2303     1.0  0.79992  0.83451  0.00330  1.0000
  H   H2304     1.0  0.78672  0.87599  0.00318  1.0000
  C   C1344     1.0  0.95977  0.95690  0.75444  1.0000
