data_image0
_chemical_formula_structural       H3CHCHCHFeSHC2H6C2HFeS2FeS2FeCFeS4C3H2C6H2CHC6H4CH3CHCHSH2C4HCH2FeHC6H7C3HCH7CH5FeH3CH2CNC3HCH4CH2CH2C2H7NC5NC2H7CHC4HC2NCH2S2NH2CHCFeH4SH3SCH2CH5SHCFeCH6CH5NHCH5NC8H10CSH3SH3C2HC3SH2CH2CHFeH3CH5CH5CHSH2CH7C2HCNH6CSC2SHFeS2H2SH3FeCH3FeCSFeS2H2FeS3FeS2FeS2FeCFeS3FeS2FeS2FeSFeS2CFeSHFeHSCFeSHSCH2CHCHCHSC4H5C2HCH4C6H4C6H4CH4CH2C4H2C2H4C6FeCH2SHCHC6H8C2H4SH2SC2NH2SHFeH2C2H4CH2CH5CHCSH2NH3FeH5CN2CH4C2H6C3H6SHC3HCH3SH2NC3SC3NCHCH13C2HCNC4H2CH2FeHCH4CH2C2SH3CFeSCH3C3H3CH2CH12CH4CHC2HC2HC3H3FeH3C4HCH2CH3CNH3CH2SCFeSHC3H3C5SH3CH2CH5CHFeH6CNHCH4CH2CHSNCHC2HC2HFeS2CHCS2NH2CFeSHCSH2SHSFeSCH2FeS2HSHFeSFeH3SH2CHC7HCSCH11CSHCHSHCHC7H4C2H3C3H2CH4C7H5CNC5H12NC4SC3H4C2H2C3H3CH5CHSCHC2HFeCH3CFeSCH10NC2H3NH4CH3C2H3CFeH2CHC2H7C2HC2SH5CH5NH2C2HFeCH4SCH7FeCH2SC3H6CH6CH2CH5SHC3HCSH2C2HCS2FeS2C2FeSFeHS2H3SHSH3SFeS2FeS2FeHFeS2FeHSFe2S3HNHCS2HCHCSHCH2Fe2C6H4C6H4FeH2NH4CSH3C6H4CH2NC7HC3H2CH2SH2CH6CHCHCH4CH2FeH5CH3FeH4CH3FeHCH4C2FeSH4C2H3CH2SCHC3H4C2N2C3H2CH2CH2CH7C3H3C2H6CHSH4CH3FeCH3CH2CH3CH2CHSHCHC3HCNSH3CNSH2C2HCH6SCHCH5CHFeSFeHSCHS2FeS2FeS2FeSFeS3H4CH3FeSFeS2FeSFeS3FeS2FeS2FeSFeS3C3NHC6H4C10H4C4HSHC2H5C5H4C5H3C6H4C3HCHC3HCH3CH2SCFeC4H12C2H4CHSH4C4H9CSH7CNC4HCFeH2CHSHCH4CH2CHCH3N2C5HC2H3CH8CH6CNC4HCH9CNC2H3FeH11CH6SC3H2C3H5NC7H16NC8H11CH13SFeH6FeCH3CHC2HCHCH4CH2NCH3C2SH4CH5C3H2CHC3NSHSH2CHCHCHCH9C2H4C2HCH4C2H2SH3C3H2CHCHFeHSH2FeSC2SHFeCFeSHSCSCFeS2FeS2FeSFeS2CSFeSFeS2FeCH2CFeS3CHC6H4CSHC3H3FeCHC6H5CHCH3C3HC5H4C6H13CNCHC2HCHNH3CHCFeH2CHC3H3CHCH5CH3NC2HC3HFeCH4C2HCH2CHSHC2H5SCSCH13SNH3SH10CH5C2SH5C2H2CSHNHCH2C2H2SCH2NCHNHC3HCH3CH4CH2CSFeSH3FeCH2CSH7CHC2HSHCHC2H5CHCNH7CSH2SHFeCH6SFe2SH4FeSHCSH2FeS2FeSHFeSFeS3FeS2FeS2FeSFeS3C6H4CHC2H4C4HC6H6C2HSHC5H3C6H3CSHC5H3C6H4SHCH2NHCHCHCHNCH2CH4SCHCH2CH2NC4HC2H8CH3CHSH2C2HCSH2C3H7C2HC2H2CSHCH2C2HCHCHNH3C4H2CH2NC8H20NC7H20C2HCH4FeCH4NCH10CH3C2H2CH2CH2CH3SFeHC3H3CH2SH2CH3CHNHCHSHC2HC2H5CHCNCH2CSCHCHFeS2FeS2FeSFeS3HFeS2FeS2FeS2FeSFeS3CHCH7C3H3C6H4C6H5C4H4C8H4CSHC2H9CH2CH2CH3CH2C4SH5NC8H17CH2NC4HC2H14CH5NHCH2C2HC2H5CHCFeHSHCNC4H3CH6SH3NHSH2SCH2CH4C2H2CHCNH2CHCHCH4CHSCH9CHSH5NH2NH6C3H5CFeH2SC4H2C2H5CH6SHC2HCH2CH2CH3C3H7NH3CFeHCFe2H5SFeSFeSHFeS2Fe2S3H2SCH4SFeS2HNHSFeS2FeSFeSFeS3HFeSHFeSHFeSCSHC2H3C2HCSHSC4HC7H4C2H2C6H3C7H4C6H5FeH3C2SCHCH2SNC4HCHCHCH5CH3C3SCH2SHSH3CH4C2H2CH2CH3SH2CH2C2H6CH2C2HCHSCH4N2C4H2C2H5CH2C2H8CNHSCHCH3CH3FeH2CH7CFeHFeSCH3C2H2C2H3SH5C2H13CH2FeH5NC6H2CH2CH5CH4NC8H14CHCH8SC2H2SHC2NFeHCHCH3C2H2CSC2HC2HCS2H3FeCSH3SH2CH2CSHFeSFeS2FeSHFeSFeS3HSCFeS2Fe2SH4CH3CH3FeH3C3H2C2H4CHSHCNSH2SC5H3C2H3C2HC6H4CHC2HCH3SH13CH5FeNHC6H4SHCNC7H17CHSC4HCHCH3C2H4CH3CH4CH3C2H3C2SH4CHCSH3FeH2CH5CHSH2C2HCH2CHCNC3HCHCH7NCH2CHNFeC4H2CH3C2SCH2CHC2HNCH4CH3CFeHCHSCH2NH2C2HC2HSH3CHCHSCH3C2HC2HFeH6SHC2H3C2H2CH2SH3C2H2CH3CH3C2HCHSFeSHFeS2FeS2FeSFeS3HSCS2FeS2FeSFeH2FeSFeS2CFeS2FeS2FeSFeS3CH4C2HCHFe2H4C4FeH2C7H3C6H4C6H4C6H4C6H9CNC8H23FeH2CH4CHCHNHSC2HCH4C4H5NSH2CHCHCHCHCH4SHCHNC8H21CNH2CHCH2C3H2SCH2SH2CHCHCH2CH3C2HCHNC7H10CH2SH3NHCHCH2CH2CH2C3H2CH2CHC2H2NCH4CH2CH2CH2CHC2H5CHSH2CHSH6C2H3CSFeH3FeH2FeS2FeH2CS2H3SH4SFeSH3FeH2FeS2FeSCS2FeSCFeS2FeSFeS3C6H7C6HSCH2CH6C2H2C6H2SHC6H5CH3CH2CH3CNCHSC4H4SHCNCH6CHCH2C2H4SC2HC2H2FeHCH3CHCHCNCHCH4FeCHCHC2H2C2HCH3CHC2NCFeHC2H4C2HC3NH6CH4C2H6FeCH4SHCH2CH2CH4CH2CNHCH5CH4CH5CH2C2SH3CH3C2H2CHNCSC3H9CH2CH2SFeS2FeSFeSFeS3HFeS2H2C3SHFeSFeS2HFeNCHCFeHCFeS2FeS2FeSFeS3HCH3C2H2C2H2C3H4CHC6H2CH6C4H5C2HCNC4H4C7H5CH3C7HC2H3CH5CH2C2H2SH2CH4SHCHCHCHC2FeSH2FeCH5CHCH2CHC2H2CHS2HFeCH3C3Fe2HC2NH2SCH2CHSH2NHC2H3C2H2NH16CH4CH2CHCH4CH3CHCHNH3C2HFeHSH4C2HSCH7C3NC8H20NCHCNHSNH3C2H3CNH3CH3CSCH2C2SCH3SH2CH3CH3CH3SH5C5H2CH2CH2C3HNHCHNHC4HC2FeS2FeS2FeSFeS3FeHFeS2FeSHS2HCSH3SCSHCFeH2FeS2CH3S2H2FeSHC2H2S2H3CHCSCHCH2FeH2C4H4C6H3C6H4C6H4C6H6FeCH2SFeH2FeSHSH3SH6CH3SH2CH4CH3CHCH4CHCHC3FeNC4H16NCHCNH2CHSHCHC2H2SCHFeH4CH4SHNCHC5H2CFeCH7C2SNHCHCH2CHCH3CHCH6C2HSNCH2FeHCHFeHCH2CHCH5SH4FeHC3HCH2CH2FeH4CHFeHSFeHSHFeHFeCSHS3H2C2SHS3FeHFeS2FeSHFeSFeS3FeSFeS2FeSFeS3C6H5C2HNCHSFeHC6H6CH2C6H3C7H4C6H11NC8H21CH4CNHCH2CNCHC5HC2H2CH8CH6CH2CHNHC3HCHCHCH10C2H3CH2C2HSH4NH5C3H2CHCFeH4C2H2CH3C5HC2H5CHCH2CHC2HSCH2CSHCHCSH3SHFeH3CSH5C2HCH3SH3SH2CH2CH2NC2HSCH5SCSNH2CH3CH3FeH3NH3FeCHC2H3C2H2CHFeCH4CH4CH3CH4CH2CH2C3H2CFeS2CSHCH2SCH2FeCNSNHSCFeS2FeS2Fe2S3FeS2FeSHFeSFeS3NH3NCH2C2HC6H5CH3CH3C6H5CH8CHCH3C6H4C5H5CNC8H20CH2C2FeH2CH3CH7CSCH3C3H2C2HNH2C2HFeH2CH2CHNHCSH4CHC4H6CHC2H3CSHC2H5SHFeHSFeH5CH3CHC2SCHCHNH4CH2CH2SHSHCH5C2H3C3HCHCH2CHCH2C3H2CH5C2HC2HCH2CH2CH4SH3CFeS2FeS2FeSFeS3H2SHCSHCH4FeS2FeS2FeSFeS2CH3CH2SH5CHSC2H3CH2CFeC4SH3C2SH2CH7CH2CHNC8H4C6H4C6H4C6H3CH2C2NH2CH5C3HSHCH3CHC3HC2NC8H17CH2NC5H6CHCHSHNH3NC4HC3H8CHCH9C2H3CH4SH5CHSH2CHNHFeHCHCHCH4SCHCH2CH4FeH3CH2CHC2H3CHC4HCSCH3CH2CHFeS2FeSHFeSFeS5FeHFeSCFeHSFeS2FeHCHS2HCSH5CHC2H4C3HC2H2CH3C2H4C8H6C5H3C5H4C2HNFeCH2CH3CH2C2SHSH5NHC4H7CH4C2NC6HCH5CH4CHSHCH2C3NCH2FeCNH4NCHCH7C2H2CH5CFeH2CH3C2H2SHSCSH7SH4C4HC2HC5H3FeHCH6CH6FeHCHSCHSHCH4C4HC3H2C2H6SH6SH3CH2NHCSCFeHSFeS2FeSHS3HFeSHFeCHFeS2FeHFeHS2HFeS2FeS2FeSFeHS2H5C2FeC4H2C4SH2FeH2C7H4CH2C4H3C6H4C6H4C3H8C2H3CSH2C2HCHSHC2HSH3NC4H14CH2CHCH8CHCHCH2SH2C2H3CH3CH3SH3C2HC4NH3CHCH4C2HCH2CHC5H3CHSH5SHCSH2CNH3FeHCH3NC5HC2H13CH6C3NH2C2H2CH2C2HCNHCH5SH7CSC2HCH2CH5FeCHFeS2HCHCH2SCH2C2S2Fe2SC2HFeSNFeS2FeSFeS3FeS2FeSCFeSFeS3CH2C8H7CH3FeHC2H2CH3C6H4FeH3FeHSC4H2SNCH2SH2CHC6H4C2H2SCSH2C2NC3HC3H2CH4CSC4H4CH5SH5C4H2C2SHCSC4H3FeNC4H14C3HCH3SH2CH3NC8H20NC4HCH8CH2CH2SH2CHCH3SHFeCH2C3H3C4HSH7NC2H3S2H5CHC2H3SHCH3CH2CHC2H7CFeHC2H2CH2CHC2HSC2HC2H5CH2CNHCHFeS2H2CH3CSFeHSCH2FeS3FeS2FeS2FeHFeS3HCH3SH2FeSCSHC2H2C6H4CFeCSH2SC6HCH2C6H6C2H2C2H2C6H7CH2NH9SH2CH5NHC3H7C2HC2HCH2C2H14CH6CHSH6C2H2FeH2C2H4SCH2CH2C2HCHNC6HCSH7C3HSH2CH4NCHCH5SH4C2H5C2H2CH5NCHC2HCHCH3NH2C2HC2SCH2CH3CH4CHSC2H2CH2CSHC2H6SCS2H2C3SCFeSFeHSFe2CSFeSHSFeSHFeSHFeSHSH2SFeS2FeHFeCFeS3NHSFeHSHC6H4C6H5FeHSHC6H4C6H4C6H2CHC6H3CNH8SC4H2CH2SH3CH2CH4CH6CSCH7C2H2SH2CHCH2FeSHCFeH2C3H9NC8H9CH4SH2SHFeHNC8H8CH5CH10CH2C2HCH3NC2H3S2HCHCH2CH5CSCHNCHSHFeNH2FeH6SH2SH2CNH2C2HC2SH3SH3CH3C2H2CH6CH2C2SCHSCH4CH3C2HCH3CHFeS2HCHCFeS2FeS2FeSFeS3HFeSHFeSCFeSFeS3FeS2FeS2FeSFeS3HFe2S2FeS3CHCH2C2HSHCH4CH5C6H4C5NCH3C6H4CHC6H2C4H2SC5H3CNC5H2CHC7H4CH5SHCH7SHCHCFeH6C4H10CHCH3CFeHCHCH3CH6C2HFeH3NC4H9N2H5C3H3C2H2CHCHNC2FeH12CHCHCHCH3CH2C2HC2HSHNC8H20C2H2SFeCHSHC2HCH4CH2CH6SC2NH4CH6CHC4H2CHC2HCHCSH2C3H3CH4CH3SHCH4CHCHSH2CHC2HNH5CHCH2SHCH2CH4CH2CFeHCH6SCHCH10CH3C2NCHCSHSFeS2FeSCFeSFeS3H3CHC2H4C2H3C6H6CH2CH2SH2C5H4CHCHC2FeHCH7CSH6C2FeCNH2CHCH2CH5CH4NC5H4CH5CHCHSFeCH4SNHC2NCHNH5CHS2CHCH5C3H4CHCH2CHCH6CH7CHCHCH5CH3C2HC2H2C2H2CHCH3C2HCNH4C2HSH2C3H2CHC2H2C2HCH2
_chemical_formula_sum              "H4608 C2688 Fe384 S768 N192"
_cell_length_a       69.4831
_cell_length_b       69.2167
_cell_length_c       69.1788
_cell_angle_alpha    78.2737
_cell_angle_beta     78.3355
_cell_angle_gamma    78.3071

_space_group_name_H-M_alt    "P 1"
_space_group_IT_number       1

loop_
  _space_group_symop_operation_xyz
  'x, y, z'

loop_
  _atom_site_type_symbol
  _atom_site_label
  _atom_site_symmetry_multiplicity
  _atom_site_fract_x
  _atom_site_fract_y
  _atom_site_fract_z
  _atom_site_occupancy
  H   H1        1.0  0.15300  0.04776  0.13157  1.0000
  H   H2        1.0  0.13348  0.43127  0.04491  1.0000
  H   H3        1.0  0.02357  0.45389  0.19041  1.0000
  C   C1        1.0  0.09587  0.44708  0.00702  1.0000
  H   H4        1.0  0.20545  0.01610  0.11277  1.0000
  C   C2        1.0  0.99529  0.30293  0.13064  1.0000
  H   H5        1.0  0.05784  0.25752  0.02593  1.0000
  C   C3        1.0  0.02394  0.27678  0.04674  1.0000
  H   H6        1.0  0.01543  0.03727  0.31158  1.0000
  Fe  Fe1       1.0  0.10430  0.24459  0.98486  1.0000
  S   S1        1.0  0.03298  0.20990  0.10127  1.0000
  H   H7        1.0  0.17494  0.20675  0.02186  1.0000
  C   C4        1.0  0.23601  0.99087  0.98519  1.0000
  C   C5        1.0  0.14504  0.43625  0.03316  1.0000
  H   H8        1.0  0.14984  0.03277  0.11479  1.0000
  H   H9        1.0  0.11529  0.30612  0.00877  1.0000
  H   H10       1.0  0.09213  0.46309  0.04013  1.0000
  H   H11       1.0  0.07866  0.45417  0.23881  1.0000
  H   H12       1.0  0.11537  0.46244  0.28320  1.0000
  H   H13       1.0  0.15985  0.01421  0.14892  1.0000
  C   C6        1.0  0.15219  0.45374  0.03358  1.0000
  C   C7        1.0  0.99597  0.32353  0.12548  1.0000
  H   H14       1.0  0.13745  0.43809  0.08713  1.0000
  Fe  Fe2       1.0  0.04532  0.40413  0.14371  1.0000
  S   S2        1.0  0.03445  0.41333  0.17386  1.0000
  S   S3        1.0  0.05349  0.42610  0.11558  1.0000
  Fe  Fe3       1.0  0.03821  0.36099  0.15859  1.0000
  S   S4        1.0  0.02693  0.36673  0.19012  1.0000
  S   S5        1.0  0.04161  0.32940  0.15185  1.0000
  Fe  Fe4       1.0  0.01027  0.39555  0.17594  1.0000
  C   C8        1.0  0.15217  0.42581  0.01706  1.0000
  Fe  Fe5       1.0  0.05198  0.38395  0.18579  1.0000
  S   S6        1.0  0.07030  0.37970  0.21048  1.0000
  S   S7        1.0  0.01948  0.38867  0.14473  1.0000
  S   S8        1.0  0.06504  0.37591  0.15522  1.0000
  S   S9        1.0  0.04609  0.43011  0.28148  1.0000
  C   C9        1.0  0.16107  0.03646  0.12211  1.0000
  C   C10       1.0  0.99971  0.21055  0.99081  1.0000
  C   C11       1.0  0.16618  0.46107  0.01762  1.0000
  H   H15       1.0  0.02521  0.26140  0.02150  1.0000
  H   H16       1.0  0.14632  0.46197  0.04583  1.0000
  C   C12       1.0  0.07161  0.44070  0.11506  1.0000
  C   C13       1.0  0.07724  0.45403  0.09753  1.0000
  C   C14       1.0  0.09251  0.46503  0.09637  1.0000
  C   C15       1.0  0.10206  0.46284  0.11285  1.0000
  C   C16       1.0  0.09618  0.44973  0.13044  1.0000
  C   C17       1.0  0.08102  0.43866  0.13157  1.0000
  H   H17       1.0  0.06995  0.45564  0.08474  1.0000
  H   H18       1.0  0.14261  0.39727  0.23625  1.0000
  C   C18       1.0  0.14747  0.22661  0.02342  1.0000
  H   H19       1.0  0.07682  0.42837  0.14510  1.0000
  C   C19       1.0  0.05106  0.41493  0.26273  1.0000
  C   C20       1.0  0.04414  0.42268  0.24450  1.0000
  C   C21       1.0  0.04927  0.41167  0.22863  1.0000
  C   C22       1.0  0.06170  0.39299  0.23075  1.0000
  C   C23       1.0  0.06838  0.38518  0.24908  1.0000
  C   C24       1.0  0.06278  0.39592  0.26514  1.0000
  H   H20       1.0  0.03504  0.43735  0.24252  1.0000
  H   H21       1.0  0.04409  0.41786  0.21458  1.0000
  H   H22       1.0  0.07787  0.37068  0.25087  1.0000
  H   H23       1.0  0.06785  0.38959  0.27922  1.0000
  C   C25       1.0  0.02869  0.27798  0.08840  1.0000
  H   H24       1.0  0.03277  0.28577  0.01391  1.0000
  H   H25       1.0  0.08072  0.44902  0.01625  1.0000
  H   H26       1.0  0.00234  0.32049  0.20934  1.0000
  C   C26       1.0  0.02252  0.27690  0.02474  1.0000
  H   H27       1.0  0.01682  0.29190  0.05020  1.0000
  C   C27       1.0  0.20590  0.19649  0.99607  1.0000
  H   H28       1.0  0.99933  0.44751  0.19846  1.0000
  S   S10       1.0  0.17348  0.48422  0.01639  1.0000
  H   H29       1.0  0.11282  0.37371  0.13444  1.0000
  H   H30       1.0  0.10637  0.44002  0.01771  1.0000
  C   C28       1.0  0.19775  0.00488  0.10932  1.0000
  C   C29       1.0  0.01752  0.03460  0.25748  1.0000
  C   C30       1.0  0.03629  0.02667  0.24748  1.0000
  C   C31       1.0  0.04585  0.00738  0.25456  1.0000
  H   H31       1.0  0.14998  0.17267  0.99697  1.0000
  C   C32       1.0  0.06167  0.29742  0.02633  1.0000
  H   H32       1.0  0.23346  0.45799  0.99885  1.0000
  H   H33       1.0  0.04351  0.03559  0.23436  1.0000
  Fe  Fe6       1.0  0.14763  0.39867  0.98391  1.0000
  H   H34       1.0  0.11964  0.41224  0.22952  1.0000
  C   C33       1.0  0.03874  0.20612  0.07626  1.0000
  C   C34       1.0  0.02363  0.20810  0.06501  1.0000
  C   C35       1.0  0.02850  0.20522  0.04497  1.0000
  C   C36       1.0  0.04849  0.20094  0.03595  1.0000
  C   C37       1.0  0.06363  0.19926  0.04710  1.0000
  C   C38       1.0  0.05874  0.20158  0.06731  1.0000
  H   H35       1.0  0.00816  0.21157  0.07184  1.0000
  H   H36       1.0  0.01672  0.20645  0.03646  1.0000
  H   H37       1.0  0.07907  0.19575  0.04026  1.0000
  H   H38       1.0  0.07044  0.20000  0.07601  1.0000
  H   H39       1.0  0.18051  0.02539  0.08712  1.0000
  H   H40       1.0  0.07777  0.23855  0.06262  1.0000
  H   H41       1.0  0.14515  0.41543  0.10318  1.0000
  C   C39       1.0  0.02388  0.31956  0.14311  1.0000
  C   C40       1.0  0.02360  0.29886  0.14771  1.0000
  C   C41       1.0  0.00937  0.29056  0.14155  1.0000
  H   H42       1.0  0.06817  0.28542  0.05621  1.0000
  C   C42       1.0  0.01764  0.00379  0.28141  1.0000
  H   H43       1.0  0.03426  0.28921  0.15639  1.0000
  H   H44       1.0  0.00905  0.27467  0.14558  1.0000
  H   H45       1.0  0.23047  0.47031  0.05161  1.0000
  H   H46       1.0  0.15597  0.26156  0.00276  1.0000
  H   H47       1.0  0.00711  0.28363  0.02220  1.0000
  H   H48       1.0  0.15318  0.23710  0.03014  1.0000
  H   H49       1.0  0.04969  0.30903  0.02052  1.0000
  C   C43       1.0  0.08334  0.48040  0.98809  1.0000
  H   H50       1.0  0.15181  0.99106  0.13143  1.0000
  H   H51       1.0  0.04527  0.30126  0.05519  1.0000
  H   H52       1.0  0.05615  0.25883  0.08038  1.0000
  H   H53       1.0  0.03479  0.24942  0.07855  1.0000
  H   H54       1.0  0.99114  0.24301  0.99123  1.0000
  Fe  Fe7       1.0  0.00067  0.22247  0.11086  1.0000
  H   H55       1.0  0.12175  0.46999  0.01444  1.0000
  H   H56       1.0  0.10277  0.40246  0.25856  1.0000
  H   H57       1.0  0.17328  0.42415  0.98973  1.0000
  C   C44       1.0  0.16450  0.21389  0.01121  1.0000
  H   H58       1.0  0.02903  0.46631  0.11563  1.0000
  H   H59       1.0  0.00703  0.14600  0.27580  1.0000
  C   C45       1.0  0.01029  0.33179  0.13152  1.0000
  N   N1        1.0  0.10106  0.46707  0.99602  1.0000
  C   C46       1.0  0.17213  0.26143  0.99777  1.0000
  C   C47       1.0  0.18512  0.24053  0.99639  1.0000
  C   C48       1.0  0.16491  0.99239  0.11919  1.0000
  H   H60       1.0  0.10860  0.42882  0.29715  1.0000
  C   C49       1.0  0.00322  0.46411  0.16816  1.0000
  H   H61       1.0  0.07504  0.30439  0.02505  1.0000
  H   H62       1.0  0.06660  0.28617  0.01631  1.0000
  H   H63       1.0  0.08524  0.23494  0.03729  1.0000
  H   H64       1.0  0.09104  0.41777  0.00420  1.0000
  C   C50       1.0  0.19107  0.20929  0.98270  1.0000
  H   H65       1.0  0.10353  0.44801  0.14322  1.0000
  H   H66       1.0  0.04035  0.47306  0.16588  1.0000
  C   C51       1.0  0.12200  0.30546  0.99334  1.0000
  H   H67       1.0  0.02648  0.26999  0.10414  1.0000
  H   H68       1.0  0.01079  0.34763  0.12725  1.0000
  C   C52       1.0  0.09250  0.47818  0.03090  1.0000
  C   C53       1.0  0.17120  0.01831  0.13556  1.0000
  H   H69       1.0  0.00235  0.47266  0.19759  1.0000
  H   H70       1.0  0.99653  0.14572  0.23459  1.0000
  H   H71       1.0  0.18489  0.45566  0.98969  1.0000
  H   H72       1.0  0.19140  0.23522  0.01051  1.0000
  H   H73       1.0  0.08673  0.25835  0.04330  1.0000
  H   H74       1.0  0.99345  0.12786  0.27143  1.0000
  H   H75       1.0  0.01019  0.44527  0.31200  1.0000
  N   N2        1.0  0.11573  0.42580  0.26576  1.0000
  C   C54       1.0  0.12130  0.42972  0.28447  1.0000
  C   C55       1.0  0.10720  0.40666  0.27141  1.0000
  C   C56       1.0  0.09968  0.44281  0.25942  1.0000
  C   C57       1.0  0.13409  0.42464  0.24976  1.0000
  C   C58       1.0  0.12085  0.38813  0.28076  1.0000
  N   N3        1.0  0.17522  0.22466  0.99215  1.0000
  C   C59       1.0  0.05629  0.25380  0.04245  1.0000
  C   C60       1.0  0.00823  0.02318  0.27455  1.0000
  H   H76       1.0  0.13369  0.41802  0.28947  1.0000
  H   H77       1.0  0.98897  0.20358  0.23477  1.0000
  H   H78       1.0  0.09307  0.40874  0.28232  1.0000
  H   H79       1.0  0.08665  0.44399  0.27181  1.0000
  H   H80       1.0  0.10503  0.45740  0.25628  1.0000
  H   H81       1.0  0.13684  0.43995  0.24247  1.0000
  H   H82       1.0  0.14747  0.41732  0.25671  1.0000
  C   C61       1.0  0.03494  0.47465  0.15148  1.0000
  H   H83       1.0  0.01003  0.45241  0.13001  1.0000
  C   C62       1.0  0.10689  0.47735  0.01075  1.0000
  C   C63       1.0  0.19274  0.01245  0.08800  1.0000
  C   C64       1.0  0.04163  0.26323  0.07495  1.0000
  C   C65       1.0  0.12819  0.44992  0.28292  1.0000
  H   H84       1.0  0.01381  0.26639  0.05571  1.0000
  C   C66       1.0  0.00728  0.48385  0.29670  1.0000
  C   C67       1.0  0.05500  0.28861  0.04847  1.0000
  N   N4        1.0  0.04442  0.27084  0.05264  1.0000
  C   C68       1.0  0.09171  0.44203  0.24044  1.0000
  H   H85       1.0  0.04817  0.24088  0.04649  1.0000
  H   H86       1.0  0.17710  0.26825  0.00873  1.0000
  S   S11       1.0  0.05422  0.19742  0.01086  1.0000
  S   S12       1.0  0.06976  0.99814  0.24233  1.0000
  N   N5        1.0  0.18074  0.00015  0.12603  1.0000
  H   H87       1.0  0.08933  0.39407  0.06529  1.0000
  H   H88       1.0  0.08312  0.41620  0.07707  1.0000
  C   C69       1.0  0.07766  0.24622  0.04692  1.0000
  H   H89       1.0  0.00826  0.33408  0.18497  1.0000
  C   C70       1.0  0.99613  0.15395  0.24703  1.0000
  Fe  Fe8       1.0  0.05578  0.41831  0.31174  1.0000
  H   H90       1.0  0.04377  0.02849  0.29100  1.0000
  H   H91       1.0  0.11696  0.39917  0.12837  1.0000
  H   H92       1.0  0.14293  0.41978  0.21882  1.0000
  H   H93       1.0  0.13671  0.38006  0.13493  1.0000
  S   S13       1.0  0.10911  0.26927  0.99956  1.0000
  H   H94       1.0  0.21227  0.20570  0.00371  1.0000
  H   H95       1.0  0.10301  0.44480  0.22680  1.0000
  H   H96       1.0  0.11453  0.37450  0.28115  1.0000
  S   S14       1.0  0.98765  0.25121  0.09333  1.0000
  C   C71       1.0  0.13168  0.32115  0.98194  1.0000
  H   H97       1.0  0.99229  0.19741  0.99791  1.0000
  H   H98       1.0  0.01360  0.28359  0.08453  1.0000
  C   C72       1.0  0.19424  0.14062  0.98876  1.0000
  H   H99       1.0  0.13162  0.45404  0.98648  1.0000
  H   H100      1.0  0.21538  0.46252  0.03694  1.0000
  H   H101      1.0  0.20611  0.01731  0.07790  1.0000
  H   H102      1.0  0.12146  0.38881  0.29653  1.0000
  H   H103      1.0  0.15827  0.20150  0.00792  1.0000
  S   S15       1.0  0.12143  0.47599  0.11225  1.0000
  H   H104      1.0  0.15079  0.41698  0.07617  1.0000
  C   C73       1.0  0.07538  0.02361  0.28236  1.0000
  Fe  Fe9       1.0  0.08083  0.21034  0.99291  1.0000
  C   C74       1.0  0.16702  0.43254  0.00178  1.0000
  H   H105      1.0  0.17456  0.27183  0.98331  1.0000
  H   H106      1.0  0.00502  0.47069  0.10868  1.0000
  H   H107      1.0  0.98796  0.47362  0.24959  1.0000
  H   H108      1.0  0.14851  0.24439  0.98327  1.0000
  H   H109      1.0  0.99604  0.14195  0.18045  1.0000
  H   H110      1.0  0.13961  0.45308  0.26952  1.0000
  C   C75       1.0  0.09664  0.43095  0.99431  1.0000
  H   H111      1.0  0.01033  0.04958  0.25210  1.0000
  H   H112      1.0  0.21846  0.18825  0.98659  1.0000
  H   H113      1.0  0.19806  0.24330  0.98434  1.0000
  H   H114      1.0  0.15888  0.00293  0.10662  1.0000
  H   H115      1.0  0.13579  0.23475  0.01465  1.0000
  N   N6        1.0  0.01258  0.48069  0.15419  1.0000
  H   H116      1.0  0.01041  0.99485  0.29451  1.0000
  C   C76       1.0  0.03638  0.99590  0.27144  1.0000
  H   H117      1.0  0.18241  0.02420  0.14116  1.0000
  H   H118      1.0  0.06927  0.39619  0.08580  1.0000
  H   H119      1.0  0.13856  0.35609  0.07470  1.0000
  H   H120      1.0  0.13521  0.36663  0.04965  1.0000
  H   H121      1.0  0.18911  0.00039  0.08171  1.0000
  N   N7        1.0  0.11940  0.39355  0.08961  1.0000
  C   C77       1.0  0.12887  0.38891  0.06908  1.0000
  C   C78       1.0  0.11915  0.41543  0.08940  1.0000
  C   C79       1.0  0.09828  0.38951  0.09510  1.0000
  C   C80       1.0  0.13127  0.38045  0.10481  1.0000
  C   C81       1.0  0.12889  0.36757  0.06561  1.0000
  C   C82       1.0  0.13944  0.42151  0.08890  1.0000
  C   C83       1.0  0.08449  0.39968  0.07971  1.0000
  C   C84       1.0  0.12386  0.38358  0.12679  1.0000
  H   H122      1.0  0.12156  0.39955  0.05729  1.0000
  H   H123      1.0  0.14471  0.39108  0.06550  1.0000
  H   H124      1.0  0.10899  0.42062  0.10253  1.0000
  H   H125      1.0  0.11287  0.42486  0.07635  1.0000
  H   H126      1.0  0.09791  0.37316  0.09795  1.0000
  H   H127      1.0  0.09094  0.39456  0.10953  1.0000
  H   H128      1.0  0.13104  0.36440  0.10499  1.0000
  H   H129      1.0  0.14741  0.38152  0.10068  1.0000
  H   H130      1.0  0.11372  0.36381  0.06832  1.0000
  H   H131      1.0  0.04313  0.99629  0.30999  1.0000
  C   C85       1.0  0.22156  0.47526  0.03936  1.0000
  S   S16       1.0  0.14140  0.40532  0.01553  1.0000
  H   H132      1.0  0.00806  0.44983  0.16228  1.0000
  H   H133      1.0  0.00614  0.45280  0.27800  1.0000
  H   H134      1.0  0.00094  0.18750  0.21641  1.0000
  S   S17       1.0  0.11087  0.21221  0.99938  1.0000
  H   H135      1.0  0.21575  0.99649  0.14251  1.0000
  H   H136      1.0  0.09693  0.47515  0.08280  1.0000
  H   H137      1.0  0.08633  0.42790  0.24108  1.0000
  C   C86       1.0  0.05668  0.03012  0.29741  1.0000
  C   C87       1.0  0.20359  0.98986  0.15308  1.0000
  H   H138      1.0  0.08933  0.02587  0.28635  1.0000
  C   C88       1.0  0.01292  0.46729  0.12174  1.0000
  C   C89       1.0  0.16337  0.16512  0.98879  1.0000
  C   C90       1.0  0.17382  0.45025  0.00191  1.0000
  S   S18       1.0  0.21108  0.12327  0.00258  1.0000
  H   H139      1.0  0.12309  0.99498  0.30656  1.0000
  H   H140      1.0  0.08306  0.04779  0.30997  1.0000
  C   C91       1.0  0.13436  0.41276  0.23295  1.0000
  H   H141      1.0  0.07403  0.03280  0.26737  1.0000
  H   H142      1.0  0.07669  0.00783  0.28058  1.0000
  C   C92       1.0  0.17690  0.15083  0.99916  1.0000
  H   H143      1.0  0.14004  0.21653  0.03609  1.0000
  Fe  Fe10      1.0  0.23655  0.10040  0.98996  1.0000
  H   H144      1.0  0.03610  0.29077  0.08828  1.0000
  H   H145      1.0  0.13616  0.38623  0.27209  1.0000
  H   H146      1.0  0.20954  0.99149  0.10795  1.0000
  C   C93       1.0  0.00757  0.45959  0.18980  1.0000
  H   H147      1.0  0.02192  0.47516  0.29076  1.0000
  H   H148      1.0  0.17387  0.14752  0.01535  1.0000
  H   H149      1.0  0.01802  0.12947  0.25840  1.0000
  H   H150      1.0  0.00777  0.16358  0.24166  1.0000
  H   H151      1.0  0.19890  0.18484  0.00720  1.0000
  C   C94       1.0  0.12094  0.28900  0.98482  1.0000
  H   H152      1.0  0.05523  0.04650  0.29703  1.0000
  H   H153      1.0  0.13503  0.44945  0.29624  1.0000
  H   H154      1.0  0.07018  0.48135  0.00026  1.0000
  H   H155      1.0  0.03955  0.45961  0.14693  1.0000
  H   H156      1.0  0.19585  0.00011  0.16371  1.0000
  C   C95       1.0  0.99177  0.47988  0.26164  1.0000
  H   H157      1.0  0.01680  0.17060  0.99309  1.0000
  S   S19       1.0  0.99068  0.23293  0.14061  1.0000
  H   H158      1.0  0.06893  0.98972  0.31048  1.0000
  H   H159      1.0  0.01190  0.20922  0.99952  1.0000
  C   C96       1.0  0.00375  0.13853  0.26438  1.0000
  H   H160      1.0  0.17229  0.04391  0.11091  1.0000
  H   H161      1.0  0.08749  0.43591  0.98234  1.0000
  H   H162      1.0  0.21690  0.01821  0.99279  1.0000
  H   H163      1.0  0.16733  0.00026  0.29049  1.0000
  H   H164      1.0  0.11220  0.42548  0.98769  1.0000
  H   H165      1.0  0.99308  0.35162  0.16098  1.0000
  H   H166      1.0  0.06316  0.48326  0.13575  1.0000
  C   C97       1.0  0.99216  0.46381  0.28072  1.0000
  C   C98       1.0  0.00524  0.48407  0.13448  1.0000
  H   H167      1.0  0.13243  0.33380  0.98857  1.0000
  C   C99       1.0  0.99658  0.32643  0.19506  1.0000
  N   N8        1.0  0.99087  0.47159  0.29988  1.0000
  H   H168      1.0  0.99492  0.31334  0.18895  1.0000
  H   H169      1.0  0.02842  0.23303  0.98274  1.0000
  H   H170      1.0  0.17085  0.00090  0.26412  1.0000
  H   H171      1.0  0.15204  0.98827  0.27975  1.0000
  H   H172      1.0  0.00672  0.48421  0.25609  1.0000
  H   H173      1.0  0.98938  0.18397  0.26606  1.0000
  C   C100      1.0  0.16725  0.99133  0.27890  1.0000
  S   S20       1.0  0.16061  0.47859  0.34692  1.0000
  C   C101      1.0  0.21772  0.42140  0.57946  1.0000
  C   C102      1.0  0.01605  0.48392  0.41491  1.0000
  S   S21       1.0  0.23272  0.46936  0.38924  1.0000
  H   H174      1.0  0.17395  0.42897  0.39714  1.0000
  Fe  Fe11      1.0  0.19280  0.32211  0.52894  1.0000
  S   S22       1.0  0.20293  0.31677  0.55871  1.0000
  S   S23       1.0  0.17063  0.30565  0.52219  1.0000
  H   H175      1.0  0.15675  0.06030  0.49851  1.0000
  H   H176      1.0  0.12078  0.47535  0.34427  1.0000
  S   S24       1.0  0.19021  0.35565  0.52391  1.0000
  H   H177      1.0  0.01366  0.20073  0.58144  1.0000
  H   H178      1.0  0.04334  0.04072  0.45774  1.0000
  H   H179      1.0  0.03710  0.35623  0.58639  1.0000
  Fe  Fe12      1.0  0.18912  0.47352  0.35978  1.0000
  C   C103      1.0  0.02577  0.20627  0.56997  1.0000
  H   H180      1.0  0.16295  0.46197  0.61561  1.0000
  H   H181      1.0  0.01615  0.46752  0.41734  1.0000
  H   H182      1.0  0.16526  0.09398  0.41750  1.0000
  Fe  Fe13      1.0  0.17571  0.01063  0.42209  1.0000
  C   C104      1.0  0.03075  0.06857  0.51940  1.0000
  S   S25       1.0  0.20462  0.00424  0.43454  1.0000
  Fe  Fe14      1.0  0.13404  0.03560  0.42596  1.0000
  S   S26       1.0  0.12184  0.01635  0.41036  1.0000
  S   S27       1.0  0.11692  0.06425  0.43631  1.0000
  H   H183      1.0  0.02309  0.09633  0.49979  1.0000
  H   H184      1.0  0.02055  0.13862  0.50362  1.0000
  Fe  Fe15      1.0  0.15068  0.01625  0.38875  1.0000
  S   S28       1.0  0.15086  0.01901  0.35542  1.0000
  S   S29       1.0  0.14868  0.00972  0.44613  1.0000
  S   S30       1.0  0.16173  0.03786  0.40275  1.0000
  Fe  Fe16      1.0  0.06095  0.29883  0.56531  1.0000
  S   S31       1.0  0.05468  0.27940  0.59515  1.0000
  S   S32       1.0  0.08032  0.32180  0.56403  1.0000
  Fe  Fe17      1.0  0.03415  0.27995  0.54755  1.0000
  S   S33       1.0  0.02533  0.25959  0.57627  1.0000
  S   S34       1.0  0.02665  0.27556  0.51870  1.0000
  Fe  Fe18      1.0  0.02289  0.28649  0.59065  1.0000
  C   C105      1.0  0.16773  0.26149  0.56342  1.0000
  Fe  Fe19      1.0  0.05777  0.25440  0.57823  1.0000
  S   S35       1.0  0.07308  0.22327  0.58914  1.0000
  S   S36       1.0  0.02871  0.30768  0.56162  1.0000
  S   S37       1.0  0.06701  0.27313  0.54861  1.0000
  Fe  Fe20      1.0  0.05546  0.11202  0.57923  1.0000
  S   S38       1.0  0.04107  0.14189  0.56451  1.0000
  S   S39       1.0  0.06008  0.10514  0.61160  1.0000
  Fe  Fe21      1.0  0.06737  0.09545  0.53989  1.0000
  S   S40       1.0  0.05414  0.12394  0.52183  1.0000
  S   S41       1.0  0.08153  0.06675  0.52796  1.0000
  Fe  Fe22      1.0  0.06765  0.13919  0.54019  1.0000
  S   S42       1.0  0.08053  0.16688  0.52579  1.0000
  Fe  Fe23      1.0  0.02853  0.12447  0.54739  1.0000
  S   S43       1.0  0.08336  0.11070  0.55603  1.0000
  S   S44       1.0  0.04050  0.09457  0.56437  1.0000
  C   C106      1.0  0.02246  0.32360  0.48019  1.0000
  Fe  Fe24      1.0  0.04936  0.43195  0.35210  1.0000
  S   S45       1.0  0.16736  0.98922  0.40599  1.0000
  H   H185      1.0  0.06513  0.06459  0.47708  1.0000
  Fe  Fe25      1.0  0.08956  0.40959  0.33640  1.0000
  H   H186      1.0  0.12476  0.43223  0.58827  1.0000
  S   S46       1.0  0.00241  0.29246  0.61922  1.0000
  C   C107      1.0  0.14773  0.41574  0.42784  1.0000
  Fe  Fe26      1.0  0.05357  0.38804  0.35057  1.0000
  S   S47       1.0  0.04348  0.35849  0.36475  1.0000
  H   H187      1.0  0.08401  0.02611  0.64458  1.0000
  S   S48       1.0  0.06890  0.40488  0.36581  1.0000
  C   C108      1.0  0.12942  0.98808  0.36222  1.0000
  H   H188      1.0  0.20879  0.04016  0.40433  1.0000
  H   H189      1.0  0.05205  0.04524  0.49002  1.0000
  C   C109      1.0  0.00940  0.46107  0.37006  1.0000
  H   H190      1.0  0.00174  0.35936  0.58346  1.0000
  C   C110      1.0  0.14632  0.09162  0.49069  1.0000
  H   H191      1.0  0.00833  0.42960  0.37418  1.0000
  C   C111      1.0  0.13728  0.00338  0.34829  1.0000
  H   H192      1.0  0.03227  0.34491  0.61255  1.0000
  S   S49       1.0  0.03525  0.45777  0.36809  1.0000
  C   C112      1.0  0.02724  0.18031  0.51441  1.0000
  C   C113      1.0  0.00835  0.37628  0.38552  1.0000
  C   C114      1.0  0.01955  0.35869  0.37947  1.0000
  C   C115      1.0  0.01181  0.34077  0.38569  1.0000
  H   H193      1.0  0.11568  0.44137  0.63229  1.0000
  H   H194      1.0  0.23600  0.35397  0.57690  1.0000
  H   H195      1.0  0.01425  0.39013  0.38090  1.0000
  H   H196      1.0  0.02041  0.32713  0.38100  1.0000
  H   H197      1.0  0.22691  0.47057  0.54023  1.0000
  C   C116      1.0  0.22744  0.48095  0.52570  1.0000
  C   C117      1.0  0.23614  0.39510  0.44787  1.0000
  H   H198      1.0  0.13595  0.42898  0.38018  1.0000
  C   C118      1.0  0.00162  0.28021  0.51555  1.0000
  H   H199      1.0  0.05229  0.19023  0.61880  1.0000
  H   H200      1.0  0.98934  0.11901  0.64224  1.0000
  H   H201      1.0  0.12844  0.41827  0.45643  1.0000
  H   H202      1.0  0.00908  0.27264  0.48592  1.0000
  C   C119      1.0  0.07597  0.20758  0.57136  1.0000
  C   C120      1.0  0.07454  0.21572  0.55136  1.0000
  C   C121      1.0  0.07671  0.20311  0.53729  1.0000
  C   C122      1.0  0.07945  0.18232  0.54332  1.0000
  C   C123      1.0  0.08057  0.17413  0.56337  1.0000
  C   C124      1.0  0.07928  0.18676  0.57727  1.0000
  H   H203      1.0  0.07190  0.23172  0.54663  1.0000
  H   H204      1.0  0.07583  0.20950  0.52180  1.0000
  H   H205      1.0  0.08275  0.15805  0.56808  1.0000
  H   H206      1.0  0.08065  0.18037  0.59262  1.0000
  C   C125      1.0  0.10774  0.06473  0.46192  1.0000
  C   C126      1.0  0.10770  0.04710  0.47599  1.0000
  C   C127      1.0  0.09994  0.04800  0.49627  1.0000
  C   C128      1.0  0.09220  0.06649  0.50261  1.0000
  C   C129      1.0  0.09256  0.08415  0.48859  1.0000
  C   C130      1.0  0.10027  0.08325  0.46830  1.0000
  H   H207      1.0  0.11335  0.03276  0.47125  1.0000
  H   H208      1.0  0.09968  0.03428  0.50706  1.0000
  H   H209      1.0  0.08671  0.09846  0.49335  1.0000
  H   H210      1.0  0.10034  0.09694  0.45748  1.0000
  C   C131      1.0  0.00323  0.32560  0.45386  1.0000
  H   H211      1.0  0.13411  0.39805  0.37656  1.0000
  H   H212      1.0  0.02142  0.18860  0.50075  1.0000
  H   H213      1.0  0.13782  0.06609  0.48356  1.0000
  H   H214      1.0  0.15375  0.42926  0.42851  1.0000
  C   C132      1.0  0.10787  0.27199  0.60358  1.0000
  H   H215      1.0  0.99128  0.18507  0.54081  1.0000
  H   H216      1.0  0.17015  0.41639  0.37888  1.0000
  C   C133      1.0  0.22614  0.38547  0.46583  1.0000
  C   C134      1.0  0.00509  0.35738  0.59889  1.0000
  C   C135      1.0  0.20630  0.06162  0.45778  1.0000
  C   C136      1.0  0.17311  0.08284  0.42855  1.0000
  H   H217      1.0  0.01644  0.04942  0.49636  1.0000
  H   H218      1.0  0.20054  0.40093  0.39270  1.0000
  C   C137      1.0  0.03997  0.10738  0.63154  1.0000
  C   C138      1.0  0.02017  0.11241  0.62840  1.0000
  H   H219      1.0  0.14898  0.39145  0.60318  1.0000
  H   H220      1.0  0.99748  0.38830  0.63414  1.0000
  H   H221      1.0  0.01688  0.11468  0.61339  1.0000
  H   H222      1.0  0.13713  0.10202  0.48029  1.0000
  C   C139      1.0  0.15044  0.45826  0.34367  1.0000
  C   C140      1.0  0.13002  0.46095  0.34281  1.0000
  C   C141      1.0  0.12140  0.44508  0.34030  1.0000
  C   C142      1.0  0.13326  0.42649  0.33813  1.0000
  C   C143      1.0  0.15372  0.42384  0.33878  1.0000
  C   C144      1.0  0.16226  0.43960  0.34171  1.0000
  Fe  Fe27      1.0  0.23399  0.46165  0.35869  1.0000
  C   C145      1.0  0.12693  0.41700  0.44106  1.0000
  H   H223      1.0  0.14008  0.41039  0.63693  1.0000
  H   H224      1.0  0.17805  0.43743  0.34210  1.0000
  S   S50       1.0  0.99639  0.13396  0.54309  1.0000
  H   H225      1.0  0.13123  0.98600  0.37772  1.0000
  C   C146      1.0  0.03001  0.19428  0.52810  1.0000
  H   H226      1.0  0.14157  0.24997  0.61465  1.0000
  C   C147      1.0  0.14532  0.31183  0.53252  1.0000
  C   C148      1.0  0.13126  0.30251  0.52756  1.0000
  C   C149      1.0  0.11125  0.30555  0.53705  1.0000
  C   C150      1.0  0.10515  0.31816  0.55137  1.0000
  C   C151      1.0  0.11909  0.32794  0.55591  1.0000
  C   C152      1.0  0.13917  0.32470  0.54660  1.0000
  H   H227      1.0  0.13595  0.29266  0.51656  1.0000
  H   H228      1.0  0.10056  0.29819  0.53323  1.0000
  H   H229      1.0  0.11443  0.33779  0.56690  1.0000
  H   H230      1.0  0.14993  0.33191  0.55053  1.0000
  H   H231      1.0  0.20770  0.41621  0.61133  1.0000
  H   H232      1.0  0.03298  0.07644  0.53105  1.0000
  H   H233      1.0  0.18758  0.08743  0.46885  1.0000
  H   H234      1.0  0.14942  0.22407  0.58189  1.0000
  C   C153      1.0  0.20064  0.39399  0.59716  1.0000
  C   C154      1.0  0.01800  0.21816  0.55085  1.0000
  H   H235      1.0  0.16003  0.09897  0.45229  1.0000
  H   H236      1.0  0.14502  0.08265  0.44839  1.0000
  H   H237      1.0  0.19374  0.38588  0.61103  1.0000
  H   H238      1.0  0.10611  0.27641  0.57232  1.0000
  S   S51       1.0  0.20844  0.44422  0.36876  1.0000
  H   H239      1.0  0.01136  0.23047  0.51337  1.0000
  H   H240      1.0  0.01074  0.36385  0.47559  1.0000
  S   S52       1.0  0.22403  0.31673  0.51184  1.0000
  C   C155      1.0  0.19551  0.40804  0.45984  1.0000
  C   C156      1.0  0.99720  0.27783  0.49739  1.0000
  N   N9        1.0  0.14207  0.43355  0.61073  1.0000
  H   H241      1.0  0.15176  0.44839  0.58070  1.0000
  H   H242      1.0  0.17931  0.04414  0.44887  1.0000
  S   S53       1.0  0.03231  0.41487  0.33915  1.0000
  H   H243      1.0  0.18873  0.06478  0.48643  1.0000
  Fe  Fe28      1.0  0.19755  0.47151  0.64292  1.0000
  H   H244      1.0  0.22938  0.36285  0.61477  1.0000
  H   H245      1.0  0.04169  0.05446  0.52006  1.0000
  C   C157      1.0  0.00416  0.37455  0.62753  1.0000
  C   C158      1.0  0.18601  0.39779  0.40171  1.0000
  H   H246      1.0  0.21844  0.47954  0.49740  1.0000
  H   H247      1.0  0.11847  0.42804  0.40253  1.0000
  H   H248      1.0  0.01205  0.32541  0.51238  1.0000
  H   H249      1.0  0.03611  0.98909  0.34791  1.0000
  C   C159      1.0  0.13151  0.42220  0.60078  1.0000
  H   H250      1.0  0.15795  0.40844  0.58107  1.0000
  H   H251      1.0  0.17397  0.24602  0.56979  1.0000
  C   C160      1.0  0.22114  0.03686  0.41249  1.0000
  H   H252      1.0  0.17639  0.01572  0.47339  1.0000
  H   H253      1.0  0.99013  0.33290  0.44663  1.0000
  H   H254      1.0  0.11608  0.98567  0.47321  1.0000
  H   H255      1.0  0.11784  0.28272  0.60322  1.0000
  H   H256      1.0  0.03692  0.32500  0.47006  1.0000
  C   C161      1.0  0.14452  0.40429  0.59155  1.0000
  H   H257      1.0  0.09252  0.28059  0.60601  1.0000
  C   C162      1.0  0.03792  0.02853  0.33156  1.0000
  S   S54       1.0  0.21775  0.44214  0.63938  1.0000
  H   H258      1.0  0.10880  0.25972  0.61661  1.0000
  H   H259      1.0  0.02490  0.35645  0.45362  1.0000
  N   N10       1.0  0.01129  0.20599  0.53841  1.0000
  H   H260      1.0  0.01669  0.21734  0.63938  1.0000
  H   H261      1.0  0.12502  0.46209  0.38884  1.0000
  H   H262      1.0  0.01809  0.31630  0.42567  1.0000
  Fe  Fe29      1.0  0.13923  0.99064  0.42844  1.0000
  H   H263      1.0  0.21290  0.04707  0.46603  1.0000
  H   H264      1.0  0.01808  0.47921  0.32543  1.0000
  H   H265      1.0  0.14244  0.22371  0.62120  1.0000
  H   H266      1.0  0.03507  0.31576  0.44186  1.0000
  H   H267      1.0  0.16301  0.40952  0.33704  1.0000
  C   C163      1.0  0.02085  0.16722  0.63281  1.0000
  N   N11       1.0  0.00516  0.33582  0.47053  1.0000
  N   N12       1.0  0.99950  0.37690  0.60670  1.0000
  C   C164      1.0  0.13223  0.24892  0.55614  1.0000
  H   H268      1.0  0.17750  0.27166  0.56525  1.0000
  H   H269      1.0  0.07301  0.01207  0.34279  1.0000
  H   H270      1.0  0.15205  0.38128  0.41535  1.0000
  H   H271      1.0  0.01794  0.10112  0.46622  1.0000
  C   C165      1.0  0.17262  0.03000  0.47935  1.0000
  C   C166      1.0  0.16196  0.42686  0.64019  1.0000
  H   H272      1.0  0.21246  0.39202  0.54733  1.0000
  H   H273      1.0  0.04823  0.06079  0.64561  1.0000
  H   H274      1.0  0.00449  0.34214  0.63892  1.0000
  H   H275      1.0  0.18139  0.45928  0.59406  1.0000
  H   H276      1.0  0.03207  0.21632  0.57672  1.0000
  H   H277      1.0  0.13342  0.45479  0.41242  1.0000
  C   C167      1.0  0.99822  0.19140  0.55072  1.0000
  C   C168      1.0  0.11408  0.46416  0.60602  1.0000
  C   C169      1.0  0.21914  0.41443  0.56146  1.0000
  H   H278      1.0  0.11887  0.41639  0.61156  1.0000
  H   H279      1.0  0.16325  0.23280  0.60545  1.0000
  H   H280      1.0  0.13567  0.39875  0.58277  1.0000
  H   H281      1.0  0.07973  0.14113  0.63810  1.0000
  H   H282      1.0  0.04210  0.17182  0.50908  1.0000
  H   H283      1.0  0.15102  0.45509  0.38920  1.0000
  S   S55       1.0  0.07098  0.43796  0.32375  1.0000
  H   H284      1.0  0.07805  0.16750  0.63019  1.0000
  C   C170      1.0  0.01129  0.39189  0.59302  1.0000
  C   C171      1.0  0.22584  0.41122  0.43592  1.0000
  C   C172      1.0  0.02718  0.34745  0.59793  1.0000
  H   H285      1.0  0.01022  0.46957  0.63563  1.0000
  C   C173      1.0  0.02124  0.32438  0.43670  1.0000
  H   H286      1.0  0.10185  0.24353  0.55719  1.0000
  H   H287      1.0  0.02154  0.30737  0.48303  1.0000
  H   H288      1.0  0.05689  0.06066  0.44437  1.0000
  S   S56       1.0  0.18472  0.48285  0.38969  1.0000
  H   H289      1.0  0.09328  0.03811  0.33233  1.0000
  H   H290      1.0  0.00610  0.23034  0.55566  1.0000
  N   N13       1.0  0.03306  0.07330  0.48100  1.0000
  C   C174      1.0  0.05173  0.05809  0.47741  1.0000
  C   C175      1.0  0.03399  0.08227  0.49888  1.0000
  C   C176      1.0  0.03146  0.08975  0.46314  1.0000
  S   S57       1.0  0.23442  0.34729  0.53713  1.0000
  C   C177      1.0  0.99986  0.44459  0.37241  1.0000
  C   C178      1.0  0.99464  0.07625  0.48946  1.0000
  C   C179      1.0  0.04922  0.10118  0.45636  1.0000
  N   N14       1.0  0.14860  0.41356  0.40641  1.0000
  C   C180      1.0  0.02950  0.16384  0.61117  1.0000
  H   H291      1.0  0.98835  0.36470  0.44162  1.0000
  C   C181      1.0  0.00440  0.41381  0.59625  1.0000
  H   H292      1.0  0.04872  0.08690  0.49746  1.0000
  H   H293      1.0  0.02913  0.08399  0.45004  1.0000
  H   H294      1.0  0.11646  0.43043  0.43564  1.0000
  H   H295      1.0  0.01449  0.05702  0.47105  1.0000
  H   H296      1.0  0.23497  0.06177  0.39549  1.0000
  H   H297      1.0  0.02999  0.22633  0.54169  1.0000
  H   H298      1.0  0.18780  0.08728  0.42746  1.0000
  H   H299      1.0  0.17485  0.06819  0.42372  1.0000
  H   H300      1.0  0.16841  0.26282  0.54703  1.0000
  H   H301      1.0  0.10328  0.45721  0.60106  1.0000
  H   H302      1.0  0.10562  0.44732  0.33988  1.0000
  H   H303      1.0  0.03781  0.02189  0.34764  1.0000
  H   H304      1.0  0.06327  0.09134  0.45130  1.0000
  C   C182      1.0  0.00232  0.13493  0.48342  1.0000
  C   C183      1.0  0.16942  0.41504  0.39529  1.0000
  H   H305      1.0  0.15366  0.04639  0.45827  1.0000
  C   C184      1.0  0.11739  0.23548  0.55510  1.0000
  N   N15       1.0  0.16748  0.06808  0.46657  1.0000
  C   C185      1.0  0.15191  0.07049  0.48507  1.0000
  C   C186      1.0  0.16817  0.04745  0.46218  1.0000
  C   C187      1.0  0.16055  0.08358  0.44953  1.0000
  C   C188      1.0  0.18714  0.07117  0.47057  1.0000
  H   H306      1.0  0.00043  0.31005  0.46003  1.0000
  H   H307      1.0  0.13692  0.09076  0.50580  1.0000
  C   C189      1.0  0.02588  0.21098  0.62635  1.0000
  H   H308      1.0  0.16304  0.40720  0.62010  1.0000
  H   H309      1.0  0.02661  0.34450  0.49891  1.0000
  Fe  Fe30      1.0  0.20554  0.45448  0.39819  1.0000
  H   H310      1.0  0.01151  0.39146  0.57699  1.0000
  C   C190      1.0  0.20578  0.39192  0.47173  1.0000
  H   H311      1.0  0.00745  0.17817  0.55856  1.0000
  H   H312      1.0  0.12031  0.40341  0.44240  1.0000
  H   H313      1.0  0.11870  0.22136  0.56606  1.0000
  H   H314      1.0  0.00440  0.41551  0.61183  1.0000
  C   C191      1.0  0.14670  0.23581  0.60874  1.0000
  H   H315      1.0  0.14043  0.28278  0.56512  1.0000
  H   H316      1.0  0.17979  0.41306  0.46460  1.0000
  C   C192      1.0  0.14629  0.26823  0.57388  1.0000
  C   C193      1.0  0.00625  0.13575  0.50230  1.0000
  S   S58       1.0  0.19180  0.36580  0.57937  1.0000
  H   H317      1.0  0.14167  0.37267  0.38716  1.0000
  H   H318      1.0  0.03867  0.18438  0.53920  1.0000
  H   H319      1.0  0.15929  0.02881  0.49121  1.0000
  C   C194      1.0  0.20857  0.41107  0.59737  1.0000
  Fe  Fe31      1.0  0.20269  0.34997  0.55258  1.0000
  S   S59       1.0  0.19193  0.43805  0.42784  1.0000
  C   C195      1.0  0.20197  0.38711  0.57913  1.0000
  H   H320      1.0  0.10508  0.47617  0.61414  1.0000
  H   H321      1.0  0.15961  0.09789  0.49131  1.0000
  H   H322      1.0  0.01375  0.13700  0.47036  1.0000
  C   C196      1.0  0.06957  0.15496  0.63283  1.0000
  C   C197      1.0  0.20552  0.41778  0.44199  1.0000
  C   C198      1.0  0.12641  0.44890  0.62034  1.0000
  H   H323      1.0  0.06613  0.15294  0.61856  1.0000
  H   H324      1.0  0.14715  0.24107  0.55002  1.0000
  H   H325      1.0  0.20454  0.05959  0.44289  1.0000
  C   C199      1.0  0.05519  0.04916  0.45804  1.0000
  H   H326      1.0  0.12361  0.47144  0.59285  1.0000
  H   H327      1.0  0.00616  0.17728  0.63269  1.0000
  C   C200      1.0  0.15761  0.44281  0.59503  1.0000
  H   H328      1.0  0.01794  0.16898  0.52250  1.0000
  H   H329      1.0  0.06945  0.03837  0.45732  1.0000
  H   H330      1.0  0.02372  0.33946  0.42854  1.0000
  H   H331      1.0  0.99178  0.17204  0.44371  1.0000
  H   H332      1.0  0.02728  0.38798  0.59475  1.0000
  H   H333      1.0  0.23363  0.41865  0.42214  1.0000
  H   H334      1.0  0.06123  0.04880  0.62508  1.0000
  H   H335      1.0  0.15824  0.47503  0.59129  1.0000
  H   H336      1.0  0.01534  0.06528  0.52357  1.0000
  H   H337      1.0  0.04018  0.20453  0.51889  1.0000
  H   H338      1.0  0.03826  0.31917  0.50527  1.0000
  H   H339      1.0  0.02908  0.33250  0.59358  1.0000
  C   C201      1.0  0.02468  0.32877  0.50027  1.0000
  H   H340      1.0  0.03785  0.19359  0.56705  1.0000
  H   H341      1.0  0.19795  0.38459  0.48551  1.0000
  H   H342      1.0  0.14766  0.27212  0.58822  1.0000
  H   H343      1.0  0.17090  0.43130  0.59151  1.0000
  C   C202      1.0  0.98970  0.37586  0.39795  1.0000
  H   H344      1.0  0.12734  0.39316  0.41328  1.0000
  C   C203      1.0  0.01521  0.06301  0.48459  1.0000
  C   C204      1.0  0.12493  0.99292  0.32203  1.0000
  H   H345      1.0  0.99812  0.21161  0.51152  1.0000
  C   C205      1.0  0.21137  0.39726  0.56129  1.0000
  C   C206      1.0  0.22252  0.02028  0.42786  1.0000
  H   H346      1.0  0.12041  0.23132  0.53995  1.0000
  C   C207      1.0  0.13624  0.45156  0.39696  1.0000
  C   C208      1.0  0.99485  0.37161  0.45120  1.0000
  C   C209      1.0  0.15148  0.41866  0.62678  1.0000
  H   H347      1.0  0.22030  0.33414  0.60535  1.0000
  H   H348      1.0  0.18545  0.03129  0.48598  1.0000
  H   H349      1.0  0.01488  0.42321  0.58632  1.0000
  Fe  Fe32      1.0  0.22454  0.45595  0.60709  1.0000
  H   H350      1.0  0.10039  0.25321  0.58642  1.0000
  H   H351      1.0  0.03746  0.14828  0.61091  1.0000
  H   H352      1.0  0.21781  0.07135  0.45515  1.0000
  C   C210      1.0  0.16509  0.46069  0.59966  1.0000
  C   C211      1.0  0.00139  0.45784  0.64135  1.0000
  C   C212      1.0  0.11119  0.26370  0.58390  1.0000
  C   C213      1.0  0.13786  0.23435  0.59037  1.0000
  H   H353      1.0  0.12922  0.26293  0.54520  1.0000
  C   C214      1.0  0.14507  0.38801  0.38530  1.0000
  H   H354      1.0  0.12485  0.22640  0.59596  1.0000
  H   H355      1.0  0.04613  0.11306  0.44339  1.0000
  C   C215      1.0  0.23596  0.04909  0.40753  1.0000
  H   H356      1.0  0.99579  0.34637  0.60790  1.0000
  H   H357      1.0  0.18741  0.39661  0.41760  1.0000
  H   H358      1.0  0.05135  0.10875  0.46826  1.0000
  C   C216      1.0  0.14313  0.39363  0.40619  1.0000
  N   N16       1.0  0.13207  0.25368  0.57656  1.0000
  H   H359      1.0  0.15746  0.40295  0.43558  1.0000
  H   H360      1.0  0.05078  0.19796  0.64175  1.0000
  H   H361      1.0  0.21495  0.45836  0.51663  1.0000
  C   C217      1.0  0.13419  0.42991  0.39630  1.0000
  H   H362      1.0  0.13285  0.45778  0.62822  1.0000
  H   H363      1.0  0.16029  0.38787  0.37649  1.0000
  S   S60       1.0  0.07613  0.39011  0.32210  1.0000
  C   C218      1.0  0.13476  0.00593  0.32823  1.0000
  Fe  Fe33      1.0  0.22232  0.34991  0.50889  1.0000
  S   S61       1.0  0.12306  0.40634  0.33448  1.0000
  H   H364      1.0  0.18397  0.38319  0.39891  1.0000
  C   C219      1.0  0.99830  0.48039  0.36850  1.0000
  C   C220      1.0  0.21373  0.47493  0.51376  1.0000
  C   C221      1.0  0.06305  0.05313  0.63914  1.0000
  H   H365      1.0  0.19786  0.48151  0.51793  1.0000
  H   H366      1.0  0.22631  0.42231  0.54758  1.0000
  H   H367      1.0  0.02049  0.37292  0.62724  1.0000
  C   C222      1.0  0.00978  0.35666  0.46292  1.0000
  C   C223      1.0  0.99161  0.13310  0.51927  1.0000
  C   C224      1.0  0.00125  0.21999  0.52225  1.0000
  C   C225      1.0  0.99304  0.34038  0.39799  1.0000
  C   C226      1.0  0.99687  0.35687  0.64287  1.0000
  S   S62       1.0  0.22785  0.44279  0.57896  1.0000
  H   H368      1.0  0.00276  0.38296  0.44059  1.0000
  H   H369      1.0  0.01710  0.16630  0.60255  1.0000
  H   H370      1.0  0.07365  0.06388  0.63483  1.0000
  C   C227      1.0  0.07430  0.01918  0.32674  1.0000
  H   H371      1.0  0.03953  0.17428  0.60275  1.0000
  H   H372      1.0  0.23084  0.31848  0.58702  1.0000
  C   C228      1.0  0.00463  0.11480  0.64474  1.0000
  H   H373      1.0  0.08745  0.01007  0.31893  1.0000
  H   H374      1.0  0.01504  0.01259  0.32653  1.0000
  H   H375      1.0  0.00547  0.03448  0.33756  1.0000
  H   H376      1.0  0.03353  0.22314  0.61689  1.0000
  H   H377      1.0  0.01620  0.20724  0.61722  1.0000
  C   C229      1.0  0.04176  0.19294  0.63267  1.0000
  H   H378      1.0  0.06774  0.04974  0.33421  1.0000
  Fe  Fe34      1.0  0.23400  0.31442  0.54115  1.0000
  H   H379      1.0  0.01671  0.15266  0.64092  1.0000
  H   H380      1.0  0.19075  0.47978  0.55206  1.0000
  H   H381      1.0  0.98941  0.41997  0.59226  1.0000
  H   H382      1.0  0.99547  0.45918  0.33036  1.0000
  H   H383      1.0  0.03840  0.04465  0.33064  1.0000
  H   H384      1.0  0.99486  0.08792  0.49817  1.0000
  C   C230      1.0  0.23464  0.32694  0.59736  1.0000
  N   N17       1.0  0.03392  0.17427  0.64397  1.0000
  H   H385      1.0  0.17553  0.43264  0.63170  1.0000
  C   C231      1.0  0.01749  0.02796  0.32632  1.0000
  H   H386      1.0  0.98873  0.08372  0.47552  1.0000
  H   H387      1.0  0.99269  0.19405  0.47705  1.0000
  H   H388      1.0  0.98955  0.28855  0.54450  1.0000
  H   H389      1.0  0.98920  0.20854  0.44383  1.0000
  C   C232      1.0  0.05475  0.99729  0.31847  1.0000
  H   H390      1.0  0.98829  0.18711  0.42015  1.0000
  H   H391      1.0  0.98724  0.32648  0.40276  1.0000
  C   C233      1.0  0.07962  0.04002  0.32560  1.0000
  H   H392      1.0  0.14064  0.01787  0.31743  1.0000
  S   S63       1.0  0.20266  0.48429  0.61015  1.0000
  N   N18       1.0  0.05588  0.01881  0.31855  1.0000
  C   C234      1.0  0.99512  0.45406  0.31625  1.0000
  H   H393      1.0  0.20689  0.48362  0.56764  1.0000
  C   C235      1.0  0.98724  0.45550  0.63062  1.0000
  C   C236      1.0  0.07074  0.03421  0.65343  1.0000
  H   H394      1.0  0.10845  0.03398  0.69449  1.0000
  C   C237      1.0  0.11354  0.21086  0.90417  1.0000
  C   C238      1.0  0.04409  0.10443  0.65105  1.0000
  H   H395      1.0  0.15299  0.20093  0.90757  1.0000
  Fe  Fe35      1.0  0.03114  0.08600  0.73797  1.0000
  S   S64       1.0  0.02197  0.11820  0.72496  1.0000
  S   S65       1.0  0.06374  0.07201  0.73312  1.0000
  C   C239      1.0  0.99161  0.20569  0.95947  1.0000
  H   H396      1.0  0.18619  0.00669  0.85103  1.0000
  C   C240      1.0  0.00720  0.46496  0.82060  1.0000
  S   S66       1.0  0.00832  0.07550  0.72588  1.0000
  S   S67       1.0  0.01218  0.08858  0.76798  1.0000
  N   N19       1.0  0.04008  0.42773  0.86850  1.0000
  H   H397      1.0  0.07282  0.45972  0.91667  1.0000
  H   H398      1.0  0.12654  0.18458  0.92404  1.0000
  C   C241      1.0  0.02587  0.19356  0.96752  1.0000
  Fe  Fe36      1.0  0.99967  0.21194  0.87779  1.0000
  S   S68       1.0  0.02888  0.19567  0.88701  1.0000
  H   H399      1.0  0.00331  0.45329  0.88155  1.0000
  C   C242      1.0  0.99566  0.17574  0.79169  1.0000
  S   S69       1.0  0.11759  0.23898  0.95379  1.0000
  H   H400      1.0  0.00265  0.21476  0.92720  1.0000
  H   H401      1.0  0.12884  0.27585  0.95810  1.0000
  S   S70       1.0  0.09306  0.20144  0.96280  1.0000
  H   H402      1.0  0.02539  0.14956  0.68301  1.0000
  S   S71       1.0  0.15168  0.18871  0.95424  1.0000
  Fe  Fe37      1.0  0.08723  0.23428  0.95135  1.0000
  S   S72       1.0  0.07231  0.24790  0.92446  1.0000
  C   C243      1.0  0.07790  0.01835  0.68689  1.0000
  H   H403      1.0  0.12626  0.46533  0.67663  1.0000
  H   H404      1.0  0.02049  0.22817  0.94214  1.0000
  Fe  Fe38      1.0  0.15211  0.36987  0.95464  1.0000
  S   S73       1.0  0.15663  0.39424  0.92770  1.0000
  S   S74       1.0  0.15383  0.33897  0.94724  1.0000
  H   H405      1.0  0.06930  0.47166  0.88104  1.0000
  S   S75       1.0  0.15173  0.42460  0.95917  1.0000
  H   H406      1.0  0.98715  0.35070  0.75924  1.0000
  Fe  Fe39      1.0  0.13132  0.41313  0.94474  1.0000
  S   S76       1.0  0.10466  0.43557  0.93551  1.0000
  Fe  Fe40      1.0  0.17664  0.40334  0.94487  1.0000
  H   H407      1.0  0.07993  0.02083  0.70162  1.0000
  H   H408      1.0  0.01321  0.46211  0.89935  1.0000
  H   H409      1.0  0.03575  0.03749  0.67830  1.0000
  S   S77       1.0  0.20816  0.98584  0.81684  1.0000
  H   H410      1.0  0.18415  0.19868  0.97728  1.0000
  H   H411      1.0  0.10138  0.21323  0.89531  1.0000
  C   C244      1.0  0.16740  0.05244  0.90114  1.0000
  H   H412      1.0  0.06054  0.44862  0.85602  1.0000
  C   C245      1.0  0.19800  0.14493  0.96783  1.0000
  C   C246      1.0  0.10224  0.44266  0.91006  1.0000
  C   C247      1.0  0.11758  0.43674  0.89487  1.0000
  C   C248      1.0  0.11552  0.44350  0.87468  1.0000
  C   C249      1.0  0.02850  0.13566  0.81726  1.0000
  C   C250      1.0  0.08277  0.46199  0.88478  1.0000
  C   C251      1.0  0.08476  0.45515  0.90496  1.0000
  H   H413      1.0  0.13109  0.42709  0.89866  1.0000
  C   C252      1.0  0.03368  0.43791  0.88663  1.0000
  S   S78       1.0  0.12540  0.38823  0.97052  1.0000
  C   C253      1.0  0.14067  0.32026  0.96205  1.0000
  H   H414      1.0  0.17822  0.23051  0.94765  1.0000
  H   H415      1.0  0.05660  0.16032  0.66230  1.0000
  H   H416      1.0  0.04352  0.16788  0.83344  1.0000
  H   H417      1.0  0.08447  0.39725  0.88077  1.0000
  H   H418      1.0  0.15949  0.24423  0.90250  1.0000
  H   H419      1.0  0.11824  0.05474  0.67889  1.0000
  H   H420      1.0  0.01400  0.44128  0.80298  1.0000
  H   H421      1.0  0.02525  0.47914  0.74784  1.0000
  H   H422      1.0  0.04583  0.14314  0.65380  1.0000
  H   H423      1.0  0.05954  0.02406  0.65662  1.0000
  H   H424      1.0  0.09282  0.06135  0.65777  1.0000
  C   C254      1.0  0.05985  0.05261  0.68235  1.0000
  S   S79       1.0  0.09639  0.46483  0.84408  1.0000
  H   H425      1.0  0.02263  0.13204  0.80485  1.0000
  C   C255      1.0  0.18629  0.07153  0.83325  1.0000
  H   H426      1.0  0.13898  0.47866  0.95577  1.0000
  S   S80       1.0  0.00369  0.14777  0.76688  1.0000
  H   H427      1.0  0.01775  0.39510  0.88506  1.0000
  C   C256      1.0  0.01718  0.45650  0.88486  1.0000
  H   H428      1.0  0.99499  0.41964  0.68036  1.0000
  C   C257      1.0  0.99421  0.47314  0.83627  1.0000
  C   C258      1.0  0.04056  0.21025  0.89771  1.0000
  C   C259      1.0  0.03722  0.23113  0.89280  1.0000
  C   C260      1.0  0.04697  0.24251  0.90118  1.0000
  C   C261      1.0  0.05974  0.23313  0.91488  1.0000
  C   C262      1.0  0.06275  0.21225  0.92011  1.0000
  C   C263      1.0  0.05346  0.20083  0.91129  1.0000
  H   H429      1.0  0.02747  0.23854  0.88216  1.0000
  H   H430      1.0  0.04458  0.25864  0.89700  1.0000
  H   H431      1.0  0.07248  0.20481  0.93066  1.0000
  H   H432      1.0  0.05606  0.18468  0.91518  1.0000
  C   C264      1.0  0.18465  0.15950  0.95747  1.0000
  C   C265      1.0  0.16730  0.16965  0.96789  1.0000
  H   H433      1.0  0.18786  0.16296  0.94131  1.0000
  H   H434      1.0  0.01153  0.17138  0.86513  1.0000
  H   H435      1.0  0.00211  0.41807  0.89150  1.0000
  C   C266      1.0  0.03871  0.04711  0.68792  1.0000
  C   C267      1.0  0.00072  0.13656  0.87135  1.0000
  C   C268      1.0  0.04928  0.44203  0.85132  1.0000
  H   H436      1.0  0.06534  0.44515  0.82071  1.0000
  H   H437      1.0  0.07207  0.42113  0.83481  1.0000
  C   C269      1.0  0.09822  0.45629  0.86956  1.0000
  H   H438      1.0  0.04850  0.42772  0.82569  1.0000
  H   H439      1.0  0.09440  0.05918  0.69406  1.0000
  H   H440      1.0  0.16717  0.41437  0.65182  1.0000
  H   H441      1.0  0.03195  0.10456  0.68235  1.0000
  C   C270      1.0  0.99784  0.20162  0.93775  1.0000
  C   C271      1.0  0.07661  0.00368  0.74150  1.0000
  C   C272      1.0  0.09236  0.01443  0.73781  1.0000
  C   C273      1.0  0.08829  0.03544  0.73590  1.0000
  C   C274      1.0  0.06854  0.04567  0.73766  1.0000
  C   C275      1.0  0.05287  0.03481  0.74185  1.0000
  C   C276      1.0  0.05691  0.01390  0.74371  1.0000
  H   H442      1.0  0.03400  0.14997  0.81147  1.0000
  H   H443      1.0  0.10046  0.04380  0.73280  1.0000
  H   H444      1.0  0.03762  0.04253  0.74352  1.0000
  H   H445      1.0  0.04467  0.00566  0.74666  1.0000
  H   H446      1.0  0.21134  0.13725  0.95968  1.0000
  C   C277      1.0  0.14620  0.21707  0.90629  1.0000
  N   N20       1.0  0.13015  0.22210  0.89338  1.0000
  C   C278      1.0  0.12233  0.24428  0.89180  1.0000
  C   C279      1.0  0.13907  0.21656  0.87302  1.0000
  C   C280      1.0  0.16380  0.22872  0.89927  1.0000
  C   C281      1.0  0.10594  0.25294  0.87889  1.0000
  C   C282      1.0  0.12487  0.21103  0.86122  1.0000
  H   H447      1.0  0.11645  0.24821  0.90702  1.0000
  H   H448      1.0  0.13441  0.25319  0.88519  1.0000
  H   H449      1.0  0.14622  0.22893  0.86321  1.0000
  H   H450      1.0  0.15137  0.20346  0.87419  1.0000
  H   H451      1.0  0.17595  0.22130  0.90789  1.0000
  H   H452      1.0  0.16999  0.22894  0.88316  1.0000
  H   H453      1.0  0.09968  0.26850  0.88143  1.0000
  H   H454      1.0  0.09324  0.24469  0.88282  1.0000
  H   H455      1.0  0.11217  0.25393  0.86271  1.0000
  H   H456      1.0  0.12010  0.19647  0.86815  1.0000
  H   H457      1.0  0.13293  0.20937  0.84589  1.0000
  H   H458      1.0  0.11144  0.22248  0.85951  1.0000
  N   N21       1.0  0.01566  0.14361  0.85347  1.0000
  C   C283      1.0  0.99279  0.42965  0.66650  1.0000
  C   C284      1.0  0.03610  0.13376  0.85791  1.0000
  C   C285      1.0  0.01160  0.13677  0.83549  1.0000
  C   C286      1.0  0.01277  0.16615  0.85066  1.0000
  S   S81       1.0  0.17393  0.37788  0.97061  1.0000
  C   C287      1.0  0.04250  0.13998  0.87554  1.0000
  C   C288      1.0  0.10427  0.04852  0.68485  1.0000
  C   C289      1.0  0.07484  0.41207  0.87777  1.0000
  H   H459      1.0  0.15571  0.06162  0.89279  1.0000
  H   H460      1.0  0.05940  0.10082  0.65348  1.0000
  H   H461      1.0  0.04796  0.13662  0.84487  1.0000
  H   H462      1.0  0.03718  0.11716  0.86099  1.0000
  C   C290      1.0  0.00432  0.44485  0.65921  1.0000
  C   C291      1.0  0.99510  0.47538  0.74720  1.0000
  H   H463      1.0  0.12749  0.43893  0.86298  1.0000
  H   H464      1.0  0.21467  0.02794  0.93264  1.0000
  C   C292      1.0  0.98936  0.15938  0.78707  1.0000
  C   C293      1.0  0.12667  0.48297  0.96793  1.0000
  C   C294      1.0  0.16080  0.23295  0.97766  1.0000
  H   H465      1.0  0.04254  0.15631  0.87313  1.0000
  H   H466      1.0  0.03314  0.13535  0.89009  1.0000
  H   H467      1.0  0.05802  0.13242  0.87678  1.0000
  C   C295      1.0  0.18846  0.02254  0.84810  1.0000
  H   H468      1.0  0.00211  0.14225  0.88485  1.0000
  H   H469      1.0  0.00510  0.16735  0.69225  1.0000
  H   H470      1.0  0.02241  0.46888  0.87342  1.0000
  H   H471      1.0  0.19954  0.07902  0.83005  1.0000
  H   H472      1.0  0.99845  0.14657  0.82986  1.0000
  C   C296      1.0  0.17013  0.24230  0.95648  1.0000
  H   H473      1.0  0.02871  0.42723  0.90022  1.0000
  S   S82       1.0  0.99333  0.22407  0.84662  1.0000
  C   C297      1.0  0.00937  0.40978  0.87910  1.0000
  H   H474      1.0  0.03610  0.03938  0.70373  1.0000
  C   C298      1.0  0.02210  0.17215  0.97669  1.0000
  C   C299      1.0  0.02141  0.17938  0.66342  1.0000
  H   H475      1.0  0.04518  0.22919  0.95991  1.0000
  Fe  Fe41      1.0  0.12253  0.20640  0.96786  1.0000
  C   C300      1.0  0.02257  0.42205  0.86246  1.0000
  H   H476      1.0  0.02761  0.41305  0.85019  1.0000
  H   H477      1.0  0.21729  0.04701  0.84351  1.0000
  H   H478      1.0  0.18980  0.05849  0.82544  1.0000
  C   C301      1.0  0.00383  0.44769  0.81497  1.0000
  Fe  Fe42      1.0  0.00109  0.12038  0.75436  1.0000
  S   S83       1.0  0.02213  0.44798  0.67247  1.0000
  C   C302      1.0  0.05477  0.40896  0.87354  1.0000
  H   H479      1.0  0.04650  0.44313  0.89014  1.0000
  H   H480      1.0  0.18024  0.25265  0.95685  1.0000
  H   H481      1.0  0.00761  0.12147  0.83973  1.0000
  H   H482      1.0  0.05812  0.39973  0.86144  1.0000
  H   H483      1.0  0.06359  0.05460  0.69662  1.0000
  H   H484      1.0  0.17437  0.08231  0.82635  1.0000
  H   H485      1.0  0.02750  0.06102  0.68613  1.0000
  H   H486      1.0  0.06389  0.01195  0.69016  1.0000
  H   H487      1.0  0.99717  0.40663  0.87258  1.0000
  H   H488      1.0  0.00959  0.18828  0.93633  1.0000
  N   N22       1.0  0.00780  0.20977  0.96897  1.0000
  C   C303      1.0  0.13973  0.30371  0.95365  1.0000
  C   C304      1.0  0.17894  0.06621  0.85601  1.0000
  H   H489      1.0  0.21675  0.37513  0.95217  1.0000
  H   H490      1.0  0.00881  0.18108  0.78271  1.0000
  H   H491      1.0  0.01152  0.16730  0.96939  1.0000
  N   N23       1.0  0.07586  0.03782  0.67245  1.0000
  H   H492      1.0  0.03000  0.18617  0.67151  1.0000
  H   H493      1.0  0.03000  0.19037  0.84046  1.0000
  H   H494      1.0  0.17676  0.03113  0.83945  1.0000
  H   H495      1.0  0.01271  0.43555  0.85611  1.0000
  C   C305      1.0  0.01400  0.22927  0.95803  1.0000
  H   H496      1.0  0.14663  0.30296  0.93827  1.0000
  H   H497      1.0  0.99813  0.17289  0.84600  1.0000
  H   H498      1.0  0.21671  0.01468  0.96796  1.0000
  C   C306      1.0  0.07609  0.47445  0.97080  1.0000
  C   C307      1.0  0.05925  0.43322  0.83221  1.0000
  H   H499      1.0  0.99654  0.03940  0.70421  1.0000
  H   H500      1.0  0.03789  0.45502  0.84661  1.0000
  H   H501      1.0  0.03737  0.19644  0.97520  1.0000
  C   C308      1.0  0.18861  0.05310  0.88911  1.0000
  Fe  Fe43      1.0  0.99756  0.10782  0.71525  1.0000
  H   H502      1.0  0.17683  0.08046  0.86191  1.0000
  H   H503      1.0  0.15813  0.25106  0.94827  1.0000
  C   C309      1.0  0.11972  0.18804  0.91025  1.0000
  H   H504      1.0  0.00046  0.06266  0.66178  1.0000
  C   C310      1.0  0.02858  0.10663  0.66738  1.0000
  C   C311      1.0  0.02837  0.17671  0.83525  1.0000
  H   H505      1.0  0.08321  0.42099  0.86486  1.0000
  H   H506      1.0  0.07294  0.41902  0.89128  1.0000
  H   H507      1.0  0.08811  0.46748  0.96004  1.0000
  H   H508      1.0  0.13029  0.18116  0.89826  1.0000
  H   H509      1.0  0.10623  0.18082  0.91383  1.0000
  H   H510      1.0  0.10635  0.21671  0.91822  1.0000
  H   H511      1.0  0.00262  0.15575  0.67239  1.0000
  C   C312      1.0  0.09504  0.04621  0.66711  1.0000
  C   C313      1.0  0.18621  0.02949  0.86831  1.0000
  H   H512      1.0  0.03333  0.19358  0.95171  1.0000
  C   C314      1.0  0.12973  0.28827  0.96489  1.0000
  C   C315      1.0  0.00882  0.11207  0.66424  1.0000
  S   S84       1.0  0.20518  0.41568  0.93185  1.0000
  H   H513      1.0  0.10760  0.00662  0.73614  1.0000
  H   H514      1.0  0.02353  0.18132  0.82041  1.0000
  H   H515      1.0  0.00063  0.46784  0.70900  1.0000
  H   H516      1.0  0.02422  0.45542  0.74211  1.0000
  H   H517      1.0  0.17128  0.98982  0.80217  1.0000
  C   C316      1.0  0.22622  0.40383  0.94294  1.0000
  H   H518      1.0  0.00430  0.43803  0.73226  1.0000
  H   H519      1.0  0.04829  0.39921  0.88714  1.0000
  H   H520      1.0  0.13973  0.21944  0.92186  1.0000
  H   H521      1.0  0.19505  0.01754  0.87797  1.0000
  H   H522      1.0  0.04102  0.12338  0.82049  1.0000
  N   N24       1.0  0.19187  0.04958  0.86774  1.0000
  H   H523      1.0  0.05905  0.06789  0.67336  1.0000
  H   H524      1.0  0.10669  0.03696  0.65765  1.0000
  C   C317      1.0  0.03003  0.23629  0.96622  1.0000
  C   C318      1.0  0.09491  0.00175  0.68013  1.0000
  H   H525      1.0  0.16363  0.06271  0.85791  1.0000
  Fe  Fe44      1.0  0.02797  0.47956  0.66279  1.0000
  C   C319      1.0  0.22842  0.38357  0.95155  1.0000
  H   H526      1.0  0.99327  0.47182  0.76376  1.0000
  H   H527      1.0  0.19902  0.04195  0.89776  1.0000
  H   H528      1.0  0.09290  0.99719  0.66630  1.0000
  H   H529      1.0  0.11969  0.47071  0.72218  1.0000
  S   S85       1.0  0.98926  0.11633  0.68429  1.0000
  C   C320      1.0  0.01776  0.47153  0.73952  1.0000
  H   H530      1.0  0.02876  0.25281  0.96208  1.0000
  H   H531      1.0  0.14290  0.46977  0.89863  1.0000
  H   H532      1.0  0.00265  0.41773  0.76321  1.0000
  H   H533      1.0  0.16606  0.05851  0.91514  1.0000
  H   H534      1.0  0.00351  0.11990  0.87526  1.0000
  H   H535      1.0  0.20344  0.02287  0.83893  1.0000
  H   H536      1.0  0.01975  0.47195  0.81273  1.0000
  Fe  Fe45      1.0  0.98826  0.08045  0.75484  1.0000
  C   C321      1.0  0.12666  0.47682  0.66342  1.0000
  H   H537      1.0  0.17033  0.02926  0.87514  1.0000
  H   H538      1.0  0.19197  0.06800  0.88970  1.0000
  S   S86       1.0  0.16711  0.46922  0.66192  1.0000
  C   C322      1.0  0.21382  0.04862  0.85953  1.0000
  C   C323      1.0  0.99103  0.43134  0.76354  1.0000
  C   C324      1.0  0.01337  0.16181  0.67837  1.0000
  H   H539      1.0  0.11015  0.48323  0.89221  1.0000
  H   H540      1.0  0.06488  0.46438  0.97665  1.0000
  H   H541      1.0  0.21344  0.08110  0.85740  1.0000
  H   H542      1.0  0.14654  0.48332  0.87379  1.0000
  H   H543      1.0  0.15317  0.22092  0.97583  1.0000
  H   H544      1.0  0.10980  0.00608  0.67800  1.0000
  C   C325      1.0  0.98970  0.44215  0.74192  1.0000
  H   H545      1.0  0.16454  0.03682  0.90586  1.0000
  H   H546      1.0  0.00803  0.19079  0.66066  1.0000
  H   H547      1.0  0.02150  0.47805  0.72347  1.0000
  H   H548      1.0  0.00102  0.24161  0.95679  1.0000
  H   H549      1.0  0.09793  0.47538  0.74048  1.0000
  H   H550      1.0  0.20035  0.21654  0.96918  1.0000
  C   C326      1.0  0.98714  0.43893  0.82463  1.0000
  H   H551      1.0  0.99002  0.19798  0.81100  1.0000
  H   H552      1.0  0.03643  0.16163  0.97448  1.0000
  C   C327      1.0  0.10645  0.48205  0.72613  1.0000
  H   H553      1.0  0.00035  0.35742  0.65771  1.0000
  H   H554      1.0  0.11629  0.45577  0.96867  1.0000
  H   H555      1.0  0.22740  0.99141  0.94798  1.0000
  H   H556      1.0  0.99578  0.44013  0.77284  1.0000
  H   H557      1.0  0.22257  0.03499  0.86721  1.0000
  S   S87       1.0  0.22709  0.00494  0.90098  1.0000
  H   H558      1.0  0.09459  0.48332  0.66538  1.0000
  C   C328      1.0  0.05098  0.15784  0.64915  1.0000
  C   C329      1.0  0.22835  0.03235  0.92398  1.0000
  C   C330      1.0  0.11896  0.46390  0.97985  1.0000
  H   H559      1.0  0.22579  0.06521  0.87704  1.0000
  C   C331      1.0  0.22298  0.06652  0.86153  1.0000
  S   S88       1.0  0.23127  0.07335  0.97954  1.0000
  H   H560      1.0  0.22910  0.05379  0.94251  1.0000
  H   H561      1.0  0.09484  0.98828  0.69206  1.0000
  C   C332      1.0  0.23648  0.04700  0.92958  1.0000
  C   C333      1.0  0.14507  0.48161  0.65290  1.0000
  H   H562      1.0  0.15187  0.43820  0.64836  1.0000
  C   C334      1.0  0.22641  0.01289  0.97929  1.0000
  S   S89       1.0  0.07343  0.24304  0.98112  1.0000
  S   S90       1.0  0.02995  0.66679  0.13112  1.0000
  Fe  Fe46      1.0  0.10127  0.71044  0.03938  1.0000
  S   S91       1.0  0.13483  0.70329  0.03162  1.0000
  S   S92       1.0  0.08298  0.72184  0.06695  1.0000
  C   C335      1.0  0.99727  0.76144  0.19647  1.0000
  C   C336      1.0  0.04990  0.71191  0.21164  1.0000
  Fe  Fe47      1.0  0.12899  0.67795  0.01874  1.0000
  S   S93       1.0  0.14886  0.64749  0.01918  1.0000
  Fe  Fe48      1.0  0.13077  0.72219  0.00169  1.0000
  H   H563      1.0  0.18148  0.96475  0.26743  1.0000
  S   S94       1.0  0.09600  0.68352  0.02923  1.0000
  S   S95       1.0  0.09758  0.73111  0.01033  1.0000
  H   H564      1.0  0.02521  0.71000  0.11881  1.0000
  H   H565      1.0  0.98936  0.74493  0.08096  1.0000
  H   H566      1.0  0.00570  0.77084  0.18475  1.0000
  S   S96       1.0  0.00856  0.78136  0.22206  1.0000
  H   H567      1.0  0.04697  0.73131  0.09432  1.0000
  S   S97       1.0  0.19481  0.92988  0.15415  1.0000
  H   H568      1.0  0.14036  0.87929  0.25894  1.0000
  H   H569      1.0  0.20936  0.58651  0.06592  1.0000
  H   H570      1.0  0.18516  0.56945  0.04214  1.0000
  S   S98       1.0  0.16808  0.48512  0.07299  1.0000
  Fe  Fe49      1.0  0.13097  0.95004  0.25681  1.0000
  S   S99       1.0  0.12329  0.92965  0.28580  1.0000
  S   S100      1.0  0.16376  0.94665  0.24318  1.0000
  Fe  Fe50      1.0  0.09623  0.92718  0.27406  1.0000
  S   S101      1.0  0.09033  0.89525  0.27993  1.0000
  S   S102      1.0  0.10514  0.94581  0.24408  1.0000
  Fe  Fe51      1.0  0.00565  0.79854  0.24819  1.0000
  H   H571      1.0  0.05650  0.67817  0.19912  1.0000
  Fe  Fe52      1.0  0.01539  0.83776  0.25610  1.0000
  S   S103      1.0  0.11496  0.97771  0.26920  1.0000
  S   S104      1.0  0.02678  0.86693  0.24234  1.0000
  Fe  Fe53      1.0  0.01327  0.80220  0.28994  1.0000
  H   H572      1.0  0.16931  0.59295  0.10849  1.0000
  S   S105      1.0  0.03180  0.80591  0.25890  1.0000
  Fe  Fe54      1.0  0.09453  0.70363  0.99955  1.0000
  Fe  Fe55      1.0  0.13527  0.53650  0.05762  1.0000
  S   S106      1.0  0.16738  0.52944  0.04354  1.0000
  S   S107      1.0  0.11474  0.56633  0.05155  1.0000
  S   S108      1.0  0.99850  0.83437  0.28751  1.0000
  H   H573      1.0  0.15171  0.61985  0.09375  1.0000
  N   N25       1.0  0.18098  0.95747  0.29961  1.0000
  H   H574      1.0  0.17041  0.55678  0.08021  1.0000
  C   C337      1.0  0.13471  0.87954  0.19854  1.0000
  S   S109      1.0  0.14130  0.52510  0.08897  1.0000
  S   S110      1.0  0.12721  0.50735  0.05452  1.0000
  H   H575      1.0  0.98926  0.74584  0.17582  1.0000
  C   C338      1.0  0.22103  0.52265  0.07407  1.0000
  H   H576      1.0  0.21282  0.94724  0.29536  1.0000
  C   C339      1.0  0.09868  0.61512  0.99155  1.0000
  S   S111      1.0  0.22500  0.83939  0.00756  1.0000
  H   H577      1.0  0.03246  0.86885  0.30752  1.0000
  C   C340      1.0  0.02135  0.69665  0.18452  1.0000
  H   H578      1.0  0.21047  0.52770  0.04598  1.0000
  H   H579      1.0  0.01406  0.49894  0.17577  1.0000
  Fe  Fe56      1.0  0.10529  0.95697  0.29722  1.0000
  Fe  Fe57      1.0  0.22636  0.93225  0.13786  1.0000
  C   C341      1.0  0.07253  0.88783  0.26929  1.0000
  C   C342      1.0  0.06095  0.90143  0.25655  1.0000
  C   C343      1.0  0.04699  0.89484  0.24832  1.0000
  C   C344      1.0  0.04421  0.87475  0.25314  1.0000
  C   C345      1.0  0.05576  0.86120  0.26593  1.0000
  C   C346      1.0  0.07006  0.86768  0.27373  1.0000
  H   H580      1.0  0.06280  0.91699  0.25296  1.0000
  H   H581      1.0  0.03823  0.90536  0.23827  1.0000
  H   H582      1.0  0.05392  0.84564  0.26949  1.0000
  H   H583      1.0  0.07935  0.85694  0.28309  1.0000
  C   C347      1.0  0.18643  0.93552  0.17858  1.0000
  C   C348      1.0  0.19976  0.93662  0.19083  1.0000
  C   C349      1.0  0.19259  0.94021  0.21054  1.0000
  C   C350      1.0  0.17206  0.94287  0.21810  1.0000
  C   C351      1.0  0.15869  0.94224  0.20569  1.0000
  C   C352      1.0  0.16588  0.93851  0.18603  1.0000
  H   H584      1.0  0.21562  0.93427  0.18527  1.0000
  H   H585      1.0  0.20303  0.94072  0.22002  1.0000
  H   H586      1.0  0.14285  0.94455  0.21125  1.0000
  H   H587      1.0  0.15548  0.93799  0.17651  1.0000
  Fe  Fe58      1.0  0.99778  0.67757  0.14343  1.0000
  H   H588      1.0  0.08523  0.67872  0.07637  1.0000
  H   H589      1.0  0.15489  0.89881  0.25016  1.0000
  N   N26       1.0  0.12738  0.88529  0.21901  1.0000
  H   H590      1.0  0.15101  0.90242  0.21658  1.0000
  H   H591      1.0  0.05404  0.64558  0.02637  1.0000
  H   H592      1.0  0.04394  0.49099  0.12090  1.0000
  H   H593      1.0  0.13531  0.91042  0.18190  1.0000
  C   C353      1.0  0.99861  0.72985  0.08070  1.0000
  S   S112      1.0  0.07733  0.95284  0.28804  1.0000
  H   H594      1.0  0.19065  0.56742  0.12601  1.0000
  H   H595      1.0  0.02735  0.72822  0.19449  1.0000
  H   H596      1.0  0.99611  0.72155  0.09621  1.0000
  C   C354      1.0  0.13862  0.62527  0.02731  1.0000
  C   C355      1.0  0.15004  0.60718  0.02245  1.0000
  C   C356      1.0  0.14289  0.58900  0.02978  1.0000
  C   C357      1.0  0.12421  0.58882  0.04195  1.0000
  C   C358      1.0  0.11256  0.60699  0.04635  1.0000
  C   C359      1.0  0.11977  0.62515  0.03915  1.0000
  H   H597      1.0  0.16459  0.60717  0.01320  1.0000
  H   H598      1.0  0.15183  0.57512  0.02603  1.0000
  H   H599      1.0  0.09806  0.60695  0.05571  1.0000
  H   H600      1.0  0.11092  0.63896  0.04316  1.0000
  C   C360      1.0  0.98811  0.74712  0.19135  1.0000
  H   H601      1.0  0.17179  0.95949  0.12560  1.0000
  H   H602      1.0  0.10284  0.61327  0.00662  1.0000
  N   N27       1.0  0.04157  0.70292  0.17961  1.0000
  C   C361      1.0  0.18936  0.67552  0.02967  1.0000
  C   C362      1.0  0.04342  0.68231  0.11212  1.0000
  C   C363      1.0  0.06028  0.67356  0.09997  1.0000
  C   C364      1.0  0.07211  0.68558  0.08552  1.0000
  C   C365      1.0  0.06751  0.70642  0.08366  1.0000
  C   C366      1.0  0.05059  0.71518  0.09577  1.0000
  C   C367      1.0  0.03828  0.70315  0.10963  1.0000
  H   H603      1.0  0.06433  0.65743  0.10188  1.0000
  C   C368      1.0  0.18619  0.67630  0.00807  1.0000
  C   C369      1.0  0.99200  0.71974  0.06577  1.0000
  C   C370      1.0  0.21817  0.67772  0.98438  1.0000
  H   H604      1.0  0.99302  0.73008  0.05114  1.0000
  H   H605      1.0  0.18134  0.55432  0.11111  1.0000
  C   C371      1.0  0.14179  0.89317  0.24782  1.0000
  H   H606      1.0  0.01206  0.51252  0.15149  1.0000
  H   H607      1.0  0.20865  0.48644  0.04454  1.0000
  S   S113      1.0  0.19784  0.51957  0.08913  1.0000
  H   H608      1.0  0.04584  0.66173  0.17418  1.0000
  H   H609      1.0  0.02180  0.65939  0.08896  1.0000
  C   C372      1.0  0.11168  0.90392  0.21888  1.0000
  H   H610      1.0  0.05336  0.88955  0.31033  1.0000
  H   H611      1.0  0.04444  0.50422  0.14073  1.0000
  H   H612      1.0  0.08845  0.87162  0.22971  1.0000
  H   H613      1.0  0.20518  0.67148  0.03148  1.0000
  H   H614      1.0  0.20601  0.70561  0.01162  1.0000
  H   H615      1.0  0.10705  0.64697  0.00286  1.0000
  C   C373      1.0  0.09593  0.90660  0.20516  1.0000
  H   H616      1.0  0.04987  0.84559  0.31160  1.0000
  C   C374      1.0  0.19060  0.56581  0.11037  1.0000
  H   H617      1.0  0.10345  0.90490  0.23433  1.0000
  C   C375      1.0  0.99655  0.69294  0.04624  1.0000
  H   H618      1.0  0.10557  0.85538  0.21375  1.0000
  H   H619      1.0  0.99716  0.70510  0.03294  1.0000
  H   H620      1.0  0.07161  0.65581  0.17602  1.0000
  H   H621      1.0  0.14169  0.58653  0.10387  1.0000
  C   C376      1.0  0.06973  0.64117  0.01925  1.0000
  H   H622      1.0  0.14879  0.96221  0.30391  1.0000
  H   H623      1.0  0.09892  0.84707  0.23986  1.0000
  Fe  Fe59      1.0  0.17287  0.51571  0.07462  1.0000
  H   H624      1.0  0.14679  0.55957  0.10787  1.0000
  H   H625      1.0  0.11453  0.87167  0.24867  1.0000
  H   H626      1.0  0.23259  0.68397  0.00799  1.0000
  H   H627      1.0  0.19704  0.97070  0.13572  1.0000
  H   H628      1.0  0.00331  0.68947  0.09518  1.0000
  C   C377      1.0  0.04229  0.71888  0.19144  1.0000
  H   H629      1.0  0.14641  0.89102  0.16754  1.0000
  H   H630      1.0  0.04701  0.72488  0.21966  1.0000
  H   H631      1.0  0.14926  0.63402  0.06957  1.0000
  Fe  Fe60      1.0  0.23140  0.80993  0.99639  1.0000
  H   H632      1.0  0.23592  0.51866  0.09943  1.0000
  H   H633      1.0  0.11892  0.91748  0.21407  1.0000
  H   H634      1.0  0.16053  0.96937  0.10385  1.0000
  H   H635      1.0  0.04246  0.70003  0.22168  1.0000
  C   C378      1.0  0.16824  0.75422  0.01071  1.0000
  H   H636      1.0  0.03636  0.73715  0.13508  1.0000
  H   H637      1.0  0.15965  0.89596  0.18500  1.0000
  H   H638      1.0  0.00897  0.49825  0.12491  1.0000
  Fe  Fe61      1.0  0.08825  0.97182  0.25897  1.0000
  H   H639      1.0  0.13212  0.85482  0.23488  1.0000
  C   C379      1.0  0.04513  0.71174  0.15762  1.0000
  H   H640      1.0  0.04360  0.70095  0.14835  1.0000
  H   H641      1.0  0.20625  0.56021  0.10397  1.0000
  H   H642      1.0  0.13874  0.61183  0.07706  1.0000
  H   H643      1.0  0.03079  0.70098  0.07187  1.0000
  C   C380      1.0  0.10226  0.86034  0.22848  1.0000
  C   C381      1.0  0.05972  0.66818  0.17124  1.0000
  Fe  Fe62      1.0  0.13588  0.49542  0.08490  1.0000
  S   S114      1.0  0.21124  0.78653  0.01038  1.0000
  H   H644      1.0  0.05795  0.80413  0.31072  1.0000
  H   H645      1.0  0.13131  0.57301  0.09048  1.0000
  H   H646      1.0  0.08576  0.49622  0.98343  1.0000
  H   H647      1.0  0.12859  0.90473  0.25099  1.0000
  C   C382      1.0  0.03302  0.71291  0.04029  1.0000
  C   C383      1.0  0.16298  0.57272  0.07906  1.0000
  H   H648      1.0  0.18132  0.66398  0.03980  1.0000
  H   H649      1.0  0.06067  0.71486  0.15282  1.0000
  H   H650      1.0  0.08119  0.91307  0.21306  1.0000
  C   C384      1.0  0.17147  0.97175  0.11246  1.0000
  H   H651      1.0  0.19521  0.59268  0.03460  1.0000
  H   H652      1.0  0.02691  0.72876  0.04158  1.0000
  S   S115      1.0  0.99093  0.83092  0.24297  1.0000
  C   C385      1.0  0.99810  0.68501  0.08280  1.0000
  H   H653      1.0  0.03314  0.68304  0.05653  1.0000
  C   C386      1.0  0.00672  0.49989  0.16264  1.0000
  C   C387      1.0  0.05801  0.68528  0.18313  1.0000
  C   C388      1.0  0.07058  0.64362  0.99643  1.0000
  H   H654      1.0  0.01435  0.73208  0.07630  1.0000
  H   H655      1.0  0.18899  0.66055  0.00540  1.0000
  H   H656      1.0  0.02999  0.70955  0.02629  1.0000
  H   H657      1.0  0.01034  0.65806  0.06827  1.0000
  C   C389      1.0  0.19689  0.57747  0.04371  1.0000
  C   C390      1.0  0.17136  0.60709  0.06824  1.0000
  N   N28       1.0  0.00301  0.69897  0.06341  1.0000
  N   N29       1.0  0.17804  0.58595  0.07824  1.0000
  C   C391      1.0  0.18186  0.76368  0.01643  1.0000
  C   C392      1.0  0.14496  0.57331  0.09641  1.0000
  C   C393      1.0  0.02525  0.69829  0.05887  1.0000
  H   H658      1.0  0.05224  0.72952  0.18264  1.0000
  H   H659      1.0  0.18276  0.68995  0.03494  1.0000
  C   C394      1.0  0.19745  0.57790  0.06583  1.0000
  H   H660      1.0  0.16909  0.60738  0.05280  1.0000
  H   H661      1.0  0.01317  0.69697  0.21686  1.0000
  C   C395      1.0  0.19349  0.77614  0.00220  1.0000
  H   H662      1.0  0.12271  0.87598  0.19221  1.0000
  H   H663      1.0  0.14584  0.86544  0.19954  1.0000
  C   C396      1.0  0.11981  0.86787  0.23339  1.0000
  H   H664      1.0  0.07468  0.62549  0.02614  1.0000
  H   H665      1.0  0.18342  0.76132  0.03202  1.0000
  H   H666      1.0  0.00460  0.49750  0.28524  1.0000
  H   H667      1.0  0.18314  0.61634  0.06679  1.0000
  H   H668      1.0  0.15948  0.74465  0.02185  1.0000
  H   H669      1.0  0.06420  0.67287  0.15489  1.0000
  H   H670      1.0  0.21187  0.73563  0.98960  1.0000
  C   C397      1.0  0.03095  0.73123  0.15101  1.0000
  C   C398      1.0  0.01511  0.68648  0.20620  1.0000
  C   C399      1.0  0.14524  0.88915  0.22613  1.0000
  H   H671      1.0  0.20299  0.56221  0.07232  1.0000
  H   H672      1.0  0.19367  0.59626  0.09721  1.0000
  H   H673      1.0  0.09376  0.89281  0.20080  1.0000
  C   C400      1.0  0.99565  0.76374  0.21655  1.0000
  C   C401      1.0  0.14450  0.89531  0.18253  1.0000
  H   H674      1.0  0.04949  0.71124  0.03884  1.0000
  H   H675      1.0  0.06627  0.70666  0.20926  1.0000
  H   H676      1.0  0.02552  0.67260  0.21056  1.0000
  H   H677      1.0  0.03041  0.74319  0.15969  1.0000
  H   H678      1.0  0.15695  0.57614  0.06484  1.0000
  H   H679      1.0  0.19110  0.98027  0.31072  1.0000
  C   C402      1.0  0.18251  0.58632  0.09860  1.0000
  H   H680      1.0  0.21138  0.56928  0.03706  1.0000
  S   S116      1.0  0.22850  0.95045  0.10687  1.0000
  H   H681      1.0  0.15783  0.87635  0.22482  1.0000
  H   H682      1.0  0.01566  0.72840  0.15173  1.0000
  H   H683      1.0  0.02028  0.68650  0.17437  1.0000
  H   H684      1.0  0.05901  0.63556  0.99451  1.0000
  C   C403      1.0  0.15165  0.61851  0.07809  1.0000
  H   H685      1.0  0.07839  0.65119  0.02310  1.0000
  H   H686      1.0  0.00031  0.68210  0.20765  1.0000
  H   H687      1.0  0.00944  0.70972  0.18174  1.0000
  Fe  Fe63      1.0  0.16001  0.49936  0.04300  1.0000
  C   C404      1.0  0.22305  0.52706  0.05319  1.0000
  H   H688      1.0  0.07272  0.69044  0.17948  1.0000
  H   H689      1.0  0.09928  0.91776  0.19148  1.0000
  H   H690      1.0  0.21059  0.97612  0.16224  1.0000
  C   C405      1.0  0.19914  0.70832  0.99799  1.0000
  H   H691      1.0  0.00701  0.67994  0.04088  1.0000
  H   H692      1.0  0.10857  0.49311  0.00414  1.0000
  C   C406      1.0  0.00750  0.66273  0.08308  1.0000
  H   H693      1.0  0.16990  0.68157  0.00838  1.0000
  H   H694      1.0  0.01963  0.50318  0.31050  1.0000
  H   H695      1.0  0.99712  0.65317  0.09292  1.0000
  C   C407      1.0  0.16160  0.94979  0.30258  1.0000
  H   H696      1.0  0.04339  0.98090  0.27674  1.0000
  H   H697      1.0  0.22285  0.48973  0.00886  1.0000
  C   C408      1.0  0.18281  0.97189  0.27999  1.0000
  H   H698      1.0  0.18632  0.97038  0.10282  1.0000
  S   S117      1.0  0.98858  0.79231  0.27944  1.0000
  H   H699      1.0  0.98869  0.48603  0.13692  1.0000
  C   C409      1.0  0.19879  0.94091  0.29816  1.0000
  H   H700      1.0  0.00028  0.91262  0.23646  1.0000
  C   C410      1.0  0.10499  0.64931  0.98700  1.0000
  C   C411      1.0  0.18887  0.98412  0.14212  1.0000
  C   C412      1.0  0.16633  0.75684  0.99056  1.0000
  H   H701      1.0  0.09796  0.48703  0.03975  1.0000
  C   C413      1.0  0.04701  0.48928  0.13631  1.0000
  N   N30       1.0  0.19794  0.68918  0.99142  1.0000
  S   S118      1.0  0.06797  0.70178  0.98617  1.0000
  H   H702      1.0  0.06521  0.65971  0.99092  1.0000
  H   H703      1.0  0.07071  0.60294  0.00322  1.0000
  H   H704      1.0  0.19781  0.97644  0.27617  1.0000
  C   C414      1.0  0.08495  0.59990  0.99284  1.0000
  N   N31       1.0  0.09058  0.63676  0.98435  1.0000
  S   S119      1.0  0.12725  0.69627  0.98817  1.0000
  H   H705      1.0  0.18384  0.71642  0.00251  1.0000
  H   H706      1.0  0.17653  0.97884  0.15376  1.0000
  C   C415      1.0  0.23326  0.67230  0.99900  1.0000
  C   C416      1.0  0.19125  0.77915  0.98210  1.0000
  H   H707      1.0  0.23657  0.49945  0.02239  1.0000
  C   C417      1.0  0.21072  0.72302  0.98241  1.0000
  H   H708      1.0  0.23145  0.65786  0.00911  1.0000
  H   H709      1.0  0.09253  0.58479  0.99893  1.0000
  H   H710      1.0  0.20295  0.93676  0.26651  1.0000
  H   H711      1.0  0.22352  0.98266  0.99259  1.0000
  H   H712      1.0  0.09901  0.66555  0.98307  1.0000
  H   H713      1.0  0.18715  0.92077  0.28386  1.0000
  S   S120      1.0  0.15110  0.74343  0.98227  1.0000
  C   C418      1.0  0.20040  0.92806  0.28187  1.0000
  H   H714      1.0  0.15992  0.94422  0.28911  1.0000
  C   C419      1.0  0.23339  0.48515  0.01980  1.0000
  H   H715      1.0  0.21348  0.91588  0.28298  1.0000
  H   H716      1.0  0.11274  0.60997  0.98167  1.0000
  H   H717      1.0  0.07719  0.48566  0.02887  1.0000
  H   H718      1.0  0.02635  0.91450  0.31469  1.0000
  H   H719      1.0  0.19927  0.93024  0.31242  1.0000
  C   C420      1.0  0.00497  0.77113  0.50701  1.0000
  H   H720      1.0  0.02329  0.48787  0.39913  1.0000
  Fe  Fe64      1.0  0.20474  0.59418  0.50540  1.0000
  S   S121      1.0  0.19029  0.58276  0.53684  1.0000
  Fe  Fe65      1.0  0.19424  0.61891  0.46617  1.0000
  H   H721      1.0  0.23071  0.58461  0.58208  1.0000
  S   S122      1.0  0.16739  0.63721  0.45249  1.0000
  C   C421      1.0  0.14022  0.93752  0.47574  1.0000
  H   H722      1.0  0.13487  0.74021  0.47672  1.0000
  S   S123      1.0  0.19402  0.58672  0.47979  1.0000
  S   S124      1.0  0.20268  0.62706  0.49310  1.0000
  Fe  Fe66      1.0  0.14051  0.90895  0.54696  1.0000
  S   S125      1.0  0.15486  0.88447  0.52924  1.0000
  S   S126      1.0  0.13308  0.94163  0.53429  1.0000
  Fe  Fe67      1.0  0.13969  0.88124  0.58721  1.0000
  S   S127      1.0  0.15355  0.85416  0.57252  1.0000
  S   S128      1.0  0.13198  0.87907  0.62119  1.0000
  Fe  Fe68      1.0  0.17414  0.87456  0.55323  1.0000
  S   S129      1.0  0.20776  0.86793  0.54425  1.0000
  Fe  Fe69      1.0  0.13290  0.86642  0.54962  1.0000
  S   S130      1.0  0.11124  0.85059  0.53940  1.0000
  S   S131      1.0  0.16137  0.90050  0.56917  1.0000
  S   S132      1.0  0.11739  0.89184  0.56623  1.0000
  H   H723      1.0  0.99341  0.51120  0.44951  1.0000
  H   H724      1.0  0.20803  0.64438  0.55250  1.0000
  H   H725      1.0  0.00455  0.60013  0.58927  1.0000
  H   H726      1.0  0.23399  0.66219  0.53771  1.0000
  C   C422      1.0  0.11933  0.97531  0.35609  1.0000
  H   H727      1.0  0.05973  0.90053  0.32817  1.0000
  H   H728      1.0  0.14996  0.94104  0.33449  1.0000
  H   H729      1.0  0.21639  0.54611  0.49288  1.0000
  Fe  Fe70      1.0  0.03076  0.60497  0.45854  1.0000
  S   S133      1.0  0.01068  0.62330  0.43738  1.0000
  Fe  Fe71      1.0  0.06888  0.60918  0.42879  1.0000
  S   S134      1.0  0.05188  0.62759  0.40472  1.0000
  S   S135      1.0  0.10242  0.59799  0.42688  1.0000
  Fe  Fe72      1.0  0.03377  0.64363  0.42955  1.0000
  S   S136      1.0  0.02346  0.67726  0.42778  1.0000
  Fe  Fe73      1.0  0.02994  0.60566  0.41434  1.0000
  S   S137      1.0  0.01958  0.59159  0.39124  1.0000
  S   S138      1.0  0.05209  0.62660  0.45264  1.0000
  S   S139      1.0  0.04868  0.58597  0.43639  1.0000
  Fe  Fe74      1.0  0.06732  0.80220  0.40981  1.0000
  S   S140      1.0  0.09191  0.78403  0.42605  1.0000
  S   S141      1.0  0.07203  0.81107  0.37568  1.0000
  Fe  Fe75      1.0  0.03879  0.80437  0.44873  1.0000
  S   S142      1.0  0.06069  0.78594  0.46808  1.0000
  S   S143      1.0  0.00763  0.81761  0.46134  1.0000
  Fe  Fe76      1.0  0.08238  0.80496  0.44889  1.0000
  S   S144      1.0  0.10591  0.81692  0.46061  1.0000
  Fe  Fe77      1.0  0.06827  0.76659  0.44406  1.0000
  S   S145      1.0  0.07577  0.73257  0.45019  1.0000
  S   S146      1.0  0.05984  0.82467  0.43085  1.0000
  S   S147      1.0  0.04446  0.78348  0.42652  1.0000
  C   C423      1.0  0.11422  0.54067  0.40871  1.0000
  C   C424      1.0  0.19562  0.49122  0.55823  1.0000
  C   C425      1.0  0.99686  0.58583  0.38688  1.0000
  N   N32       1.0  0.15057  0.54811  0.39729  1.0000
  H   H730      1.0  0.13329  0.88159  0.46561  1.0000
  C   C426      1.0  0.03741  0.69205  0.43575  1.0000
  C   C427      1.0  0.03003  0.71253  0.43564  1.0000
  C   C428      1.0  0.04143  0.72504  0.44043  1.0000
  C   C429      1.0  0.06035  0.71716  0.44536  1.0000
  C   C430      1.0  0.06743  0.69654  0.44611  1.0000
  C   C431      1.0  0.05607  0.68406  0.44125  1.0000
  H   H731      1.0  0.01555  0.71883  0.43154  1.0000
  H   H732      1.0  0.03564  0.74080  0.44012  1.0000
  H   H733      1.0  0.08186  0.69015  0.45017  1.0000
  H   H734      1.0  0.06198  0.66834  0.44137  1.0000
  C   C432      1.0  0.16727  0.68295  0.47373  1.0000
  C   C433      1.0  0.22000  0.53821  0.50766  1.0000
  C   C434      1.0  0.99009  0.77922  0.52144  1.0000
  C   C435      1.0  0.18588  0.94114  0.51721  1.0000
  C   C436      1.0  0.11033  0.84123  0.51729  1.0000
  C   C437      1.0  0.12667  0.83893  0.50186  1.0000
  C   C438      1.0  0.12504  0.83132  0.48483  1.0000
  C   C439      1.0  0.10706  0.82600  0.48281  1.0000
  C   C440      1.0  0.09065  0.82852  0.49817  1.0000
  C   C441      1.0  0.09234  0.83607  0.51521  1.0000
  H   H735      1.0  0.14064  0.84280  0.50310  1.0000
  H   H736      1.0  0.13786  0.82950  0.47310  1.0000
  H   H737      1.0  0.07668  0.82472  0.49687  1.0000
  H   H738      1.0  0.07955  0.83819  0.52683  1.0000
  C   C442      1.0  0.13281  0.94734  0.50849  1.0000
  C   C443      1.0  0.12405  0.96645  0.50012  1.0000
  C   C444      1.0  0.12318  0.97101  0.47959  1.0000
  C   C445      1.0  0.14121  0.93304  0.49619  1.0000
  H   H739      1.0  0.03970  0.84371  0.34882  1.0000
  S   S148      1.0  0.02238  0.78552  0.31969  1.0000
  H   H740      1.0  0.14848  0.91854  0.50235  1.0000
  C   C446      1.0  0.22228  0.87984  0.55494  1.0000
  C   C447      1.0  0.21523  0.88613  0.57345  1.0000
  H   H741      1.0  0.03310  0.70707  0.36891  1.0000
  H   H742      1.0  0.00460  0.80159  0.63259  1.0000
  H   H743      1.0  0.20043  0.88422  0.58125  1.0000
  H   H744      1.0  0.22203  0.89887  0.59666  1.0000
  H   H745      1.0  0.07149  0.70571  0.40196  1.0000
  C   C448      1.0  0.03481  0.79521  0.33468  1.0000
  C   C449      1.0  0.02843  0.79266  0.35553  1.0000
  C   C450      1.0  0.03957  0.79756  0.36824  1.0000
  C   C451      1.0  0.05753  0.80459  0.36028  1.0000
  C   C452      1.0  0.06393  0.80710  0.33942  1.0000
  H   H746      1.0  0.00120  0.55583  0.54713  1.0000
  H   H747      1.0  0.01488  0.78665  0.36190  1.0000
  H   H748      1.0  0.03432  0.79571  0.38421  1.0000
  H   H749      1.0  0.07795  0.81220  0.33306  1.0000
  C   C453      1.0  0.13098  0.95641  0.46749  1.0000
  C   C454      1.0  0.14758  0.92815  0.63463  1.0000
  C   C455      1.0  0.14409  0.91427  0.62391  1.0000
  C   C456      1.0  0.13616  0.89723  0.63410  1.0000
  C   C457      1.0  0.16054  0.56516  0.38491  1.0000
  H   H750      1.0  0.15371  0.94125  0.62654  1.0000
  H   H751      1.0  0.14751  0.91680  0.60774  1.0000
  H   H752      1.0  0.08722  0.68758  0.38812  1.0000
  C   C458      1.0  0.14884  0.62586  0.44665  1.0000
  C   C459      1.0  0.13125  0.63792  0.44109  1.0000
  C   C460      1.0  0.11646  0.62953  0.43594  1.0000
  C   C461      1.0  0.11927  0.60895  0.43586  1.0000
  C   C462      1.0  0.13678  0.59686  0.44152  1.0000
  C   C463      1.0  0.15143  0.60522  0.44695  1.0000
  H   H753      1.0  0.12909  0.65387  0.44053  1.0000
  H   H754      1.0  0.10318  0.63907  0.43143  1.0000
  H   H755      1.0  0.13912  0.58094  0.44160  1.0000
  H   H756      1.0  0.16487  0.59570  0.45103  1.0000
  C   C464      1.0  0.21881  0.53516  0.40219  1.0000
  C   C465      1.0  0.21471  0.55521  0.40501  1.0000
  C   C466      1.0  0.22049  0.56075  0.42120  1.0000
  H   H757      1.0  0.20712  0.56656  0.39459  1.0000
  C   C467      1.0  0.23094  0.54633  0.43435  1.0000
  H   H758      1.0  0.22621  0.92675  0.61285  1.0000
  C   C468      1.0  0.20435  0.54140  0.58459  1.0000
  C   C469      1.0  0.19382  0.55470  0.57057  1.0000
  C   C470      1.0  0.20402  0.56506  0.55324  1.0000
  H   H759      1.0  0.01328  0.75624  0.51066  1.0000
  C   C471      1.0  0.14606  0.53823  0.36459  1.0000
  H   H760      1.0  0.19636  0.53372  0.59808  1.0000
  H   H761      1.0  0.17768  0.55717  0.57330  1.0000
  H   H762      1.0  0.09060  0.88413  0.32530  1.0000
  C   C472      1.0  0.07331  0.74703  0.38506  1.0000
  H   H763      1.0  0.18204  0.93926  0.54951  1.0000
  H   H764      1.0  0.14606  0.52455  0.35848  1.0000
  S   S149      1.0  0.21193  0.52904  0.38121  1.0000
  C   C473      1.0  0.99709  0.57796  0.36951  1.0000
  Fe  Fe78      1.0  0.23481  0.61937  0.47860  1.0000
  C   C474      1.0  0.99601  0.58963  0.49636  1.0000
  C   C475      1.0  0.07232  0.69724  0.38978  1.0000
  C   C476      1.0  0.00709  0.64882  0.48534  1.0000
  C   C477      1.0  0.15974  0.58309  0.39535  1.0000
  H   H765      1.0  0.02062  0.65598  0.48054  1.0000
  H   H766      1.0  0.07659  0.80044  0.54214  1.0000
  H   H767      1.0  0.16618  0.96933  0.48911  1.0000
  H   H768      1.0  0.20078  0.97414  0.50159  1.0000
  H   H769      1.0  0.15361  0.57165  0.37136  1.0000
  H   H770      1.0  0.03350  0.71020  0.39362  1.0000
  H   H771      1.0  0.06596  0.77134  0.54038  1.0000
  H   H772      1.0  0.12676  0.56334  0.41690  1.0000
  H   H773      1.0  0.12311  0.56782  0.39160  1.0000
  H   H774      1.0  0.14424  0.58946  0.40135  1.0000
  H   H775      1.0  0.07426  0.85855  0.31714  1.0000
  H   H776      1.0  0.22157  0.89204  0.50076  1.0000
  C   C478      1.0  0.10097  0.84201  0.61638  1.0000
  C   C479      1.0  0.05256  0.80264  0.32667  1.0000
  H   H777      1.0  0.11478  0.83681  0.62298  1.0000
  H   H778      1.0  0.02125  0.77632  0.47701  1.0000
  H   H779      1.0  0.99888  0.52033  0.38567  1.0000
  H   H780      1.0  0.17615  0.93077  0.51571  1.0000
  C   C480      1.0  0.16077  0.54022  0.41532  1.0000
  H   H781      1.0  0.06472  0.79000  0.56680  1.0000
  S   S150      1.0  0.02088  0.59315  0.49107  1.0000
  H   H782      1.0  0.17816  0.88968  0.64376  1.0000
  H   H783      1.0  0.10154  0.83228  0.60526  1.0000
  H   H784      1.0  0.14675  0.92640  0.46627  1.0000
  H   H785      1.0  0.99003  0.67676  0.49161  1.0000
  C   C481      1.0  0.09014  0.86929  0.33497  1.0000
  C   C482      1.0  0.05086  0.98401  0.33919  1.0000
  C   C483      1.0  0.21198  0.96042  0.49944  1.0000
  C   C484      1.0  0.03013  0.87681  0.37457  1.0000
  H   H786      1.0  0.12087  0.52497  0.41351  1.0000
  H   H787      1.0  0.00609  0.82480  0.55527  1.0000
  H   H788      1.0  0.17174  0.96748  0.46315  1.0000
  H   H789      1.0  0.99161  0.54307  0.39489  1.0000
  H   H790      1.0  0.19746  0.62697  0.54349  1.0000
  H   H791      1.0  0.18632  0.93102  0.64203  1.0000
  H   H792      1.0  0.20435  0.95089  0.33301  1.0000
  H   H793      1.0  0.15957  0.50021  0.62760  1.0000
  H   H794      1.0  0.01790  0.82260  0.51009  1.0000
  C   C485      1.0  0.15416  0.53202  0.38454  1.0000
  S   S151      1.0  0.22635  0.61384  0.45033  1.0000
  H   H795      1.0  0.00382  0.54486  0.44914  1.0000
  H   H796      1.0  0.06922  0.84552  0.62367  1.0000
  H   H797      1.0  0.07142  0.76316  0.38607  1.0000
  H   H798      1.0  0.05824  0.88649  0.36186  1.0000
  H   H799      1.0  0.11769  0.97763  0.50957  1.0000
  H   H800      1.0  0.21732  0.57625  0.42321  1.0000
  H   H801      1.0  0.13061  0.54659  0.36637  1.0000
  C   C486      1.0  0.03596  0.85474  0.31804  1.0000
  N   N33       1.0  0.03136  0.80189  0.54729  1.0000
  C   C487      1.0  0.01207  0.81546  0.54337  1.0000
  C   C488      1.0  0.02639  0.78675  0.56580  1.0000
  C   C489      1.0  0.03980  0.79157  0.52935  1.0000
  C   C490      1.0  0.04541  0.81471  0.55001  1.0000
  H   H802      1.0  0.21843  0.94536  0.62934  1.0000
  C   C491      1.0  0.01711  0.79532  0.58518  1.0000
  Fe  Fe79      1.0  0.21197  0.49696  0.37835  1.0000
  H   H803      1.0  0.02388  0.84598  0.31929  1.0000
  H   H804      1.0  0.20393  0.94545  0.46683  1.0000
  C   C492      1.0  0.02844  0.90452  0.32915  1.0000
  H   H805      1.0  0.03960  0.77556  0.56932  1.0000
  S   S152      1.0  0.99948  0.53252  0.61010  1.0000
  H   H806      1.0  0.03167  0.88068  0.38895  1.0000
  C   C493      1.0  0.99394  0.54263  0.43928  1.0000
  H   H807      1.0  0.04914  0.82521  0.53590  1.0000
  H   H808      1.0  0.03827  0.82492  0.56093  1.0000
  H   H809      1.0  0.05942  0.86021  0.36971  1.0000
  H   H810      1.0  0.02378  0.86274  0.37849  1.0000
  C   C494      1.0  0.17855  0.96709  0.47647  1.0000
  H   H811      1.0  0.98758  0.49126  0.40638  1.0000
  H   H812      1.0  0.02371  0.54171  0.40433  1.0000
  C   C495      1.0  0.15710  0.93387  0.32123  1.0000
  H   H813      1.0  0.08178  0.82428  0.63816  1.0000
  C   C496      1.0  0.23537  0.54912  0.56420  1.0000
  H   H814      1.0  0.06118  0.68700  0.39430  1.0000
  H   H815      1.0  0.17026  0.92272  0.32473  1.0000
  H   H816      1.0  0.03409  0.55801  0.60239  1.0000
  N   N34       1.0  0.05178  0.87122  0.34002  1.0000
  N   N35       1.0  0.03476  0.56683  0.55959  1.0000
  C   C497      1.0  0.03080  0.54700  0.55670  1.0000
  C   C498      1.0  0.05145  0.56231  0.57169  1.0000
  C   C499      1.0  0.04104  0.57864  0.53910  1.0000
  C   C500      1.0  0.01573  0.57757  0.57022  1.0000
  C   C501      1.0  0.01637  0.54800  0.54204  1.0000
  H   H817      1.0  0.18326  0.93515  0.48129  1.0000
  C   C502      1.0  0.05376  0.59487  0.53776  1.0000
  C   C503      1.0  0.01650  0.59759  0.57623  1.0000
  H   H818      1.0  0.04500  0.53741  0.55122  1.0000
  H   H819      1.0  0.02437  0.53842  0.57114  1.0000
  H   H820      1.0  0.05615  0.57610  0.57355  1.0000
  C   C504      1.0  0.04705  0.55026  0.59301  1.0000
  H   H821      1.0  0.05005  0.56850  0.52872  1.0000
  H   H822      1.0  0.02775  0.58611  0.53213  1.0000
  H   H823      1.0  0.00387  0.58105  0.56080  1.0000
  H   H824      1.0  0.00929  0.56781  0.58379  1.0000
  H   H825      1.0  0.11332  0.96352  0.36701  1.0000
  H   H826      1.0  0.02196  0.55501  0.52654  1.0000
  H   H827      1.0  0.01484  0.53252  0.54130  1.0000
  H   H828      1.0  0.99311  0.59097  0.52765  1.0000
  C   C505      1.0  0.05348  0.77109  0.53281  1.0000
  H   H829      1.0  0.00853  0.63779  0.47538  1.0000
  H   H830      1.0  0.06908  0.58807  0.54052  1.0000
  H   H831      1.0  0.04703  0.60571  0.54795  1.0000
  H   H832      1.0  0.05532  0.60350  0.52225  1.0000
  H   H833      1.0  0.01554  0.51657  0.43346  1.0000
  H   H834      1.0  0.03042  0.59780  0.58151  1.0000
  C   C506      1.0  0.06568  0.80382  0.55566  1.0000
  N   N36       1.0  0.05202  0.72796  0.37060  1.0000
  C   C507      1.0  0.03352  0.71847  0.37807  1.0000
  C   C508      1.0  0.06962  0.71113  0.36969  1.0000
  C   C509      1.0  0.05054  0.73928  0.34974  1.0000
  C   C510      1.0  0.05274  0.74190  0.38456  1.0000
  H   H835      1.0  0.22159  0.96988  0.46676  1.0000
  C   C511      1.0  0.06830  0.74953  0.33859  1.0000
  H   H836      1.0  0.20755  0.54361  0.51911  1.0000
  H   H837      1.0  0.09049  0.87033  0.35067  1.0000
  H   H838      1.0  0.09089  0.87749  0.63028  1.0000
  H   H839      1.0  0.08388  0.71662  0.36368  1.0000
  H   H840      1.0  0.06846  0.70149  0.35900  1.0000
  H   H841      1.0  0.04812  0.72924  0.34005  1.0000
  H   H842      1.0  0.03742  0.75149  0.34992  1.0000
  H   H843      1.0  0.04244  0.75624  0.38131  1.0000
  H   H844      1.0  0.04702  0.73542  0.40020  1.0000
  C   C512      1.0  0.20014  0.92136  0.63603  1.0000
  N   N37       1.0  0.20193  0.94318  0.49897  1.0000
  C   C513      1.0  0.00967  0.78259  0.48808  1.0000
  C   C514      1.0  0.01305  0.83026  0.52331  1.0000
  H   H845      1.0  0.98981  0.67262  0.46746  1.0000
  H   H846      1.0  0.10414  0.85940  0.32972  1.0000
  H   H847      1.0  0.06991  0.76175  0.34599  1.0000
  Fe  Fe80      1.0  0.01441  0.51987  0.63743  1.0000
  H   H848      1.0  0.14663  0.92498  0.31845  1.0000
  H   H849      1.0  0.07429  0.84451  0.34167  1.0000
  H   H850      1.0  0.20444  0.94501  0.61054  1.0000
  H   H851      1.0  0.02273  0.84141  0.52248  1.0000
  H   H852      1.0  0.18536  0.96675  0.34678  1.0000
  H   H853      1.0  0.23199  0.50515  0.41364  1.0000
  H   H854      1.0  0.02757  0.78863  0.52279  1.0000
  H   H855      1.0  0.13816  0.52614  0.43769  1.0000
  H   H856      1.0  0.10232  0.54492  0.42124  1.0000
  H   H857      1.0  0.01589  0.89612  0.33278  1.0000
  H   H858      1.0  0.16316  0.51747  0.44168  1.0000
  C   C515      1.0  0.99969  0.80221  0.48370  1.0000
  H   H859      1.0  0.19733  0.90203  0.51230  1.0000
  H   H860      1.0  0.01523  0.78268  0.59781  1.0000
  H   H861      1.0  0.15586  0.54727  0.35321  1.0000
  H   H862      1.0  0.04477  0.53488  0.59290  1.0000
  H   H863      1.0  0.10632  0.54172  0.39599  1.0000
  H   H864      1.0  0.06006  0.76650  0.51806  1.0000
  S   S153      1.0  0.03996  0.49473  0.63216  1.0000
  C   C516      1.0  0.01012  0.49139  0.31531  1.0000
  C   C517      1.0  0.14549  0.49633  0.63576  1.0000
  C   C518      1.0  0.98850  0.66511  0.48345  1.0000
  H   H865      1.0  0.18249  0.49796  0.56826  1.0000
  H   H866      1.0  0.17653  0.55973  0.37931  1.0000
  C   C519      1.0  0.12875  0.55594  0.40362  1.0000
  C   C520      1.0  0.00012  0.52777  0.39809  1.0000
  C   C521      1.0  0.22876  0.52064  0.41565  1.0000
  H   H867      1.0  0.14792  0.51855  0.39258  1.0000
  H   H868      1.0  0.17045  0.52653  0.38072  1.0000
  H   H869      1.0  0.19539  0.91267  0.62650  1.0000
  H   H870      1.0  0.10111  0.85741  0.60784  1.0000
  H   H871      1.0  0.04028  0.84456  0.64403  1.0000
  N   N38       1.0  0.13677  0.70526  0.45895  1.0000
  C   C522      1.0  0.13066  0.72729  0.45125  1.0000
  C   C523      1.0  0.14472  0.69513  0.44087  1.0000
  C   C524      1.0  0.15299  0.70321  0.47125  1.0000
  C   C525      1.0  0.11870  0.69749  0.47165  1.0000
  C   C526      1.0  0.12355  0.74105  0.46723  1.0000
  C   C527      1.0  0.12989  0.69650  0.42658  1.0000
  C   C528      1.0  0.12088  0.67485  0.47985  1.0000
  H   H872      1.0  0.14318  0.73334  0.44051  1.0000
  H   H873      1.0  0.11819  0.72980  0.44272  1.0000
  H   H874      1.0  0.15038  0.67900  0.44510  1.0000
  H   H875      1.0  0.15795  0.70141  0.43186  1.0000
  H   H876      1.0  0.11361  0.70487  0.48508  1.0000
  H   H877      1.0  0.10564  0.70183  0.46381  1.0000
  H   H878      1.0  0.10922  0.73799  0.47670  1.0000
  H   H879      1.0  0.12064  0.75683  0.45950  1.0000
  H   H880      1.0  0.11614  0.69069  0.43442  1.0000
  H   H881      1.0  0.12603  0.71193  0.41847  1.0000
  H   H882      1.0  0.13700  0.68704  0.41501  1.0000
  H   H883      1.0  0.17729  0.68320  0.48429  1.0000
  H   H884      1.0  0.17707  0.68030  0.45937  1.0000
  H   H885      1.0  0.12562  0.67139  0.49475  1.0000
  H   H886      1.0  0.13124  0.66540  0.46988  1.0000
  H   H887      1.0  0.10628  0.66996  0.48143  1.0000
  N   N39       1.0  0.09459  0.90203  0.48010  1.0000
  C   C529      1.0  0.10676  0.89860  0.49664  1.0000
  C   C530      1.0  0.10057  0.88427  0.46935  1.0000
  C   C531      1.0  0.07262  0.90415  0.48830  1.0000
  C   C532      1.0  0.09859  0.92109  0.46616  1.0000
  C   C533      1.0  0.09968  0.91265  0.51234  1.0000
  C   C534      1.0  0.12160  0.88215  0.45664  1.0000
  C   C535      1.0  0.06601  0.88600  0.50339  1.0000
  C   C536      1.0  0.08764  0.92713  0.44795  1.0000
  H   H888      1.0  0.10752  0.88305  0.50502  1.0000
  H   H889      1.0  0.12256  0.90003  0.49033  1.0000
  H   H890      1.0  0.08976  0.88406  0.45957  1.0000
  H   H891      1.0  0.10007  0.87011  0.48026  1.0000
  H   H892      1.0  0.06740  0.91776  0.49543  1.0000
  H   H893      1.0  0.06385  0.90655  0.47596  1.0000
  H   H894      1.0  0.09433  0.93405  0.47426  1.0000
  H   H895      1.0  0.11479  0.92086  0.46060  1.0000
  H   H896      1.0  0.08531  0.90987  0.52186  1.0000
  H   H897      1.0  0.11076  0.90964  0.52258  1.0000
  H   H898      1.0  0.09851  0.92869  0.50554  1.0000
  C   C537      1.0  0.23017  0.62153  0.53659  1.0000
  H   H899      1.0  0.06577  0.87835  0.62998  1.0000
  H   H900      1.0  0.12474  0.86782  0.45077  1.0000
  H   H901      1.0  0.06743  0.87291  0.49591  1.0000
  H   H902      1.0  0.05002  0.88991  0.50981  1.0000
  H   H903      1.0  0.07441  0.88158  0.51607  1.0000
  H   H904      1.0  0.07299  0.93673  0.45171  1.0000
  H   H905      1.0  0.08529  0.91422  0.44210  1.0000
  H   H906      1.0  0.09690  0.93565  0.43537  1.0000
  H   H907      1.0  0.19434  0.91670  0.54125  1.0000
  H   H908      1.0  0.06011  0.54854  0.60059  1.0000
  H   H909      1.0  0.23283  0.56951  0.53636  1.0000
  H   H910      1.0  0.18675  0.97985  0.47291  1.0000
  H   H911      1.0  0.00035  0.80644  0.54382  1.0000
  S   S154      1.0  0.10449  0.96092  0.32911  1.0000
  Fe  Fe81      1.0  0.22626  0.58187  0.46570  1.0000
  H   H912      1.0  0.01267  0.74528  0.38684  1.0000
  H   H913      1.0  0.04477  0.75936  0.54139  1.0000
  H   H914      1.0  0.07168  0.81364  0.56302  1.0000
  H   H915      1.0  0.21985  0.95727  0.51250  1.0000
  H   H916      1.0  0.01585  0.77775  0.56323  1.0000
  H   H917      1.0  0.02701  0.53696  0.37953  1.0000
  Fe  Fe82      1.0  0.22807  0.49578  0.61690  1.0000
  C   C538      1.0  0.10913  0.50208  0.64026  1.0000
  H   H918      1.0  0.07896  0.73885  0.39893  1.0000
  H   H919      1.0  0.15518  0.50889  0.42262  1.0000
  H   H920      1.0  0.04815  0.80142  0.51713  1.0000
  C   C539      1.0  0.18117  0.96879  0.31611  1.0000
  H   H921      1.0  0.00200  0.80417  0.58436  1.0000
  C   C540      1.0  0.15363  0.52212  0.42987  1.0000
  C   C541      1.0  0.07227  0.86003  0.33312  1.0000
  H   H922      1.0  0.17709  0.53599  0.41052  1.0000
  C   C542      1.0  0.11720  0.97752  0.33598  1.0000
  H   H923      1.0  0.02679  0.80434  0.58909  1.0000
  C   C543      1.0  0.22485  0.56181  0.54980  1.0000
  H   H924      1.0  0.01077  0.57620  0.35882  1.0000
  H   H925      1.0  0.22561  0.92174  0.51156  1.0000
  H   H926      1.0  0.16902  0.57926  0.40732  1.0000
  H   H927      1.0  0.12273  0.89431  0.44347  1.0000
  C   C544      1.0  0.23506  0.52627  0.43150  1.0000
  H   H928      1.0  0.15895  0.55194  0.42470  1.0000
  H   H929      1.0  0.21158  0.60128  0.59448  1.0000
  N   N40       1.0  0.99105  0.51698  0.41804  1.0000
  C   C545      1.0  0.01336  0.73289  0.37865  1.0000
  H   H930      1.0  0.08246  0.73890  0.33642  1.0000
  H   H931      1.0  0.08491  0.74459  0.37192  1.0000
  H   H932      1.0  0.16287  0.71456  0.46458  1.0000
  C   C546      1.0  0.02205  0.53065  0.39546  1.0000
  C   C547      1.0  0.20991  0.63564  0.54039  1.0000
  S   S155      1.0  0.12900  0.96146  0.44214  1.0000
  H   H933      1.0  0.06505  0.55388  0.56359  1.0000
  H   H934      1.0  0.99783  0.83875  0.52206  1.0000
  H   H935      1.0  0.14643  0.70634  0.48661  1.0000
  H   H936      1.0  0.15949  0.67007  0.48000  1.0000
  C   C548      1.0  0.21729  0.92434  0.49884  1.0000
  H   H937      1.0  0.19086  0.51340  0.53256  1.0000
  H   H938      1.0  0.17985  0.94419  0.34238  1.0000
  H   H939      1.0  0.20377  0.90519  0.48530  1.0000
  H   H940      1.0  0.06523  0.75678  0.32338  1.0000
  H   H941      1.0  0.16595  0.59519  0.38418  1.0000
  C   C549      1.0  0.22760  0.89427  0.58229  1.0000
  C   C550      1.0  0.18808  0.95664  0.33553  1.0000
  C   C551      1.0  0.20924  0.90500  0.49934  1.0000
  H   H942      1.0  0.01949  0.88905  0.36763  1.0000
  H   H943      1.0  0.06278  0.98292  0.34805  1.0000
  C   C552      1.0  0.19244  0.94681  0.48049  1.0000
  H   H944      1.0  0.02140  0.86496  0.34518  1.0000
  C   C553      1.0  0.03681  0.85853  0.33905  1.0000
  C   C554      1.0  0.19335  0.93319  0.53743  1.0000
  C   C555      1.0  0.21336  0.93527  0.62159  1.0000
  N   N41       1.0  0.22293  0.50255  0.52854  1.0000
  S   S156      1.0  0.21477  0.49025  0.34731  1.0000
  H   H945      1.0  0.00729  0.64093  0.50096  1.0000
  S   S157      1.0  0.08703  0.51580  0.63223  1.0000
  H   H946      1.0  0.23395  0.54274  0.50926  1.0000
  H   H947      1.0  0.00986  0.73902  0.36340  1.0000
  C   C556      1.0  0.22109  0.59949  0.57976  1.0000
  H   H948      1.0  0.12795  0.51819  0.61642  1.0000
  C   C557      1.0  0.08184  0.84050  0.63218  1.0000
  H   H949      1.0  0.22335  0.88808  0.63128  1.0000
  C   C558      1.0  0.12756  0.50654  0.62949  1.0000
  H   H950      1.0  0.23523  0.65784  0.56439  1.0000
  C   C559      1.0  0.20304  0.50790  0.54164  1.0000
  H   H951      1.0  0.21042  0.51326  0.50117  1.0000
  H   H952      1.0  0.01400  0.61022  0.56373  1.0000
  H   H953      1.0  0.99596  0.55370  0.42533  1.0000
  H   H954      1.0  0.21099  0.59957  0.56922  1.0000
  H   H955      1.0  0.21556  0.82409  0.58393  1.0000
  H   H956      1.0  0.22879  0.92570  0.48513  1.0000
  H   H957      1.0  0.03245  0.51663  0.39910  1.0000
  H   H958      1.0  0.22342  0.63036  0.57648  1.0000
  H   H959      1.0  0.20782  0.64671  0.52658  1.0000
  C   C560      1.0  0.99908  0.52081  0.43535  1.0000
  C   C561      1.0  0.22514  0.53896  0.58166  1.0000
  H   H960      1.0  0.99427  0.58768  0.46607  1.0000
  H   H961      1.0  0.16612  0.97725  0.32068  1.0000
  H   H962      1.0  0.23059  0.49948  0.56961  1.0000
  H   H963      1.0  0.99580  0.49803  0.32373  1.0000
  C   C562      1.0  0.22276  0.51545  0.50812  1.0000
  C   C563      1.0  0.22770  0.96602  0.48093  1.0000
  H   H964      1.0  0.05089  0.96855  0.33695  1.0000
  C   C564      1.0  0.05090  0.87373  0.36141  1.0000
  H   H965      1.0  0.22659  0.60681  0.53558  1.0000
  H   H966      1.0  0.23083  0.54336  0.33029  1.0000
  H   H967      1.0  0.00130  0.72441  0.38670  1.0000
  H   H968      1.0  0.17584  0.95571  0.51856  1.0000
  C   C565      1.0  0.22623  0.89220  0.64505  1.0000
  C   C566      1.0  0.07693  0.87405  0.64026  1.0000
  H   H969      1.0  0.20767  0.93730  0.53831  1.0000
  H   H970      1.0  0.00572  0.49312  0.36658  1.0000
  S   S158      1.0  0.23698  0.58676  0.49264  1.0000
  H   H971      1.0  0.02501  0.48651  0.42538  1.0000
  H   H972      1.0  0.20324  0.52070  0.54908  1.0000
  H   H973      1.0  0.22828  0.83907  0.59335  1.0000
  C   C567      1.0  0.23354  0.61654  0.57299  1.0000
  C   C568      1.0  0.23030  0.82494  0.58735  1.0000
  C   C569      1.0  0.99430  0.49471  0.41827  1.0000
  H   H974      1.0  0.02722  0.91395  0.34069  1.0000
  H   H975      1.0  0.23423  0.81187  0.59892  1.0000
  C   C570      1.0  0.04912  0.89120  0.32639  1.0000
  H   H976      1.0  0.23309  0.97951  0.48269  1.0000
  C   C571      1.0  0.98937  0.80525  0.63995  1.0000
  H   H977      1.0  0.23678  0.51119  0.49765  1.0000
  Fe  Fe83      1.0  0.05636  0.50973  0.64803  1.0000
  H   H978      1.0  0.06414  0.90348  0.64782  1.0000
  S   S159      1.0  0.99448  0.85713  0.70327  1.0000
  H   H979      1.0  0.07266  0.75149  0.85310  1.0000
  H   H980      1.0  0.22837  0.92733  0.65711  1.0000
  Fe  Fe84      1.0  0.02770  0.66868  0.86077  1.0000
  S   S160      1.0  0.04298  0.69565  0.85431  1.0000
  C   C572      1.0  0.03788  0.61029  0.83016  1.0000
  C   C573      1.0  0.06921  0.63913  0.95648  1.0000
  S   S161      1.0  0.01722  0.70699  0.89719  1.0000
  H   H981      1.0  0.16540  0.92211  0.81843  1.0000
  Fe  Fe85      1.0  0.01287  0.71243  0.86502  1.0000
  C   C574      1.0  0.03438  0.74952  0.91806  1.0000
  Fe  Fe86      1.0  0.04624  0.68801  0.88684  1.0000
  S   S162      1.0  0.07511  0.68935  0.89654  1.0000
  H   H982      1.0  0.23078  0.89556  0.86925  1.0000
  S   S163      1.0  0.03371  0.65962  0.89229  1.0000
  C   C575      1.0  0.11879  0.49463  0.89346  1.0000
  S   S164      1.0  0.04112  0.87501  0.70895  1.0000
  C   C576      1.0  0.09539  0.84841  0.68090  1.0000
  Fe  Fe87      1.0  0.15345  0.94033  0.74304  1.0000
  S   S165      1.0  0.14127  0.96506  0.71941  1.0000
  S   S166      1.0  0.18125  0.93965  0.75715  1.0000
  Fe  Fe88      1.0  0.12377  0.91355  0.73970  1.0000
  S   S167      1.0  0.10979  0.93662  0.71677  1.0000
  S   S168      1.0  0.11142  0.88447  0.75056  1.0000
  Fe  Fe89      1.0  0.14084  0.94041  0.70246  1.0000
  S   S169      1.0  0.14911  0.94253  0.66853  1.0000
  Fe  Fe90      1.0  0.11108  0.95871  0.73582  1.0000
  S   S170      1.0  0.15521  0.91614  0.72454  1.0000
  S   S171      1.0  0.12303  0.93528  0.76016  1.0000
  C   C577      1.0  0.22287  0.92579  0.83952  1.0000
  S   S172      1.0  0.22817  0.88368  0.96285  1.0000
  Fe  Fe91      1.0  0.02044  0.51687  0.68069  1.0000
  S   S173      1.0  0.00641  0.52421  0.71127  1.0000
  Fe  Fe92      1.0  0.05269  0.53333  0.84011  1.0000
  S   S174      1.0  0.07974  0.52044  0.81996  1.0000
  S   S175      1.0  0.05523  0.55437  0.86028  1.0000
  Fe  Fe93      1.0  0.02803  0.50419  0.83350  1.0000
  C   C578      1.0  0.23510  0.97705  0.95559  1.0000
  H   H983      1.0  0.13919  0.50853  0.84524  1.0000
  H   H984      1.0  0.01079  0.71157  0.82043  1.0000
  C   C579      1.0  0.14098  0.48506  0.88956  1.0000
  Fe  Fe94      1.0  0.05838  0.52016  0.79962  1.0000
  S   S176      1.0  0.06785  0.52818  0.76619  1.0000
  S   S177      1.0  0.04655  0.50322  0.85681  1.0000
  S   S178      1.0  0.03169  0.53561  0.81855  1.0000
  C   C580      1.0  0.99549  0.77160  0.81696  1.0000
  H   H985      1.0  0.00522  0.66132  0.77802  1.0000
  C   C581      1.0  0.02346  0.52531  0.72653  1.0000
  C   C582      1.0  0.04265  0.52906  0.71801  1.0000
  C   C583      1.0  0.05592  0.53041  0.73034  1.0000
  C   C584      1.0  0.05044  0.52718  0.75124  1.0000
  C   C585      1.0  0.03130  0.52321  0.75979  1.0000
  C   C586      1.0  0.01773  0.52261  0.74742  1.0000
  H   H986      1.0  0.04426  0.76332  0.84159  1.0000
  H   H987      1.0  0.04883  0.95924  0.73657  1.0000
  H   H988      1.0  0.02688  0.52089  0.77590  1.0000
  H   H989      1.0  0.00282  0.51995  0.75408  1.0000
  C   C587      1.0  0.18840  0.95310  0.77347  1.0000
  S   S179      1.0  0.08067  0.97767  0.74221  1.0000
  H   H990      1.0  0.08608  0.83817  0.69140  1.0000
  C   C588      1.0  0.00124  0.78053  0.79694  1.0000
  C   C589      1.0  0.21443  0.95818  0.79060  1.0000
  C   C590      1.0  0.20802  0.94820  0.77770  1.0000
  H   H991      1.0  0.01371  0.94557  0.76916  1.0000
  H   H992      1.0  0.09745  0.52580  0.69928  1.0000
  H   H993      1.0  0.21842  0.93666  0.77078  1.0000
  Fe  Fe95      1.0  0.01186  0.81075  0.74197  1.0000
  C   C591      1.0  0.09331  0.52469  0.89180  1.0000
  H   H994      1.0  0.13178  0.90574  0.68209  1.0000
  C   C592      1.0  0.06173  0.87550  0.72004  1.0000
  C   C593      1.0  0.07451  0.88915  0.71053  1.0000
  C   C594      1.0  0.09036  0.89115  0.71930  1.0000
  C   C595      1.0  0.09322  0.88008  0.73808  1.0000
  C   C596      1.0  0.08072  0.86603  0.74745  1.0000
  C   C597      1.0  0.06506  0.86365  0.73841  1.0000
  H   H995      1.0  0.07211  0.89836  0.69632  1.0000
  H   H996      1.0  0.10029  0.90138  0.71152  1.0000
  H   H997      1.0  0.08291  0.85726  0.76191  1.0000
  H   H998      1.0  0.05526  0.85309  0.74590  1.0000
  H   H999      1.0  0.00999  0.68621  0.82099  1.0000
  C   C598      1.0  0.02586  0.74726  0.81503  1.0000
  H   H1000     1.0  0.17642  0.77163  0.96070  1.0000
  C   C599      1.0  0.01926  0.77272  0.78583  1.0000
  H   H1001     1.0  0.17988  0.90735  0.67122  1.0000
  H   H1002     1.0  0.23333  0.96274  0.93098  1.0000
  H   H1003     1.0  0.08709  0.53875  0.88250  1.0000
  C   C600      1.0  0.00761  0.75477  0.82598  1.0000
  C   C601      1.0  0.03161  0.75618  0.79504  1.0000
  C   C602      1.0  0.03774  0.62258  0.84407  1.0000
  H   H1004     1.0  0.01361  0.72764  0.77553  1.0000
  C   C603      1.0  0.04299  0.58932  0.83498  1.0000
  C   C604      1.0  0.04817  0.58055  0.85371  1.0000
  C   C605      1.0  0.04806  0.59284  0.86759  1.0000
  C   C606      1.0  0.04279  0.61376  0.86283  1.0000
  C   C607      1.0  0.07041  0.74264  0.86844  1.0000
  H   H1005     1.0  0.09990  0.72486  0.86353  1.0000
  H   H1006     1.0  0.05205  0.58617  0.88209  1.0000
  H   H1007     1.0  0.04280  0.62304  0.87362  1.0000
  H   H1008     1.0  0.04580  0.90378  0.74367  1.0000
  C   C608      1.0  0.07326  0.69241  0.92156  1.0000
  C   C609      1.0  0.09008  0.69522  0.92831  1.0000
  C   C610      1.0  0.08870  0.69827  0.94809  1.0000
  C   C611      1.0  0.07046  0.69853  0.96114  1.0000
  C   C612      1.0  0.05369  0.69573  0.95435  1.0000
  C   C613      1.0  0.05508  0.69262  0.93465  1.0000
  H   H1009     1.0  0.10417  0.69515  0.91819  1.0000
  H   H1010     1.0  0.10168  0.70052  0.95319  1.0000
  H   H1011     1.0  0.12624  0.64738  0.95847  1.0000
  H   H1012     1.0  0.04206  0.69035  0.92965  1.0000
  H   H1013     1.0  0.18893  0.92785  0.68702  1.0000
  H   H1014     1.0  0.06466  0.72914  0.86703  1.0000
  H   H1015     1.0  0.06318  0.52181  0.90701  1.0000
  H   H1016     1.0  0.10303  0.82909  0.65926  1.0000
  H   H1017     1.0  0.19500  0.70359  0.96085  1.0000
  H   H1018     1.0  0.09208  0.65564  0.95492  1.0000
  H   H1019     1.0  0.19174  0.89096  0.86088  1.0000
  H   H1020     1.0  0.06899  0.48816  0.96168  1.0000
  H   H1021     1.0  0.03018  0.74630  0.87429  1.0000
  C   C614      1.0  0.03424  0.91341  0.75274  1.0000
  N   N42       1.0  0.11225  0.51435  0.88051  1.0000
  C   C615      1.0  0.02931  0.94096  0.77216  1.0000
  H   H1022     1.0  0.08606  0.89188  0.65864  1.0000
  C   C616      1.0  0.04146  0.94650  0.73629  1.0000
  C   C617      1.0  0.99894  0.72727  0.78554  1.0000
  H   H1023     1.0  0.02161  0.91829  0.74416  1.0000
  C   C618      1.0  0.09154  0.73552  0.87356  1.0000
  H   H1024     1.0  0.10962  0.54037  0.66731  1.0000
  N   N43       1.0  0.12476  0.51227  0.71128  1.0000
  H   H1025     1.0  0.23092  0.92519  0.85188  1.0000
  H   H1026     1.0  0.08251  0.91433  0.78102  1.0000
  H   H1027     1.0  0.08931  0.86397  0.68295  1.0000
  C   C619      1.0  0.12533  0.50277  0.84597  1.0000
  H   H1028     1.0  0.04389  0.92711  0.71368  1.0000
  C   C620      1.0  0.07546  0.77208  0.90014  1.0000
  Fe  Fe96      1.0  0.00428  0.67914  0.90046  1.0000
  H   H1029     1.0  0.02568  0.95310  0.73481  1.0000
  H   H1030     1.0  0.02591  0.96459  0.78971  1.0000
  C   C621      1.0  0.20042  0.93480  0.67572  1.0000
  H   H1031     1.0  0.11757  0.55897  0.72666  1.0000
  C   C622      1.0  0.14358  0.49772  0.70573  1.0000
  C   C623      1.0  0.17138  0.91747  0.83274  1.0000
  C   C624      1.0  0.12763  0.52779  0.87712  1.0000
  H   H1032     1.0  0.14251  0.52070  0.87021  1.0000
  H   H1033     1.0  0.07112  0.93877  0.75625  1.0000
  H   H1034     1.0  0.06196  0.88450  0.66876  1.0000
  C   C625      1.0  0.21635  0.91913  0.66577  1.0000
  H   H1035     1.0  0.10977  0.55808  0.87079  1.0000
  C   C626      1.0  0.06830  0.91171  0.77779  1.0000
  H   H1036     1.0  0.07103  0.77945  0.86936  1.0000
  H   H1037     1.0  0.16021  0.92487  0.84399  1.0000
  H   H1038     1.0  0.13780  0.52467  0.73085  1.0000
  H   H1039     1.0  0.03474  0.97225  0.76384  1.0000
  H   H1040     1.0  0.06741  0.93315  0.71602  1.0000
  C   C627      1.0  0.12973  0.52992  0.71785  1.0000
  H   H1041     1.0  0.04562  0.75013  0.78656  1.0000
  H   H1042     1.0  0.10233  0.54065  0.73797  1.0000
  H   H1043     1.0  0.07111  0.64042  0.93994  1.0000
  N   N44       1.0  0.20341  0.91799  0.84670  1.0000
  C   C628      1.0  0.03620  0.76000  0.87450  1.0000
  C   C629      1.0  0.05127  0.93881  0.71653  1.0000
  H   H1044     1.0  0.98889  0.69623  0.77248  1.0000
  C   C630      1.0  0.18147  0.67740  0.96636  1.0000
  C   C631      1.0  0.13162  0.89438  0.65516  1.0000
  C   C632      1.0  0.01250  0.70031  0.81055  1.0000
  H   H1045     1.0  0.07276  0.91752  0.74603  1.0000
  Fe  Fe97      1.0  0.07216  0.49050  0.83532  1.0000
  C   C633      1.0  0.04098  0.85302  0.65579  1.0000
  H   H1046     1.0  0.22616  0.71604  0.97698  1.0000
  H   H1047     1.0  0.99164  0.79327  0.79002  1.0000
  H   H1048     1.0  0.19867  0.88807  0.68006  1.0000
  H   H1049     1.0  0.10106  0.62997  0.95417  1.0000
  C   C634      1.0  0.20607  0.89552  0.85263  1.0000
  C   C635      1.0  0.06093  0.84682  0.66373  1.0000
  H   H1050     1.0  0.14016  0.53784  0.70611  1.0000
  C   C636      1.0  0.03457  0.69745  0.80031  1.0000
  H   H1051     1.0  0.22962  0.95435  0.79338  1.0000
  H   H1052     1.0  0.04309  0.57999  0.82416  1.0000
  C   C637      1.0  0.00095  0.69248  0.78170  1.0000
  H   H1053     1.0  0.07033  0.53426  0.72365  1.0000
  S   S180      1.0  0.02654  0.78224  0.76020  1.0000
  H   H1054     1.0  0.17268  0.68372  0.95408  1.0000
  C   C638      1.0  0.14322  0.92523  0.65568  1.0000
  C   C639      1.0  0.09749  0.84541  0.65902  1.0000
  H   H1055     1.0  0.21523  0.87730  0.88025  1.0000
  H   H1056     1.0  0.11069  0.50511  0.68911  1.0000
  H   H1057     1.0  0.03547  0.73451  0.82188  1.0000
  H   H1058     1.0  0.17200  0.66830  0.97807  1.0000
  H   H1059     1.0  0.01189  0.90704  0.77966  1.0000
  S   S181      1.0  0.22704  0.96695  0.86702  1.0000
  C   C640      1.0  0.17779  0.76948  0.97632  1.0000
  S   S182      1.0  0.22118  0.48563  0.65036  1.0000
  C   C641      1.0  0.06249  0.77342  0.88403  1.0000
  H   H1060     1.0  0.03843  0.68496  0.79168  1.0000
  H   H1061     1.0  0.04419  0.69343  0.81200  1.0000
  H   H1062     1.0  0.03867  0.71129  0.79051  1.0000
  H   H1063     1.0  0.02878  0.84935  0.66830  1.0000
  H   H1064     1.0  0.98987  0.49185  0.74390  1.0000
  H   H1065     1.0  0.03693  0.89422  0.78234  1.0000
  H   H1066     1.0  0.02162  0.77850  0.85038  1.0000
  H   H1067     1.0  0.13496  0.65625  0.97701  1.0000
  H   H1068     1.0  0.20046  0.91836  0.81588  1.0000
  H   H1069     1.0  0.02808  0.93039  0.78653  1.0000
  H   H1070     1.0  0.09774  0.51133  0.73351  1.0000
  H   H1071     1.0  0.12159  0.50763  0.83066  1.0000
  H   H1072     1.0  0.12935  0.54327  0.67825  1.0000
  S   S183      1.0  0.00593  0.81523  0.66872  1.0000
  N   N45       1.0  0.99731  0.70640  0.79670  1.0000
  H   H1073     1.0  0.05131  0.95608  0.77978  1.0000
  H   H1074     1.0  0.06671  0.77001  0.91549  1.0000
  H   H1075     1.0  0.04705  0.53149  0.70190  1.0000
  S   S184      1.0  0.05325  0.48896  0.81313  1.0000
  H   H1076     1.0  0.05867  0.85356  0.67736  1.0000
  H   H1077     1.0  0.20010  0.78866  0.97099  1.0000
  H   H1078     1.0  0.12827  0.48614  0.84901  1.0000
  H   H1079     1.0  0.21527  0.92599  0.88182  1.0000
  H   H1080     1.0  0.19498  0.66764  0.95999  1.0000
  H   H1081     1.0  0.17404  0.49423  0.68962  1.0000
  H   H1082     1.0  0.07073  0.50902  0.88625  1.0000
  H   H1083     1.0  0.03404  0.61699  0.81560  1.0000
  H   H1084     1.0  0.04986  0.95146  0.70386  1.0000
  H   H1085     1.0  0.22309  0.90854  0.67801  1.0000
  C   C642      1.0  0.19977  0.92347  0.88349  1.0000
  H   H1086     1.0  0.01491  0.69435  0.77080  1.0000
  H   H1087     1.0  0.19847  0.90800  0.89123  1.0000
  H   H1088     1.0  0.02453  0.76888  0.88427  1.0000
  H   H1089     1.0  0.13576  0.55637  0.86151  1.0000
  H   H1090     1.0  0.09168  0.72732  0.88904  1.0000
  C   C643      1.0  0.03593  0.95948  0.77637  1.0000
  C   C644      1.0  0.08924  0.64034  0.96224  1.0000
  S   S185      1.0  0.00442  0.84196  0.74951  1.0000
  H   H1091     1.0  0.08861  0.76006  0.89938  1.0000
  H   H1092     1.0  0.09635  0.52926  0.90529  1.0000
  H   H1093     1.0  0.11965  0.49795  0.74244  1.0000
  H   H1094     1.0  0.08005  0.49860  0.90955  1.0000
  H   H1095     1.0  0.12549  0.88129  0.66326  1.0000
  C   C645      1.0  0.13514  0.90827  0.66590  1.0000
  C   C646      1.0  0.19156  0.92837  0.86362  1.0000
  H   H1096     1.0  0.16834  0.51390  0.70394  1.0000
  H   H1097     1.0  0.08210  0.59909  0.97789  1.0000
  C   C647      1.0  0.03708  0.77260  0.85326  1.0000
  S   S186      1.0  0.99711  0.68609  0.86932  1.0000
  H   H1098     1.0  0.03954  0.69589  0.96439  1.0000
  N   N46       1.0  0.05555  0.75447  0.88267  1.0000
  H   H1099     1.0  0.09987  0.74818  0.87065  1.0000
  C   C648      1.0  0.05183  0.74111  0.90271  1.0000
  H   H1100     1.0  0.04464  0.78566  0.85138  1.0000
  H   H1101     1.0  0.07016  0.89571  0.77639  1.0000
  C   C649      1.0  0.12294  0.54836  0.86376  1.0000
  C   C650      1.0  0.00206  0.66997  0.79052  1.0000
  H   H1102     1.0  0.05715  0.91480  0.79109  1.0000
  H   H1103     1.0  0.09712  0.50025  0.86415  1.0000
  S   S187      1.0  0.99929  0.74344  0.85081  1.0000
  C   C651      1.0  0.18167  0.97820  0.79538  1.0000
  H   H1104     1.0  0.06524  0.73695  0.91003  1.0000
  H   H1105     1.0  0.04866  0.72661  0.90072  1.0000
  N   N47       1.0  0.04234  0.93127  0.75530  1.0000
  C   C652      1.0  0.11210  0.50161  0.72904  1.0000
  H   H1106     1.0  0.13237  0.52256  0.66500  1.0000
  N   N48       1.0  0.07916  0.85208  0.64912  1.0000
  H   H1107     1.0  0.16016  0.97228  0.77941  1.0000
  C   C653      1.0  0.19185  0.92420  0.82946  1.0000
  C   C654      1.0  0.02619  0.89961  0.77185  1.0000
  C   C655      1.0  0.11188  0.54609  0.72383  1.0000
  H   H1108     1.0  0.04954  0.78550  0.88711  1.0000
  C   C656      1.0  0.18572  0.88197  0.65656  1.0000
  H   H1109     1.0  0.19058  0.93353  0.89376  1.0000
  H   H1110     1.0  0.09922  0.52487  0.85332  1.0000
  H   H1111     1.0  0.03763  0.86936  0.65045  1.0000
  C   C657      1.0  0.12190  0.53179  0.67528  1.0000
  H   H1112     1.0  0.08110  0.78642  0.89799  1.0000
  H   H1113     1.0  0.22005  0.94207  0.83323  1.0000
  H   H1114     1.0  0.11495  0.49368  0.96075  1.0000
  H   H1115     1.0  0.11036  0.84479  0.68539  1.0000
  C   C658      1.0  0.07216  0.88906  0.65490  1.0000
  H   H1116     1.0  0.17628  0.92470  0.86782  1.0000
  H   H1117     1.0  0.99839  0.73755  0.79607  1.0000
  C   C659      1.0  0.07607  0.51253  0.89897  1.0000
  S   S188      1.0  0.00108  0.50327  0.66672  1.0000
  Fe  Fe98      1.0  0.02116  0.85136  0.71873  1.0000
  S   S189      1.0  0.03058  0.82016  0.71212  1.0000
  H   H1118     1.0  0.17245  0.90099  0.83658  1.0000
  H   H1119     1.0  0.12080  0.54690  0.84869  1.0000
  H   H1120     1.0  0.19319  0.94639  0.66461  1.0000
  Fe  Fe99      1.0  0.00250  0.82499  0.69905  1.0000
  C   C660      1.0  0.22218  0.88535  0.86575  1.0000
  H   H1121     1.0  0.20965  0.88834  0.83900  1.0000
  H   H1122     1.0  0.18971  0.94495  0.85876  1.0000
  C   C661      1.0  0.06384  0.92546  0.75815  1.0000
  S   S190      1.0  0.04674  0.49209  0.67838  1.0000
  H   H1123     1.0  0.20771  0.94270  0.68393  1.0000
  H   H1124     1.0  0.18912  0.94079  0.82516  1.0000
  H   H1125     1.0  0.15934  0.51718  0.68043  1.0000
  H   H1126     1.0  0.10274  0.55196  0.71183  1.0000
  H   H1127     1.0  0.01424  0.66415  0.79940  1.0000
  H   H1128     1.0  0.15049  0.49358  0.89450  1.0000
  H   H1129     1.0  0.23241  0.91758  0.80920  1.0000
  C   C662      1.0  0.18662  0.69489  0.97403  1.0000
  H   H1130     1.0  0.17433  0.87479  0.66788  1.0000
  C   C663      1.0  0.11297  0.51849  0.69431  1.0000
  C   C664      1.0  0.17527  0.96823  0.78245  1.0000
  H   H1131     1.0  0.12996  0.53054  0.89174  1.0000
  S   S191      1.0  0.03146  0.64887  0.83741  1.0000
  H   H1132     1.0  0.19765  0.86977  0.65180  1.0000
  C   C665      1.0  0.20125  0.97321  0.79967  1.0000
  H   H1133     1.0  0.22743  0.87798  0.65606  1.0000
  C   C666      1.0  0.23586  0.91300  0.93073  1.0000
  C   C667      1.0  0.10765  0.51106  0.86115  1.0000
  H   H1134     1.0  0.06286  0.83037  0.66933  1.0000
  H   H1135     1.0  0.22288  0.96944  0.96499  1.0000
  H   H1136     1.0  0.23306  0.87391  0.85824  1.0000
  H   H1137     1.0  0.10994  0.85306  0.65030  1.0000
  H   H1138     1.0  0.03580  0.74084  0.93326  1.0000
  C   C668      1.0  0.16214  0.50661  0.69424  1.0000
  H   H1139     1.0  0.11554  0.49612  0.90959  1.0000
  C   C669      1.0  0.19333  0.89670  0.66613  1.0000
  N   N49       1.0  0.20928  0.90765  0.65294  1.0000
  H   H1140     1.0  0.01989  0.74767  0.91482  1.0000
  H   H1141     1.0  0.03404  0.76550  0.91846  1.0000
  H   H1142     1.0  0.06371  0.62496  0.96325  1.0000
  H   H1143     1.0  0.02297  0.88614  0.76747  1.0000
  H   H1144     1.0  0.98777  0.66659  0.79979  1.0000
  H   H1145     1.0  0.20277  0.72978  0.96964  1.0000
  H   H1146     1.0  0.17225  0.70489  0.97805  1.0000
  C   C670      1.0  0.12622  0.64537  0.97478  1.0000
  S   S192      1.0  0.03148  0.53600  0.65159  1.0000
  H   H1147     1.0  0.05754  0.65188  0.96054  1.0000
  H   H1148     1.0  0.22543  0.68548  0.96982  1.0000
  S   S193      1.0  0.99816  0.49423  0.84446  1.0000
  H   H1149     1.0  0.22884  0.92333  0.94091  1.0000
  Fe  Fe100     1.0  0.23418  0.98053  0.83450  1.0000
  C   C671      1.0  0.10873  0.48696  0.65708  1.0000
  H   H1150     1.0  0.09649  0.48485  0.71482  1.0000
  H   H1151     1.0  0.13309  0.49033  0.97738  1.0000
  H   H1152     1.0  0.13434  0.63032  0.98013  1.0000
  H   H1153     1.0  0.21668  0.66319  0.98081  1.0000
  H   H1154     1.0  0.14846  0.48793  0.71940  1.0000
  H   H1155     1.0  0.14082  0.48734  0.69662  1.0000
  S   S194      1.0  0.41127  0.45064  0.26622  1.0000
  Fe  Fe101     1.0  0.46384  0.34960  0.24320  1.0000
  Fe  Fe102     1.0  0.25303  0.05603  0.99939  1.0000
  S   S195      1.0  0.43144  0.36005  0.25436  1.0000
  H   H1156     1.0  0.43438  0.18407  0.13191  1.0000
  H   H1157     1.0  0.30718  0.45203  0.19461  1.0000
  H   H1158     1.0  0.32390  0.99811  0.09034  1.0000
  H   H1159     1.0  0.28115  0.45815  0.01885  1.0000
  Fe  Fe103     1.0  0.28166  0.08646  0.98631  1.0000
  S   S196      1.0  0.39485  0.48224  0.21880  1.0000
  H   H1160     1.0  0.48035  0.98768  0.13357  1.0000
  C   C672      1.0  0.34753  0.04960  0.05405  1.0000
  S   S197      1.0  0.25098  0.02425  0.01452  1.0000
  H   H1161     1.0  0.27875  0.44844  0.22413  1.0000
  H   H1162     1.0  0.39420  0.38634  0.26202  1.0000
  Fe  Fe104     1.0  0.43784  0.28923  0.10913  1.0000
  S   S198      1.0  0.41754  0.27404  0.09771  1.0000
  S   S199      1.0  0.43520  0.28931  0.14238  1.0000
  Fe  Fe105     1.0  0.45867  0.30364  0.06761  1.0000
  S   S200      1.0  0.44044  0.29001  0.05253  1.0000
  H   H1163     1.0  0.40487  0.43195  0.15241  1.0000
  Fe  Fe106     1.0  0.41452  0.30179  0.07439  1.0000
  S   S201      1.0  0.38408  0.31434  0.06590  1.0000
  Fe  Fe107     1.0  0.44475  0.26317  0.07657  1.0000
  S   S202      1.0  0.45273  0.23388  0.06453  1.0000
  S   S203      1.0  0.43235  0.31799  0.08756  1.0000
  S   S204      1.0  0.46547  0.27581  0.08993  1.0000
  Fe  Fe108     1.0  0.37731  0.11775  0.05746  1.0000
  S   S205      1.0  0.38740  0.11565  0.08691  1.0000
  S   S206      1.0  0.34578  0.11248  0.05793  1.0000
  Fe  Fe109     1.0  0.41630  0.12929  0.03430  1.0000
  S   S207      1.0  0.43000  0.12775  0.06146  1.0000
  S   S208      1.0  0.43068  0.14108  0.00322  1.0000
  Fe  Fe110     1.0  0.41678  0.09971  0.07300  1.0000
  S   S209      1.0  0.43037  0.07194  0.09270  1.0000
  Fe  Fe111     1.0  0.39995  0.14382  0.07353  1.0000
  S   S210      1.0  0.39674  0.16789  0.09241  1.0000
  S   S211      1.0  0.40584  0.09955  0.04443  1.0000
  S   S212      1.0  0.38710  0.14760  0.04550  1.0000
  C   C673      1.0  0.43700  0.21572  0.07245  1.0000
  C   C674      1.0  0.42322  0.21559  0.09024  1.0000
  C   C675      1.0  0.41095  0.20083  0.09621  1.0000
  C   C676      1.0  0.41237  0.18614  0.08444  1.0000
  C   C677      1.0  0.42614  0.18628  0.06663  1.0000
  C   C678      1.0  0.43850  0.20095  0.06074  1.0000
  H   H1164     1.0  0.42210  0.22678  0.09947  1.0000
  H   H1165     1.0  0.40033  0.20079  0.11001  1.0000
  H   H1166     1.0  0.42730  0.17506  0.05741  1.0000
  H   H1167     1.0  0.44919  0.20090  0.04699  1.0000
  C   C679      1.0  0.47315  0.99062  0.30322  1.0000
  H   H1168     1.0  0.46418  0.00338  0.10252  1.0000
  C   C680      1.0  0.47073  0.32113  0.01534  1.0000
  C   C681      1.0  0.47379  0.31947  0.99500  1.0000
  H   H1169     1.0  0.42705  0.43297  0.16173  1.0000
  H   H1170     1.0  0.45576  0.32357  0.02366  1.0000
  H   H1171     1.0  0.46501  0.15716  0.07535  1.0000
  H   H1172     1.0  0.30234  0.03984  0.01002  1.0000
  C   C682      1.0  0.32111  0.01471  0.08639  1.0000
  C   C683      1.0  0.45567  0.13056  0.99660  1.0000
  C   C684      1.0  0.46420  0.11292  0.00787  1.0000
  C   C685      1.0  0.48638  0.26475  0.02255  1.0000
  H   H1173     1.0  0.45553  0.10600  0.02135  1.0000
  C   C686      1.0  0.38116  0.34991  0.00287  1.0000
  C   C687      1.0  0.39967  0.34169  0.00880  1.0000
  C   C688      1.0  0.40071  0.33030  0.02792  1.0000
  C   C689      1.0  0.38322  0.32701  0.04122  1.0000
  C   C690      1.0  0.36468  0.33471  0.03510  1.0000
  C   C691      1.0  0.36364  0.34612  0.01592  1.0000
  H   H1174     1.0  0.41328  0.34460  0.99876  1.0000
  H   H1175     1.0  0.41504  0.32459  0.03253  1.0000
  H   H1176     1.0  0.35109  0.33221  0.04536  1.0000
  H   H1177     1.0  0.34932  0.35237  0.01140  1.0000
  H   H1178     1.0  0.47480  0.04962  0.14280  1.0000
  H   H1179     1.0  0.47854  0.27369  0.24282  1.0000
  C   C692      1.0  0.35296  0.44572  0.01320  1.0000
  C   C693      1.0  0.29189  0.46054  0.19407  1.0000
  H   H1180     1.0  0.36634  0.43579  0.01676  1.0000
  S   S213      1.0  0.35777  0.46180  0.24787  1.0000
  H   H1181     1.0  0.47172  0.24827  0.17950  1.0000
  C   C694      1.0  0.45559  0.05915  0.12036  1.0000
  C   C695      1.0  0.45181  0.07225  0.10264  1.0000
  C   C696      1.0  0.46511  0.08532  0.09323  1.0000
  C   C697      1.0  0.29694  0.45631  0.31368  1.0000
  C   C698      1.0  0.24639  0.02544  0.07384  1.0000
  H   H1182     1.0  0.44539  0.04904  0.12779  1.0000
  H   H1183     1.0  0.46258  0.09515  0.07936  1.0000
  H   H1184     1.0  0.47402  0.23082  0.02106  1.0000
  C   C699      1.0  0.32215  0.09749  0.00609  1.0000
  C   C700      1.0  0.30900  0.10462  0.02224  1.0000
  C   C701      1.0  0.31646  0.10976  0.03768  1.0000
  C   C702      1.0  0.33711  0.10792  0.03710  1.0000
  C   C703      1.0  0.35023  0.10127  0.02070  1.0000
  C   C704      1.0  0.34277  0.09602  0.00532  1.0000
  H   H1185     1.0  0.29309  0.10608  0.02289  1.0000
  H   H1186     1.0  0.30619  0.11502  0.05025  1.0000
  H   H1187     1.0  0.36614  0.09980  0.02006  1.0000
  C   C705      1.0  0.40866  0.98580  0.15906  1.0000
  S   S214      1.0  0.47232  0.32013  0.23233  1.0000
  H   H1188     1.0  0.40801  0.00361  0.09742  1.0000
  C   C706      1.0  0.46725  0.30887  0.13775  1.0000
  C   C707      1.0  0.45064  0.30234  0.15055  1.0000
  C   C708      1.0  0.44661  0.30561  0.17049  1.0000
  C   C709      1.0  0.45920  0.31511  0.17765  1.0000
  C   C710      1.0  0.28122  0.07134  0.06015  1.0000
  H   H1189     1.0  0.46845  0.27030  0.19021  1.0000
  H   H1190     1.0  0.43375  0.30063  0.18045  1.0000
  H   H1191     1.0  0.45598  0.31747  0.19304  1.0000
  C   C711      1.0  0.42594  0.38492  0.25860  1.0000
  C   C712      1.0  0.44120  0.39551  0.25814  1.0000
  C   C713      1.0  0.43653  0.41562  0.26078  1.0000
  C   C714      1.0  0.41666  0.42539  0.26324  1.0000
  C   C715      1.0  0.40141  0.41484  0.26350  1.0000
  C   C716      1.0  0.40604  0.39453  0.26155  1.0000
  H   H1192     1.0  0.45660  0.38820  0.25584  1.0000
  H   H1193     1.0  0.44836  0.42372  0.26063  1.0000
  H   H1194     1.0  0.38604  0.42223  0.26566  1.0000
  H   H1195     1.0  0.47812  0.27880  0.98394  1.0000
  S   S215      1.0  0.48393  0.31936  0.05067  1.0000
  H   H1196     1.0  0.39056  0.99609  0.11902  1.0000
  C   C717      1.0  0.46316  0.15638  0.09182  1.0000
  H   H1197     1.0  0.28320  0.04431  0.03073  1.0000
  H   H1198     1.0  0.47915  0.25294  0.23123  1.0000
  N   N50       1.0  0.31165  0.04278  0.05727  1.0000
  H   H1199     1.0  0.44315  0.36662  0.20044  1.0000
  C   C718      1.0  0.28017  0.46349  0.21507  1.0000
  H   H1200     1.0  0.42675  0.34939  0.20270  1.0000
  C   C719      1.0  0.47991  0.31822  0.14495  1.0000
  H   H1201     1.0  0.44389  0.27216  0.99004  1.0000
  C   C720      1.0  0.42917  0.36493  0.19613  1.0000
  H   H1202     1.0  0.26108  0.45371  0.03844  1.0000
  N   N51       1.0  0.25222  0.47238  0.01130  1.0000
  C   C721      1.0  0.47791  0.26936  0.22836  1.0000
  H   H1203     1.0  0.28122  0.07479  0.04383  1.0000
  H   H1204     1.0  0.31607  0.47678  0.23555  1.0000
  C   C722      1.0  0.38536  0.03929  0.11732  1.0000
  H   H1205     1.0  0.24247  0.44353  0.02011  1.0000
  H   H1206     1.0  0.40237  0.43960  0.17553  1.0000
  H   H1207     1.0  0.32320  0.05429  0.07901  1.0000
  H   H1208     1.0  0.30530  0.01248  0.06363  1.0000
  S   S216      1.0  0.47934  0.36639  0.21526  1.0000
  C   C723      1.0  0.31343  0.04625  0.03481  1.0000
  H   H1209     1.0  0.33067  0.01389  0.05484  1.0000
  C   C724      1.0  0.43470  0.15223  0.13359  1.0000
  H   H1210     1.0  0.25579  0.98588  0.03909  1.0000
  H   H1211     1.0  0.31072  0.44322  0.25201  1.0000
  C   C725      1.0  0.29887  0.03712  0.02664  1.0000
  H   H1212     1.0  0.46280  0.27610  0.22490  1.0000
  H   H1213     1.0  0.26468  0.47045  0.21287  1.0000
  N   N52       1.0  0.41219  0.40172  0.19801  1.0000
  C   C726      1.0  0.41100  0.37970  0.20441  1.0000
  C   C727      1.0  0.39411  0.41311  0.20948  1.0000
  C   C728      1.0  0.43110  0.40519  0.20344  1.0000
  C   C729      1.0  0.41267  0.40684  0.17569  1.0000
  H   H1214     1.0  0.35106  0.05835  0.03880  1.0000
  C   C730      1.0  0.37372  0.41089  0.20540  1.0000
  C   C731      1.0  0.24657  0.03166  0.05313  1.0000
  H   H1215     1.0  0.40877  0.37564  0.22107  1.0000
  H   H1216     1.0  0.39797  0.37598  0.19977  1.0000
  H   H1217     1.0  0.39433  0.42941  0.20678  1.0000
  H   H1218     1.0  0.39401  0.40846  0.22583  1.0000
  H   H1219     1.0  0.43424  0.39525  0.21766  1.0000
  H   H1220     1.0  0.44845  0.10311  0.12744  1.0000
  H   H1221     1.0  0.40073  0.40108  0.17110  1.0000
  H   H1222     1.0  0.44298  0.00443  0.09109  1.0000
  C   C732      1.0  0.40793  0.03137  0.11610  1.0000
  H   H1223     1.0  0.36187  0.42073  0.21399  1.0000
  H   H1224     1.0  0.37233  0.41586  0.18939  1.0000
  H   H1225     1.0  0.37049  0.39548  0.21064  1.0000
  C   C733      1.0  0.26801  0.48232  0.31211  1.0000
  H   H1226     1.0  0.41436  0.03435  0.09990  1.0000
  S   S217      1.0  0.25032  0.99722  0.10767  1.0000
  H   H1227     1.0  0.32359  0.46235  0.29269  1.0000
  H   H1228     1.0  0.28406  0.45170  0.18740  1.0000
  C   C734      1.0  0.40668  0.99675  0.11357  1.0000
  C   C735      1.0  0.24993  0.00500  0.08190  1.0000
  H   H1229     1.0  0.44991  0.27591  0.01263  1.0000
  C   C736      1.0  0.44833  0.01039  0.10235  1.0000
  S   S218      1.0  0.36240  0.46268  0.18987  1.0000
  H   H1230     1.0  0.24362  0.03646  0.08358  1.0000
  H   H1231     1.0  0.28859  0.08216  0.06457  1.0000
  C   C737      1.0  0.34988  0.47802  0.17103  1.0000
  C   C738      1.0  0.43623  0.00574  0.12355  1.0000
  C   C739      1.0  0.24690  0.45411  0.00622  1.0000
  H   H1232     1.0  0.30806  0.02020  0.09721  1.0000
  H   H1233     1.0  0.40802  0.13148  0.12502  1.0000
  H   H1234     1.0  0.35264  0.03352  0.05337  1.0000
  H   H1235     1.0  0.44811  0.02674  0.09757  1.0000
  H   H1236     1.0  0.26536  0.07384  0.06751  1.0000
  H   H1237     1.0  0.31019  0.43580  0.22843  1.0000
  H   H1238     1.0  0.44076  0.01455  0.13318  1.0000
  C   C740      1.0  0.34411  0.44303  0.99758  1.0000
  C   C741      1.0  0.29060  0.04947  0.06716  1.0000
  H   H1239     1.0  0.38328  0.05443  0.10797  1.0000
  C   C742      1.0  0.36505  0.26389  0.08885  1.0000
  C   C743      1.0  0.47553  0.26347  0.99141  1.0000
  H   H1240     1.0  0.44696  0.42699  0.20906  1.0000
  H   H1241     1.0  0.37301  0.26322  0.10145  1.0000
  C   C744      1.0  0.34468  0.46139  0.02398  1.0000
  S   S219      1.0  0.25637  0.08238  0.01192  1.0000
  H   H1242     1.0  0.28232  0.47500  0.04570  1.0000
  C   C745      1.0  0.46744  0.12200  0.15433  1.0000
  H   H1243     1.0  0.42241  0.15869  0.12483  1.0000
  H   H1244     1.0  0.31151  0.06248  0.02858  1.0000
  C   C746      1.0  0.25318  0.99700  0.04872  1.0000
  C   C747      1.0  0.46812  0.12945  0.13166  1.0000
  H   H1245     1.0  0.33453  0.01998  0.08834  1.0000
  C   C748      1.0  0.32778  0.47468  0.01870  1.0000
  H   H1246     1.0  0.27857  0.45855  0.25485  1.0000
  C   C749      1.0  0.41891  0.11763  0.12297  1.0000
  H   H1247     1.0  0.43383  0.11365  0.14798  1.0000
  N   N53       1.0  0.44814  0.13499  0.12475  1.0000
  H   H1248     1.0  0.43676  0.14395  0.09672  1.0000
  H   H1249     1.0  0.42661  0.39887  0.16772  1.0000
  H   H1250     1.0  0.45899  0.17122  0.12582  1.0000
  C   C750      1.0  0.43806  0.11675  0.13139  1.0000
  C   C751      1.0  0.44455  0.16973  0.13563  1.0000
  C   C752      1.0  0.31033  0.46829  0.22655  1.0000
  C   C753      1.0  0.25013  0.01739  0.04053  1.0000
  H   H1251     1.0  0.37807  0.04120  0.13279  1.0000
  H   H1252     1.0  0.41159  0.10469  0.13089  1.0000
  C   C754      1.0  0.43175  0.42646  0.20664  1.0000
  H   H1253     1.0  0.27175  0.00124  0.98196  1.0000
  H   H1254     1.0  0.36698  0.27842  0.07931  1.0000
  N   N54       1.0  0.37501  0.39026  0.05538  1.0000
  C   C755      1.0  0.39669  0.38660  0.05776  1.0000
  C   C756      1.0  0.36627  0.41107  0.05970  1.0000
  C   C757      1.0  0.37440  0.38962  0.03385  1.0000
  C   C758      1.0  0.36498  0.37411  0.06941  1.0000
  C   C759      1.0  0.40941  0.36672  0.05249  1.0000
  C   C760      1.0  0.36573  0.41428  0.08123  1.0000
  C   C761      1.0  0.35367  0.39295  0.02778  1.0000
  C   C762      1.0  0.34192  0.37834  0.07467  1.0000
  H   H1255     1.0  0.40434  0.39892  0.04846  1.0000
  H   H1256     1.0  0.39805  0.38659  0.07350  1.0000
  H   H1257     1.0  0.35093  0.41613  0.05646  1.0000
  H   H1258     1.0  0.37484  0.42220  0.04948  1.0000
  H   H1259     1.0  0.38292  0.40078  0.02359  1.0000
  H   H1260     1.0  0.38180  0.37484  0.02994  1.0000
  H   H1261     1.0  0.36911  0.35989  0.06326  1.0000
  H   H1262     1.0  0.37066  0.37050  0.08392  1.0000
  H   H1263     1.0  0.40262  0.35349  0.06043  1.0000
  H   H1264     1.0  0.41253  0.36675  0.03611  1.0000
  H   H1265     1.0  0.42415  0.36481  0.05721  1.0000
  H   H1266     1.0  0.38083  0.41445  0.08407  1.0000
  H   H1267     1.0  0.35683  0.42926  0.08315  1.0000
  H   H1268     1.0  0.35860  0.40305  0.09270  1.0000
  H   H1269     1.0  0.34428  0.40732  0.03072  1.0000
  H   H1270     1.0  0.34563  0.38036  0.03492  1.0000
  H   H1271     1.0  0.35570  0.39333  0.01136  1.0000
  H   H1272     1.0  0.33583  0.36555  0.07218  1.0000
  H   H1273     1.0  0.33445  0.39193  0.06596  1.0000
  H   H1274     1.0  0.33719  0.37924  0.09084  1.0000
  N   N55       1.0  0.37277  0.24805  0.05645  1.0000
  C   C763      1.0  0.38376  0.22895  0.04919  1.0000
  C   C764      1.0  0.38263  0.26501  0.04379  1.0000
  C   C765      1.0  0.35134  0.25087  0.05351  1.0000
  C   C766      1.0  0.37414  0.24576  0.07830  1.0000
  C   C767      1.0  0.37392  0.21011  0.05737  1.0000
  C   C768      1.0  0.40482  0.26373  0.04475  1.0000
  C   C769      1.0  0.33937  0.27238  0.05177  1.0000
  H   H1275     1.0  0.38592  0.23091  0.03253  1.0000
  H   H1276     1.0  0.39899  0.22492  0.05314  1.0000
  H   H1277     1.0  0.37508  0.27978  0.04768  1.0000
  H   H1278     1.0  0.38140  0.26613  0.02777  1.0000
  H   H1279     1.0  0.35055  0.24581  0.03941  1.0000
  H   H1280     1.0  0.34274  0.24135  0.06583  1.0000
  H   H1281     1.0  0.36661  0.23331  0.08724  1.0000
  H   H1282     1.0  0.38978  0.24093  0.08091  1.0000
  H   H1283     1.0  0.38390  0.19707  0.05157  1.0000
  H   H1284     1.0  0.37184  0.20627  0.07391  1.0000
  H   H1285     1.0  0.35951  0.21143  0.05226  1.0000
  H   H1286     1.0  0.40997  0.27736  0.03534  1.0000
  H   H1287     1.0  0.40719  0.26347  0.06017  1.0000
  H   H1288     1.0  0.41440  0.25072  0.03867  1.0000
  H   H1289     1.0  0.32356  0.27180  0.05153  1.0000
  H   H1290     1.0  0.34482  0.28184  0.03749  1.0000
  H   H1291     1.0  0.33941  0.27983  0.06443  1.0000
  H   H1292     1.0  0.45656  0.13207  0.16344  1.0000
  H   H1293     1.0  0.47388  0.25940  0.03377  1.0000
  H   H1294     1.0  0.28963  0.04774  0.08364  1.0000
  C   C770      1.0  0.30811  0.46797  0.29800  1.0000
  C   C771      1.0  0.32513  0.05471  0.06257  1.0000
  H   H1295     1.0  0.37769  0.02973  0.11144  1.0000
  C   C772      1.0  0.31727  0.02064  0.06459  1.0000
  H   H1296     1.0  0.46406  0.10652  0.15864  1.0000
  H   H1297     1.0  0.44426  0.40104  0.19197  1.0000
  H   H1298     1.0  0.32873  0.04014  0.02775  1.0000
  H   H1299     1.0  0.45895  0.12588  0.09584  1.0000
  Fe  Fe112     1.0  0.36495  0.47679  0.21584  1.0000
  C   C773      1.0  0.45128  0.13952  0.10217  1.0000
  H   H1300     1.0  0.46115  0.32036  0.98775  1.0000
  H   H1301     1.0  0.28056  0.03975  0.06511  1.0000
  H   H1302     1.0  0.47836  0.15368  0.09550  1.0000
  H   H1303     1.0  0.31936  0.47085  0.21134  1.0000
  N   N56       1.0  0.41386  0.00963  0.12493  1.0000
  C   C774      1.0  0.47224  0.05946  0.12892  1.0000
  H   H1304     1.0  0.42245  0.11614  0.10693  1.0000
  H   H1305     1.0  0.48121  0.28096  0.01777  1.0000
  H   H1306     1.0  0.35644  0.05337  0.06400  1.0000
  H   H1307     1.0  0.44626  0.16880  0.15143  1.0000
  H   H1308     1.0  0.47664  0.00771  0.26558  1.0000
  H   H1309     1.0  0.34900  0.26385  0.09494  1.0000
  H   H1310     1.0  0.40868  0.01749  0.15448  1.0000
  H   H1311     1.0  0.35307  0.09059  0.99285  1.0000
  H   H1312     1.0  0.32089  0.07087  0.05674  1.0000
  H   H1313     1.0  0.42849  0.43814  0.19372  1.0000
  C   C775      1.0  0.40427  0.00686  0.14669  1.0000
  H   H1314     1.0  0.42716  0.14675  0.14897  1.0000
  H   H1315     1.0  0.48241  0.12126  0.15809  1.0000
  H   H1316     1.0  0.36462  0.46020  0.14837  1.0000
  C   C776      1.0  0.31583  0.44597  0.23556  1.0000
  C   C777      1.0  0.48381  0.10391  0.00130  1.0000
  H   H1317     1.0  0.44187  0.99007  0.12956  1.0000
  H   H1318     1.0  0.48601  0.29077  0.20223  1.0000
  C   C778      1.0  0.35385  0.47326  0.15167  1.0000
  H   H1319     1.0  0.30023  0.02070  0.03157  1.0000
  H   H1320     1.0  0.38776  0.01034  0.14825  1.0000
  C   C779      1.0  0.31930  0.47237  0.00271  1.0000
  H   H1321     1.0  0.33230  0.44170  0.23304  1.0000
  H   H1322     1.0  0.42146  0.43025  0.22037  1.0000
  C   C780      1.0  0.26355  0.44190  0.99295  1.0000
  H   H1323     1.0  0.43112  0.36613  0.17965  1.0000
  H   H1324     1.0  0.47048  0.30646  0.12237  1.0000
  H   H1325     1.0  0.24391  0.04743  0.04693  1.0000
  S   S220      1.0  0.35544  0.46409  0.04408  1.0000
  Fe  Fe113     1.0  0.38641  0.47004  0.25134  1.0000
  H   H1326     1.0  0.27742  0.43712  0.99950  1.0000
  C   C781      1.0  0.45343  0.26556  0.00163  1.0000
  C   C782      1.0  0.26646  0.46547  0.02614  1.0000
  C   C783      1.0  0.41184  0.42908  0.16606  1.0000
  H   H1327     1.0  0.41404  0.04123  0.12339  1.0000
  H   H1328     1.0  0.44899  0.25095  0.00890  1.0000
  H   H1329     1.0  0.46773  0.05627  0.98725  1.0000
  C   C784      1.0  0.47602  0.32128  0.16493  1.0000
  H   H1330     1.0  0.45486  0.17119  0.09488  1.0000
  H   H1331     1.0  0.35050  0.43083  0.98941  1.0000
  S   S221      1.0  0.32267  0.39538  0.98376  1.0000
  H   H1332     1.0  0.25847  0.42812  0.99148  1.0000
  H   H1333     1.0  0.40212  0.98640  0.17501  1.0000
  C   C785      1.0  0.48526  0.07290  0.11976  1.0000
  H   H1334     1.0  0.45546  0.08164  0.98654  1.0000
  H   H1335     1.0  0.45919  0.99214  0.29702  1.0000
  H   H1336     1.0  0.27719  0.47672  0.98699  1.0000
  C   C786      1.0  0.32724  0.45638  0.99231  1.0000
  H   H1337     1.0  0.46896  0.02348  0.30151  1.0000
  N   N57       1.0  0.28849  0.47585  0.22599  1.0000
  H   H1338     1.0  0.47667  0.14194  0.12760  1.0000
  C   C787      1.0  0.25314  0.99081  0.06931  1.0000
  H   H1339     1.0  0.34742  0.48202  0.12142  1.0000
  S   S222      1.0  0.31367  0.08919  0.98712  1.0000
  H   H1340     1.0  0.47779  0.11743  0.12387  1.0000
  C   C788      1.0  0.47958  0.25994  0.18167  1.0000
  C   C789      1.0  0.27080  0.48181  0.03613  1.0000
  H   H1341     1.0  0.30654  0.48299  0.99847  1.0000
  C   C790      1.0  0.27750  0.47443  0.24725  1.0000
  C   C791      1.0  0.48176  0.08564  0.10178  1.0000
  H   H1342     1.0  0.24666  0.47493  0.24324  1.0000
  H   H1343     1.0  0.29270  0.47493  0.18365  1.0000
  H   H1344     1.0  0.28454  0.48172  0.25628  1.0000
  H   H1345     1.0  0.24895  0.48169  0.26612  1.0000
  H   H1346     1.0  0.24446  0.99019  0.99743  1.0000
  C   C792      1.0  0.47171  0.00951  0.31243  1.0000
  H   H1347     1.0  0.48469  0.26801  0.16650  1.0000
  C   C793      1.0  0.25507  0.48322  0.24984  1.0000
  N   N58       1.0  0.29409  0.31810  0.48492  1.0000
  C   C794      1.0  0.43017  0.12197  0.64491  1.0000
  H   H1348     1.0  0.46425  0.20100  0.43404  1.0000
  H   H1349     1.0  0.28631  0.35116  0.60409  1.0000
  C   C795      1.0  0.45487  0.03808  0.40780  1.0000
  S   S223      1.0  0.26357  0.44878  0.34116  1.0000
  C   C796      1.0  0.43929  0.18987  0.42886  1.0000
  H   H1350     1.0  0.27238  0.33945  0.45448  1.0000
  C   C797      1.0  0.42441  0.27620  0.34746  1.0000
  H   H1351     1.0  0.26770  0.38180  0.59124  1.0000
  Fe  Fe114     1.0  0.33709  0.20231  0.51939  1.0000
  S   S224      1.0  0.33652  0.17473  0.54297  1.0000
  S   S225      1.0  0.30840  0.22141  0.51081  1.0000
  Fe  Fe115     1.0  0.38194  0.19259  0.50707  1.0000
  S   S226      1.0  0.38468  0.16402  0.52923  1.0000
  S   S227      1.0  0.41009  0.20398  0.49096  1.0000
  Fe  Fe116     1.0  0.35742  0.15875  0.51975  1.0000
  S   S228      1.0  0.35227  0.12734  0.51981  1.0000
  Fe  Fe117     1.0  0.36384  0.18222  0.55054  1.0000
  S   S229      1.0  0.36978  0.17560  0.58242  1.0000
  S   S230      1.0  0.35645  0.18582  0.49546  1.0000
  S   S231      1.0  0.36257  0.21131  0.52903  1.0000
  H   H1352     1.0  0.26747  0.39163  0.55544  1.0000
  Fe  Fe118     1.0  0.44865  0.19844  0.63373  1.0000
  S   S232      1.0  0.43227  0.21627  0.60892  1.0000
  S   S233      1.0  0.46531  0.16756  0.63048  1.0000
  Fe  Fe119     1.0  0.32622  0.07188  0.44336  1.0000
  S   S234      1.0  0.32596  0.06255  0.41413  1.0000
  S   S235      1.0  0.33689  0.10108  0.44218  1.0000
  Fe  Fe120     1.0  0.31140  0.03465  0.46697  1.0000
  S   S236      1.0  0.31029  0.02174  0.44003  1.0000
  S   S237      1.0  0.30107  0.01879  0.49774  1.0000
  Fe  Fe121     1.0  0.33969  0.03195  0.42790  1.0000
  S   S238      1.0  0.36650  0.01614  0.40909  1.0000
  Fe  Fe122     1.0  0.29651  0.05306  0.42837  1.0000
  S   S239      1.0  0.27119  0.05960  0.41054  1.0000
  S   S240      1.0  0.34224  0.04193  0.45614  1.0000
  S   S241      1.0  0.29537  0.06534  0.45633  1.0000
  C   C798      1.0  0.25217  0.04481  0.41791  1.0000
  H   H1353     1.0  0.36303  0.11963  0.56046  1.0000
  C   C799      1.0  0.25334  0.02840  0.43342  1.0000
  H   H1354     1.0  0.24368  0.38350  0.58532  1.0000
  H   H1355     1.0  0.26567  0.02503  0.44160  1.0000
  H   H1356     1.0  0.47980  0.18741  0.49836  1.0000
  H   H1357     1.0  0.26787  0.36158  0.63150  1.0000
  H   H1358     1.0  0.25964  0.36927  0.55358  1.0000
  H   H1359     1.0  0.25849  0.20556  0.48776  1.0000
  H   H1360     1.0  0.33420  0.99693  0.47435  1.0000
  C   C800      1.0  0.31360  0.28172  0.48564  1.0000
  C   C801      1.0  0.45837  0.23687  0.53532  1.0000
  C   C802      1.0  0.28826  0.34123  0.45156  1.0000
  H   H1361     1.0  0.28938  0.01168  0.35022  1.0000
  H   H1362     1.0  0.42113  0.29207  0.34962  1.0000
  H   H1363     1.0  0.44238  0.23469  0.40686  1.0000
  C   C803      1.0  0.38736  0.18700  0.58933  1.0000
  C   C804      1.0  0.39152  0.20578  0.57935  1.0000
  C   C805      1.0  0.40511  0.21474  0.58566  1.0000
  C   C806      1.0  0.41486  0.20487  0.60175  1.0000
  C   C807      1.0  0.41083  0.18602  0.61160  1.0000
  C   C808      1.0  0.39697  0.17723  0.60554  1.0000
  H   H1364     1.0  0.38396  0.21356  0.56705  1.0000
  H   H1365     1.0  0.40804  0.22941  0.57811  1.0000
  H   H1366     1.0  0.41819  0.17832  0.62407  1.0000
  H   H1367     1.0  0.39370  0.16282  0.61351  1.0000
  C   C809      1.0  0.34262  0.10726  0.46369  1.0000
  C   C810      1.0  0.33871  0.09554  0.48260  1.0000
  C   C811      1.0  0.34228  0.10159  0.49961  1.0000
  C   C812      1.0  0.34968  0.11944  0.49787  1.0000
  C   C813      1.0  0.35402  0.13092  0.47892  1.0000
  C   C814      1.0  0.35048  0.12484  0.46190  1.0000
  H   H1368     1.0  0.33263  0.08199  0.48413  1.0000
  H   H1369     1.0  0.33891  0.09262  0.51422  1.0000
  H   H1370     1.0  0.35994  0.14456  0.47739  1.0000
  H   H1371     1.0  0.35368  0.13390  0.44730  1.0000
  H   H1372     1.0  0.24593  0.47863  0.55832  1.0000
  C   C815      1.0  0.42014  0.18553  0.43708  1.0000
  C   C816      1.0  0.41109  0.18941  0.45635  1.0000
  C   C817      1.0  0.42109  0.19791  0.46726  1.0000
  C   C818      1.0  0.44022  0.20216  0.45904  1.0000
  H   H1373     1.0  0.30056  0.13876  0.52502  1.0000
  H   H1374     1.0  0.41230  0.17923  0.42852  1.0000
  H   H1375     1.0  0.39633  0.18606  0.46262  1.0000
  H   H1376     1.0  0.44804  0.20874  0.46738  1.0000
  C   C819      1.0  0.46636  0.18178  0.50758  1.0000
  C   C820      1.0  0.27382  0.27404  0.54144  1.0000
  C   C821      1.0  0.26580  0.26717  0.52764  1.0000
  C   C822      1.0  0.27648  0.25085  0.51858  1.0000
  C   C823      1.0  0.29519  0.24122  0.52329  1.0000
  C   C824      1.0  0.30314  0.24796  0.53723  1.0000
  C   C825      1.0  0.29247  0.26432  0.54627  1.0000
  C   C826      1.0  0.27691  0.46352  0.32095  1.0000
  H   H1377     1.0  0.27022  0.24569  0.50784  1.0000
  H   H1378     1.0  0.31754  0.24064  0.54097  1.0000
  H   H1379     1.0  0.29873  0.26948  0.55701  1.0000
  H   H1380     1.0  0.26066  0.28775  0.48560  1.0000
  C   C827      1.0  0.44938  0.19793  0.44003  1.0000
  S   S242      1.0  0.26121  0.29497  0.55255  1.0000
  H   H1381     1.0  0.32765  0.00128  0.35164  1.0000
  C   C828      1.0  0.29345  0.33634  0.49411  1.0000
  C   C829      1.0  0.26616  0.01906  0.37484  1.0000
  H   H1382     1.0  0.32967  0.11517  0.58205  1.0000
  H   H1383     1.0  0.34038  0.02670  0.36585  1.0000
  H   H1384     1.0  0.25135  0.27440  0.52399  1.0000
  H   H1385     1.0  0.28625  0.34839  0.52190  1.0000
  H   H1386     1.0  0.39918  0.09053  0.57727  1.0000
  H   H1387     1.0  0.37227  0.08707  0.61884  1.0000
  H   H1388     1.0  0.46903  0.08980  0.64598  1.0000
  H   H1389     1.0  0.30392  0.44172  0.32037  1.0000
  H   H1390     1.0  0.44627  0.27888  0.40085  1.0000
  C   C830      1.0  0.45577  0.19630  0.56055  1.0000
  H   H1391     1.0  0.32760  0.02952  0.39092  1.0000
  H   H1392     1.0  0.44212  0.23990  0.33714  1.0000
  C   C831      1.0  0.28019  0.32108  0.60979  1.0000
  H   H1393     1.0  0.30142  0.32420  0.52413  1.0000
  H   H1394     1.0  0.28132  0.29211  0.46649  1.0000
  C   C832      1.0  0.46603  0.06331  0.63500  1.0000
  H   H1395     1.0  0.39332  0.99401  0.38087  1.0000
  H   H1396     1.0  0.32031  0.28369  0.46958  1.0000
  H   H1397     1.0  0.44874  0.18311  0.56837  1.0000
  C   C833      1.0  0.36961  0.12834  0.61483  1.0000
  H   H1398     1.0  0.46083  0.21888  0.34250  1.0000
  H   H1399     1.0  0.24252  0.31589  0.60829  1.0000
  C   C834      1.0  0.23864  0.01614  0.43828  1.0000
  C   C835      1.0  0.36165  0.10535  0.57108  1.0000
  C   C836      1.0  0.36177  0.98776  0.56169  1.0000
  C   C837      1.0  0.36515  0.00735  0.56674  1.0000
  S   S243      1.0  0.45811  0.98501  0.63557  1.0000
  H   H1400     1.0  0.32479  0.27108  0.49373  1.0000
  H   H1401     1.0  0.29351  0.34222  0.43517  1.0000
  H   H1402     1.0  0.45878  0.01007  0.32486  1.0000
  H   H1403     1.0  0.47439  0.19139  0.58336  1.0000
  H   H1404     1.0  0.30787  0.34207  0.48938  1.0000
  N   N59       1.0  0.29723  0.16503  0.48521  1.0000
  C   C838      1.0  0.29757  0.14320  0.48478  1.0000
  C   C839      1.0  0.30600  0.16583  0.50325  1.0000
  C   C840      1.0  0.31045  0.17322  0.46646  1.0000
  C   C841      1.0  0.27597  0.17587  0.48597  1.0000
  C   C842      1.0  0.29220  0.13844  0.46586  1.0000
  C   C843      1.0  0.29588  0.15526  0.52345  1.0000
  C   C844      1.0  0.31308  0.19517  0.46403  1.0000
  C   C845      1.0  0.27053  0.19538  0.49500  1.0000
  H   H1405     1.0  0.31247  0.13432  0.48657  1.0000
  H   H1406     1.0  0.28710  0.13659  0.49765  1.0000
  H   H1407     1.0  0.30596  0.18133  0.50509  1.0000
  H   H1408     1.0  0.32208  0.15896  0.50130  1.0000
  H   H1409     1.0  0.32564  0.16399  0.46533  1.0000
  H   H1410     1.0  0.30471  0.17237  0.45283  1.0000
  H   H1411     1.0  0.27187  0.17944  0.47073  1.0000
  H   H1412     1.0  0.26557  0.16593  0.49524  1.0000
  H   H1413     1.0  0.30450  0.14002  0.45290  1.0000
  H   H1414     1.0  0.29031  0.12248  0.46861  1.0000
  H   H1415     1.0  0.27809  0.14771  0.46195  1.0000
  H   H1416     1.0  0.23980  0.00336  0.45018  1.0000
  H   H1417     1.0  0.30077  0.15996  0.53585  1.0000
  H   H1418     1.0  0.27941  0.15908  0.52547  1.0000
  H   H1419     1.0  0.29911  0.20558  0.46139  1.0000
  H   H1420     1.0  0.32441  0.19853  0.45053  1.0000
  H   H1421     1.0  0.31870  0.19831  0.47674  1.0000
  C   C846      1.0  0.30751  0.02970  0.36971  1.0000
  H   H1422     1.0  0.28276  0.20395  0.49294  1.0000
  H   H1423     1.0  0.36080  0.14218  0.62003  1.0000
  N   N60       1.0  0.41829  0.04594  0.40127  1.0000
  C   C847      1.0  0.39729  0.05076  0.41242  1.0000
  C   C848      1.0  0.41996  0.02617  0.39448  1.0000
  C   C849      1.0  0.42114  0.06247  0.38342  1.0000
  C   C850      1.0  0.43258  0.04509  0.41530  1.0000
  H   H1424     1.0  0.25190  0.39015  0.44323  1.0000
  C   C851      1.0  0.25871  0.37409  0.58457  1.0000
  C   C852      1.0  0.43758  0.05765  0.36554  1.0000
  H   H1425     1.0  0.45769  0.02659  0.39811  1.0000
  H   H1426     1.0  0.38621  0.05043  0.40291  1.0000
  H   H1427     1.0  0.39432  0.03936  0.42601  1.0000
  H   H1428     1.0  0.43972  0.27304  0.33916  1.0000
  H   H1429     1.0  0.41427  0.27507  0.33735  1.0000
  H   H1430     1.0  0.40714  0.06769  0.37695  1.0000
  H   H1431     1.0  0.42431  0.07584  0.38809  1.0000
  H   H1432     1.0  0.43172  0.06016  0.41908  1.0000
  H   H1433     1.0  0.42824  0.03576  0.43010  1.0000
  H   H1434     1.0  0.45306  0.19115  0.50201  1.0000
  H   H1435     1.0  0.32706  0.98476  0.62429  1.0000
  H   H1436     1.0  0.44710  0.03507  0.59955  1.0000
  H   H1437     1.0  0.43266  0.00487  0.41894  1.0000
  H   H1438     1.0  0.45252  0.05732  0.64369  1.0000
  C   C853      1.0  0.28631  0.00686  0.36677  1.0000
  H   H1439     1.0  0.43322  0.04762  0.35712  1.0000
  H   H1440     1.0  0.31361  0.00303  0.40450  1.0000
  H   H1441     1.0  0.43958  0.07175  0.35492  1.0000
  H   H1442     1.0  0.46012  0.16758  0.53885  1.0000
  H   H1443     1.0  0.43329  0.29109  0.38021  1.0000
  N   N61       1.0  0.45545  0.19977  0.53835  1.0000
  H   H1444     1.0  0.33471  0.99433  0.37570  1.0000
  C   C854      1.0  0.30998  0.99316  0.49900  1.0000
  H   H1445     1.0  0.28936  0.35575  0.45537  1.0000
  H   H1446     1.0  0.27510  0.32704  0.52322  1.0000
  C   C855      1.0  0.30520  0.99550  0.56042  1.0000
  C   C856      1.0  0.27348  0.31272  0.48950  1.0000
  H   H1447     1.0  0.46036  0.07546  0.62324  1.0000
  C   C857      1.0  0.44739  0.28203  0.38431  1.0000
  C   C858      1.0  0.36028  0.12393  0.59805  1.0000
  H   H1448     1.0  0.26211  0.32658  0.48853  1.0000
  H   H1449     1.0  0.27028  0.30508  0.50527  1.0000
  H   H1450     1.0  0.30330  0.29687  0.51046  1.0000
  H   H1451     1.0  0.28686  0.34087  0.58250  1.0000
  H   H1452     1.0  0.43385  0.02272  0.38387  1.0000
  C   C859      1.0  0.30879  0.30136  0.49419  1.0000
  H   H1453     1.0  0.46230  0.05094  0.39977  1.0000
  C   C860      1.0  0.26851  0.29969  0.47600  1.0000
  Fe  Fe123     1.0  0.24186  0.45708  0.64456  1.0000
  H   H1454     1.0  0.38503  0.13130  0.60944  1.0000
  S   S244      1.0  0.46865  0.99855  0.36803  1.0000
  H   H1455     1.0  0.29507  0.04023  0.37681  1.0000
  C   C861      1.0  0.30144  0.32353  0.46277  1.0000
  N   N62       1.0  0.43709  0.25049  0.37735  1.0000
  C   C862      1.0  0.42998  0.24422  0.39950  1.0000
  C   C863      1.0  0.44580  0.23158  0.36881  1.0000
  C   C864      1.0  0.41965  0.26212  0.36768  1.0000
  C   C865      1.0  0.41206  0.23291  0.40517  1.0000
  H   H1456     1.0  0.28845  0.47116  0.36142  1.0000
  H   H1457     1.0  0.46042  0.26669  0.35967  1.0000
  H   H1458     1.0  0.45811  0.22285  0.37669  1.0000
  C   C866      1.0  0.41966  0.00758  0.41113  1.0000
  H   H1459     1.0  0.41038  0.25166  0.36537  1.0000
  H   H1460     1.0  0.40971  0.27179  0.37801  1.0000
  H   H1461     1.0  0.39850  0.24203  0.39982  1.0000
  H   H1462     1.0  0.41534  0.21833  0.39992  1.0000
  H   H1463     1.0  0.40838  0.22947  0.42178  1.0000
  H   H1464     1.0  0.43460  0.22156  0.37127  1.0000
  S   S245      1.0  0.25038  0.46825  0.61168  1.0000
  H   H1465     1.0  0.42077  0.99420  0.40414  1.0000
  H   H1466     1.0  0.33493  0.10475  0.55961  1.0000
  H   H1467     1.0  0.46622  0.24301  0.34174  1.0000
  N   N63       1.0  0.34365  0.98874  0.55239  1.0000
  H   H1468     1.0  0.38982  0.06305  0.59691  1.0000
  S   S246      1.0  0.40986  0.02118  0.62585  1.0000
  H   H1469     1.0  0.37042  0.09343  0.56267  1.0000
  H   H1470     1.0  0.30042  0.27426  0.48844  1.0000
  S   S247      1.0  0.44995  0.18635  0.40421  1.0000
  C   C867      1.0  0.39159  0.07122  0.41960  1.0000
  H   H1471     1.0  0.39919  0.10237  0.59756  1.0000
  H   H1472     1.0  0.48526  0.28915  0.33063  1.0000
  C   C868      1.0  0.37330  0.06660  0.59925  1.0000
  H   H1473     1.0  0.45770  0.02838  0.63090  1.0000
  H   H1474     1.0  0.36941  0.11622  0.62805  1.0000
  H   H1475     1.0  0.36779  0.06507  0.58579  1.0000
  H   H1476     1.0  0.43250  0.21212  0.51974  1.0000
  C   C869      1.0  0.46603  0.18115  0.53014  1.0000
  C   C870      1.0  0.45342  0.26253  0.37541  1.0000
  H   H1477     1.0  0.33681  0.08834  0.58286  1.0000
  H   H1478     1.0  0.26412  0.19230  0.51116  1.0000
  C   C871      1.0  0.29977  0.00392  0.39852  1.0000
  H   H1479     1.0  0.44684  0.05910  0.60537  1.0000
  C   C872      1.0  0.42241  0.18709  0.54062  1.0000
  N   N64       1.0  0.25726  0.35329  0.59617  1.0000
  H   H1480     1.0  0.46588  0.25332  0.38276  1.0000
  H   H1481     1.0  0.40782  0.02677  0.38590  1.0000
  C   C873      1.0  0.33948  0.10325  0.57442  1.0000
  H   H1482     1.0  0.34932  0.08847  0.61121  1.0000
  C   C874      1.0  0.45412  0.23395  0.34623  1.0000
  H   H1483     1.0  0.39302  0.08398  0.40709  1.0000
  C   C875      1.0  0.32673  0.03399  0.37478  1.0000
  H   H1484     1.0  0.46236  0.03072  0.42079  1.0000
  H   H1485     1.0  0.34431  0.12348  0.60440  1.0000
  H   H1486     1.0  0.24345  0.34076  0.62604  1.0000
  H   H1487     1.0  0.42069  0.11489  0.61969  1.0000
  C   C876      1.0  0.32696  0.98638  0.48584  1.0000
  H   H1488     1.0  0.36005  0.13730  0.58600  1.0000
  S   S248      1.0  0.23948  0.36559  0.48071  1.0000
  C   C877      1.0  0.33810  0.02328  0.52877  1.0000
  H   H1489     1.0  0.28392  0.36843  0.55994  1.0000
  H   H1490     1.0  0.28375  0.99127  0.36872  1.0000
  H   H1491     1.0  0.26627  0.03539  0.37166  1.0000
  H   H1492     1.0  0.46097  0.23581  0.55083  1.0000
  H   H1493     1.0  0.30490  0.00020  0.54418  1.0000
  H   H1494     1.0  0.33964  0.98710  0.42316  1.0000
  H   H1495     1.0  0.27495  0.31074  0.60247  1.0000
  H   H1496     1.0  0.28952  0.01663  0.40475  1.0000
  H   H1497     1.0  0.35226  0.01449  0.57666  1.0000
  C   C878      1.0  0.36560  0.08736  0.60548  1.0000
  H   H1498     1.0  0.29623  0.31523  0.61033  1.0000
  S   S249      1.0  0.35926  0.00003  0.63335  1.0000
  H   H1499     1.0  0.42301  0.17886  0.55605  1.0000
  H   H1500     1.0  0.32158  0.02666  0.53195  1.0000
  H   H1501     1.0  0.34248  0.03004  0.51286  1.0000
  H   H1502     1.0  0.34420  0.03101  0.53803  1.0000
  H   H1503     1.0  0.43360  0.13639  0.63710  1.0000
  N   N65       1.0  0.30379  0.00833  0.37595  1.0000
  H   H1504     1.0  0.42510  0.25740  0.40722  1.0000
  H   H1505     1.0  0.45930  0.29132  0.37850  1.0000
  N   N66       1.0  0.36997  0.10515  0.58966  1.0000
  H   H1506     1.0  0.32480  0.01304  0.56642  1.0000
  H   H1507     1.0  0.36789  0.05498  0.61166  1.0000
  H   H1508     1.0  0.36967  0.01792  0.55302  1.0000
  H   H1509     1.0  0.39563  0.12242  0.55391  1.0000
  H   H1510     1.0  0.25780  0.30879  0.46636  1.0000
  H   H1511     1.0  0.32324  0.30648  0.49310  1.0000
  C   C879      1.0  0.39224  0.10406  0.58406  1.0000
  C   C880      1.0  0.32229  0.99495  0.36753  1.0000
  C   C881      1.0  0.39936  0.12189  0.56888  1.0000
  H   H1512     1.0  0.31671  0.32731  0.46018  1.0000
  H   H1513     1.0  0.30322  0.31082  0.45477  1.0000
  H   H1514     1.0  0.48196  0.17798  0.53199  1.0000
  H   H1515     1.0  0.25438  0.01651  0.36737  1.0000
  H   H1516     1.0  0.28186  0.34886  0.48881  1.0000
  C   C882      1.0  0.32524  0.99705  0.56589  1.0000
  Fe  Fe124     1.0  0.48170  0.19191  0.39559  1.0000
  H   H1517     1.0  0.40023  0.07213  0.43112  1.0000
  H   H1518     1.0  0.32683  0.05037  0.37103  1.0000
  S   S250      1.0  0.40967  0.07572  0.63202  1.0000
  C   C883      1.0  0.47647  0.19285  0.56679  1.0000
  C   C884      1.0  0.29137  0.98462  0.40875  1.0000
  C   C885      1.0  0.36620  0.99296  0.40242  1.0000
  C   C886      1.0  0.28881  0.33354  0.51718  1.0000
  H   H1519     1.0  0.39333  0.13645  0.57394  1.0000
  H   H1520     1.0  0.45227  0.05102  0.36986  1.0000
  C   C887      1.0  0.45677  0.04521  0.60162  1.0000
  C   C888      1.0  0.42278  0.10975  0.63509  1.0000
  H   H1521     1.0  0.37564  0.07313  0.42679  1.0000
  H   H1522     1.0  0.47872  0.02117  0.61300  1.0000
  H   H1523     1.0  0.40567  0.00838  0.42214  1.0000
  H   H1524     1.0  0.30816  0.03460  0.35324  1.0000
  H   H1525     1.0  0.46452  0.22004  0.51129  1.0000
  C   C889      1.0  0.46877  0.03450  0.61840  1.0000
  H   H1526     1.0  0.29292  0.00536  0.56852  1.0000
  H   H1527     1.0  0.40648  0.19302  0.53965  1.0000
  H   H1528     1.0  0.46640  0.16651  0.50483  1.0000
  H   H1529     1.0  0.42771  0.17660  0.52975  1.0000
  H   H1530     1.0  0.25786  0.33577  0.57316  1.0000
  H   H1531     1.0  0.27250  0.32062  0.62551  1.0000
  S   S251      1.0  0.47436  0.20938  0.64119  1.0000
  H   H1532     1.0  0.41585  0.12002  0.56699  1.0000
  C   C890      1.0  0.46594  0.21689  0.52745  1.0000
  C   C891      1.0  0.24696  0.34289  0.58495  1.0000
  H   H1533     1.0  0.42539  0.21615  0.54459  1.0000
  C   C892      1.0  0.34583  0.00051  0.53132  1.0000
  H   H1534     1.0  0.36170  0.99840  0.52386  1.0000
  H   H1535     1.0  0.24282  0.36698  0.64399  1.0000
  C   C893      1.0  0.25239  0.36769  0.62899  1.0000
  H   H1536     1.0  0.26158  0.01421  0.39114  1.0000
  H   H1537     1.0  0.37779  0.00377  0.57520  1.0000
  C   C894      1.0  0.26803  0.37554  0.56216  1.0000
  H   H1538     1.0  0.48509  0.11762  0.37263  1.0000
  H   H1539     1.0  0.27965  0.98793  0.42175  1.0000
  H   H1540     1.0  0.44234  0.24232  0.53458  1.0000
  C   C895      1.0  0.43395  0.20480  0.53538  1.0000
  C   C896      1.0  0.24492  0.35551  0.61649  1.0000
  C   C897      1.0  0.27817  0.34240  0.59764  1.0000
  H   H1541     1.0  0.48587  0.17875  0.56289  1.0000
  H   H1542     1.0  0.48552  0.06590  0.59650  1.0000
  H   H1543     1.0  0.44656  0.20906  0.56743  1.0000
  H   H1544     1.0  0.46662  0.04841  0.58701  1.0000
  H   H1545     1.0  0.48453  0.20560  0.56051  1.0000
  H   H1546     1.0  0.25105  0.38380  0.62226  1.0000
  H   H1547     1.0  0.32533  0.98925  0.58164  1.0000
  N   N67       1.0  0.48050  0.04704  0.62556  1.0000
  H   H1548     1.0  0.46673  0.24843  0.52575  1.0000
  H   H1549     1.0  0.33789  0.99477  0.52180  1.0000
  H   H1550     1.0  0.24303  0.47723  0.51779  1.0000
  C   C898      1.0  0.41821  0.09099  0.64505  1.0000
  Fe  Fe125     1.0  0.40558  0.04386  0.64618  1.0000
  H   H1551     1.0  0.48229  0.21295  0.52749  1.0000
  C   C899      1.0  0.38155  0.98549  0.38788  1.0000
  Fe  Fe126     1.0  0.38398  0.00869  0.64603  1.0000
  Fe  Fe127     1.0  0.42830  0.00155  0.64769  1.0000
  H   H1552     1.0  0.26420  0.48415  0.35813  1.0000
  H   H1553     1.0  0.48506  0.00919  0.31903  1.0000
  H   H1554     1.0  0.28734  0.98468  0.52381  1.0000
  H   H1555     1.0  0.34388  0.03409  0.88990  1.0000
  H   H1556     1.0  0.36112  0.48041  0.70919  1.0000
  S   S252      1.0  0.44250  0.13016  0.67780  1.0000
  Fe  Fe128     1.0  0.46201  0.19862  0.67343  1.0000
  S   S253      1.0  0.46222  0.21185  0.70146  1.0000
  Fe  Fe129     1.0  0.32529  0.45074  0.74709  1.0000
  S   S254      1.0  0.35699  0.43871  0.73446  1.0000
  H   H1557     1.0  0.45767  0.32878  0.91579  1.0000
  Fe  Fe130     1.0  0.33554  0.44732  0.78904  1.0000
  S   S255      1.0  0.36784  0.43547  0.77948  1.0000
  S   S256      1.0  0.32271  0.45463  0.82003  1.0000
  Fe  Fe131     1.0  0.36577  0.45868  0.75186  1.0000
  Fe  Fe132     1.0  0.35646  0.41651  0.76312  1.0000
  S   S257      1.0  0.37079  0.38395  0.76548  1.0000
  S   S258      1.0  0.27970  0.05864  0.97537  1.0000
  S   S259      1.0  0.32392  0.42676  0.77460  1.0000
  H   H1558     1.0  0.35713  0.03098  0.73426  1.0000
  H   H1559     1.0  0.31032  0.02232  0.76958  1.0000
  S   S260      1.0  0.46505  0.37120  0.75176  1.0000
  C   C900      1.0  0.35483  0.47374  0.67647  1.0000
  H   H1560     1.0  0.39819  0.37453  0.87693  1.0000
  H   H1561     1.0  0.33258  0.02689  0.74320  1.0000
  H   H1562     1.0  0.48426  0.11779  0.88095  1.0000
  H   H1563     1.0  0.33496  0.48217  0.71512  1.0000
  S   S261      1.0  0.26386  0.07236  0.92413  1.0000
  Fe  Fe133     1.0  0.39915  0.01312  0.68382  1.0000
  S   S262      1.0  0.42625  0.02508  0.66627  1.0000
  S   S263      1.0  0.39508  0.00746  0.71782  1.0000
  H   H1564     1.0  0.38198  0.34745  0.94425  1.0000
  N   N68       1.0  0.28559  0.39477  0.88598  1.0000
  H   H1565     1.0  0.47981  0.25100  0.74558  1.0000
  S   S264      1.0  0.37784  0.03342  0.66478  1.0000
  Fe  Fe134     1.0  0.39252  0.04591  0.83744  1.0000
  S   S265      1.0  0.40779  0.07132  0.81948  1.0000
  S   S266      1.0  0.35860  0.04918  0.84691  1.0000
  Fe  Fe135     1.0  0.43196  0.01792  0.83820  1.0000
  S   S267      1.0  0.45041  0.04046  0.81952  1.0000
  Fe  Fe136     1.0  0.43134  0.06148  0.83958  1.0000
  S   S268      1.0  0.44203  0.08465  0.85303  1.0000
  Fe  Fe137     1.0  0.42575  0.04843  0.80103  1.0000
  S   S269      1.0  0.43087  0.05610  0.76696  1.0000
  S   S270      1.0  0.41417  0.03819  0.85926  1.0000
  S   S271      1.0  0.40929  0.02384  0.81789  1.0000
  H   H1566     1.0  0.46363  0.34472  0.69058  1.0000
  Fe  Fe138     1.0  0.31072  0.38749  0.95896  1.0000
  S   S272      1.0  0.34070  0.37250  0.94526  1.0000
  H   H1567     1.0  0.26033  0.40926  0.90494  1.0000
  Fe  Fe139     1.0  0.32642  0.42381  0.96208  1.0000
  S   S273      1.0  0.35767  0.41244  0.94807  1.0000
  H   H1568     1.0  0.42591  0.29440  0.69307  1.0000
  Fe  Fe140     1.0  0.34338  0.40249  0.92628  1.0000
  S   S274      1.0  0.35828  0.40047  0.89432  1.0000
  C   C901      1.0  0.27622  0.43248  0.88892  1.0000
  S   S275      1.0  0.31244  0.41673  0.93821  1.0000
  H   H1569     1.0  0.30912  0.42867  0.71280  1.0000
  C   C902      1.0  0.35659  0.01237  0.77184  1.0000
  C   C903      1.0  0.26850  0.46547  0.68610  1.0000
  H   H1570     1.0  0.32708  0.37137  0.90582  1.0000
  H   H1571     1.0  0.37385  0.47575  0.78766  1.0000
  H   H1572     1.0  0.42926  0.10769  0.71676  1.0000
  C   C904      1.0  0.26179  0.38445  0.95704  1.0000
  C   C905      1.0  0.25932  0.40489  0.94906  1.0000
  H   H1573     1.0  0.43731  0.10588  0.95707  1.0000
  C   C906      1.0  0.37053  0.47667  0.80395  1.0000
  S   S276      1.0  0.40288  0.98759  0.66680  1.0000
  H   H1574     1.0  0.27107  0.41326  0.94817  1.0000
  S   S277      1.0  0.38081  0.36579  0.97957  1.0000
  C   C907      1.0  0.46490  0.08606  0.86056  1.0000
  C   C908      1.0  0.46605  0.10284  0.86869  1.0000
  C   C909      1.0  0.45245  0.08700  0.92473  1.0000
  C   C910      1.0  0.48476  0.08917  0.93388  1.0000
  H   H1575     1.0  0.45320  0.11459  0.87004  1.0000
  C   C911      1.0  0.42107  0.12242  0.77456  1.0000
  C   C912      1.0  0.40725  0.02016  0.73032  1.0000
  C   C913      1.0  0.40998  0.01215  0.75012  1.0000
  C   C914      1.0  0.41731  0.02295  0.76139  1.0000
  C   C915      1.0  0.42227  0.04181  0.75290  1.0000
  C   C916      1.0  0.42031  0.04950  0.73282  1.0000
  C   C917      1.0  0.41275  0.03877  0.72159  1.0000
  H   H1576     1.0  0.40612  0.99762  0.75689  1.0000
  H   H1577     1.0  0.41904  0.01666  0.77667  1.0000
  H   H1578     1.0  0.42420  0.06400  0.72602  1.0000
  H   H1579     1.0  0.41066  0.04515  0.70638  1.0000
  C   C918      1.0  0.26304  0.04464  0.90111  1.0000
  C   C919      1.0  0.25518  0.02960  0.89581  1.0000
  H   H1580     1.0  0.27636  0.04953  0.89204  1.0000
  H   H1581     1.0  0.26250  0.02291  0.88280  1.0000
  C   C920      1.0  0.32072  0.00734  0.83343  1.0000
  C   C921      1.0  0.34159  0.00372  0.82819  1.0000
  C   C922      1.0  0.35336  0.01608  0.83264  1.0000
  C   C923      1.0  0.34439  0.03240  0.84223  1.0000
  C   C924      1.0  0.32350  0.03580  0.84786  1.0000
  C   C925      1.0  0.31172  0.02329  0.84358  1.0000
  H   H1582     1.0  0.34871  0.99134  0.82050  1.0000
  H   H1583     1.0  0.36937  0.01304  0.82845  1.0000
  H   H1584     1.0  0.31635  0.04839  0.85522  1.0000
  C   C926      1.0  0.47728  0.99819  0.85386  1.0000
  C   C927      1.0  0.39693  0.38056  0.76283  1.0000
  C   C928      1.0  0.40711  0.39633  0.75340  1.0000
  C   C929      1.0  0.42801  0.39327  0.75040  1.0000
  C   C930      1.0  0.43886  0.37450  0.75696  1.0000
  C   C931      1.0  0.42872  0.35884  0.76694  1.0000
  C   C932      1.0  0.40776  0.36183  0.76971  1.0000
  H   H1585     1.0  0.39888  0.41081  0.74806  1.0000
  H   H1586     1.0  0.43577  0.40547  0.74275  1.0000
  H   H1587     1.0  0.43700  0.34446  0.77243  1.0000
  H   H1588     1.0  0.39990  0.34968  0.77725  1.0000
  C   C933      1.0  0.33250  0.43939  0.84061  1.0000
  C   C934      1.0  0.32571  0.44439  0.85980  1.0000
  C   C935      1.0  0.33336  0.43248  0.87648  1.0000
  C   C936      1.0  0.34807  0.41570  0.87395  1.0000
  C   C937      1.0  0.35504  0.41087  0.85474  1.0000
  C   C938      1.0  0.34714  0.42255  0.83813  1.0000
  H   H1589     1.0  0.31446  0.45749  0.86175  1.0000
  H   H1590     1.0  0.32804  0.43641  0.89123  1.0000
  H   H1591     1.0  0.36640  0.39786  0.85270  1.0000
  H   H1592     1.0  0.35234  0.41849  0.82343  1.0000
  H   H1593     1.0  0.40351  0.32869  0.93939  1.0000
  Fe  Fe141     1.0  0.24173  0.99029  0.87391  1.0000
  H   H1594     1.0  0.42327  0.39306  0.89822  1.0000
  H   H1595     1.0  0.24817  0.38113  0.90915  1.0000
  H   H1596     1.0  0.27244  0.98631  0.94324  1.0000
  C   C939      1.0  0.43300  0.11552  0.66483  1.0000
  C   C940      1.0  0.42836  0.09676  0.67476  1.0000
  S   S278      1.0  0.47897  0.16726  0.67317  1.0000
  C   C941      1.0  0.37008  0.04552  0.78468  1.0000
  H   H1597     1.0  0.33136  0.03355  0.79582  1.0000
  C   C942      1.0  0.40357  0.12307  0.73293  1.0000
  H   H1598     1.0  0.43063  0.09145  0.69005  1.0000
  H   H1599     1.0  0.27987  0.01601  0.95890  1.0000
  S   S279      1.0  0.26588  0.43862  0.66213  1.0000
  N   N69       1.0  0.34725  0.03380  0.76547  1.0000
  C   C943      1.0  0.27532  0.44651  0.68075  1.0000
  C   C944      1.0  0.29010  0.43336  0.69043  1.0000
  C   C945      1.0  0.29788  0.43899  0.70540  1.0000
  C   C946      1.0  0.29094  0.45789  0.71083  1.0000
  H   H1600     1.0  0.26315  0.44331  0.89452  1.0000
  C   C947      1.0  0.25384  0.05325  0.91813  1.0000
  H   H1601     1.0  0.42360  0.38486  0.95341  1.0000
  C   C948      1.0  0.47156  0.23253  0.70597  1.0000
  H   H1602     1.0  0.46042  0.15332  0.97062  1.0000
  C   C949      1.0  0.29716  0.40024  0.86529  1.0000
  H   H1603     1.0  0.41507  0.13812  0.76885  1.0000
  H   H1604     1.0  0.46553  0.07986  0.74731  1.0000
  H   H1605     1.0  0.42502  0.12283  0.78925  1.0000
  H   H1606     1.0  0.40943  0.31822  0.69275  1.0000
  H   H1607     1.0  0.40925  0.11305  0.77721  1.0000
  C   C950      1.0  0.42638  0.38315  0.93739  1.0000
  H   H1608     1.0  0.29565  0.02639  0.84754  1.0000
  H   H1609     1.0  0.47281  0.40857  0.75849  1.0000
  H   H1610     1.0  0.46643  0.22314  0.73800  1.0000
  C   C951      1.0  0.43474  0.35382  0.90759  1.0000
  C   C952      1.0  0.31447  0.38435  0.85779  1.0000
  C   C953      1.0  0.46694  0.13954  0.97921  1.0000
  S   S280      1.0  0.26229  0.10628  0.96503  1.0000
  C   C954      1.0  0.36246  0.04683  0.76489  1.0000
  H   H1611     1.0  0.48678  0.00850  0.79025  1.0000
  H   H1612     1.0  0.37974  0.05701  0.78266  1.0000
  S   S281      1.0  0.28452  0.37134  0.96419  1.0000
  H   H1613     1.0  0.33022  0.45815  0.67620  1.0000
  S   S282      1.0  0.33442  0.47227  0.76266  1.0000
  H   H1614     1.0  0.25865  0.41513  0.87915  1.0000
  H   H1615     1.0  0.30964  0.37022  0.85719  1.0000
  H   H1616     1.0  0.47389  0.01046  0.65546  1.0000
  C   C955      1.0  0.32892  0.04001  0.78024  1.0000
  H   H1617     1.0  0.46926  0.01331  0.85127  1.0000
  H   H1618     1.0  0.47516  0.35238  0.70784  1.0000
  H   H1619     1.0  0.44370  0.06913  0.96186  1.0000
  H   H1620     1.0  0.28183  0.43921  0.87333  1.0000
  C   C956      1.0  0.46502  0.08673  0.73145  1.0000
  C   C957      1.0  0.47225  0.43817  0.74104  1.0000
  H   H1621     1.0  0.42393  0.39849  0.92865  1.0000
  H   H1622     1.0  0.25716  0.47574  0.67880  1.0000
  C   C958      1.0  0.27533  0.37742  0.88636  1.0000
  H   H1623     1.0  0.40722  0.39759  0.86889  1.0000
  H   H1624     1.0  0.39916  0.43601  0.83446  1.0000
  C   C959      1.0  0.44269  0.29233  0.74429  1.0000
  H   H1625     1.0  0.43323  0.32284  0.92276  1.0000
  H   H1626     1.0  0.33744  0.45469  0.70048  1.0000
  H   H1627     1.0  0.48687  0.09766  0.91830  1.0000
  S   S283      1.0  0.43476  0.19021  0.66603  1.0000
  H   H1628     1.0  0.28594  0.36407  0.88233  1.0000
  H   H1629     1.0  0.32665  0.38149  0.86669  1.0000
  C   C960      1.0  0.41114  0.38434  0.89945  1.0000
  H   H1630     1.0  0.39707  0.39415  0.90490  1.0000
  H   H1631     1.0  0.46756  0.12820  0.92561  1.0000
  C   C961      1.0  0.45303  0.10688  0.94978  1.0000
  C   C962      1.0  0.29878  0.39084  0.90172  1.0000
  H   H1632     1.0  0.30034  0.03041  0.79281  1.0000
  H   H1633     1.0  0.44260  0.28331  0.73278  1.0000
  H   H1634     1.0  0.45028  0.36365  0.70551  1.0000
  H   H1635     1.0  0.33090  0.99720  0.78511  1.0000
  H   H1636     1.0  0.47809  0.24634  0.67517  1.0000
  H   H1637     1.0  0.47998  0.08206  0.72280  1.0000
  C   C963      1.0  0.44199  0.33476  0.92184  1.0000
  H   H1638     1.0  0.35778  0.04854  0.79723  1.0000
  H   H1639     1.0  0.43605  0.08837  0.93009  1.0000
  C   C964      1.0  0.38600  0.47844  0.83337  1.0000
  C   C965      1.0  0.41037  0.38234  0.87777  1.0000
  H   H1640     1.0  0.29195  0.99030  0.96479  1.0000
  C   C966      1.0  0.26935  0.41239  0.88984  1.0000
  H   H1641     1.0  0.47402  0.06799  0.90566  1.0000
  S   S284      1.0  0.39148  0.47503  0.73743  1.0000
  C   C967      1.0  0.48201  0.42065  0.75555  1.0000
  H   H1642     1.0  0.39637  0.37863  0.93866  1.0000
  H   H1643     1.0  0.24006  0.48271  0.97465  1.0000
  H   H1644     1.0  0.38157  0.32946  0.92931  1.0000
  H   H1645     1.0  0.47985  0.42619  0.76998  1.0000
  N   N70       1.0  0.46296  0.08804  0.94149  1.0000
  N   N71       1.0  0.43432  0.32664  0.72188  1.0000
  C   C968      1.0  0.45390  0.33264  0.72252  1.0000
  C   C969      1.0  0.42890  0.31280  0.74129  1.0000
  C   C970      1.0  0.41885  0.34549  0.72008  1.0000
  C   C971      1.0  0.43730  0.31653  0.70389  1.0000
  H   H1646     1.0  0.38426  0.36338  0.91009  1.0000
  H   H1647     1.0  0.45807  0.05406  0.92555  1.0000
  C   C972      1.0  0.39677  0.34337  0.72744  1.0000
  C   C973      1.0  0.41986  0.30710  0.70136  1.0000
  H   H1648     1.0  0.45332  0.33787  0.73685  1.0000
  H   H1649     1.0  0.46627  0.31966  0.72208  1.0000
  H   H1650     1.0  0.41370  0.30932  0.74311  1.0000
  H   H1651     1.0  0.42843  0.32022  0.75428  1.0000
  H   H1652     1.0  0.42155  0.35633  0.72873  1.0000
  C   C974      1.0  0.24616  0.37392  0.95855  1.0000
  H   H1653     1.0  0.44037  0.32734  0.68984  1.0000
  H   H1654     1.0  0.45102  0.30489  0.70321  1.0000
  C   C975      1.0  0.27628  0.47109  0.70105  1.0000
  C   C976      1.0  0.34301  0.45628  0.68419  1.0000
  H   H1655     1.0  0.35697  0.47604  0.65979  1.0000
  H   H1656     1.0  0.43728  0.28362  0.75906  1.0000
  H   H1657     1.0  0.30605  0.36155  0.92048  1.0000
  H   H1658     1.0  0.42005  0.35339  0.70427  1.0000
  H   H1659     1.0  0.41755  0.07017  0.67278  1.0000
  H   H1660     1.0  0.39204  0.33237  0.72063  1.0000
  H   H1661     1.0  0.45723  0.44428  0.74868  1.0000
  H   H1662     1.0  0.41148  0.30041  0.71563  1.0000
  C   C977      1.0  0.34324  0.03632  0.74438  1.0000
  N   N72       1.0  0.41415  0.36497  0.91405  1.0000
  H   H1663     1.0  0.45576  0.01202  0.77864  1.0000
  S   S285      1.0  0.47742  0.30991  0.77031  1.0000
  C   C978      1.0  0.24162  0.41452  0.94197  1.0000
  H   H1664     1.0  0.40708  0.45782  0.79071  1.0000
  C   C979      1.0  0.48072  0.02222  0.65896  1.0000
  H   H1665     1.0  0.36377  0.46326  0.81102  1.0000
  H   H1666     1.0  0.36996  0.46805  0.68046  1.0000
  H   H1667     1.0  0.44879  0.06879  0.90410  1.0000
  C   C980      1.0  0.45980  0.07051  0.95806  1.0000
  H   H1668     1.0  0.28961  0.39330  0.91649  1.0000
  H   H1669     1.0  0.36060  0.01010  0.78696  1.0000
  H   H1670     1.0  0.48121  0.05804  0.85276  1.0000
  Fe  Fe142     1.0  0.35294  0.38320  0.96799  1.0000
  H   H1671     1.0  0.28753  0.43112  0.89857  1.0000
  H   H1672     1.0  0.46752  0.05612  0.95337  1.0000
  C   C981      1.0  0.46656  0.07134  0.97778  1.0000
  H   H1673     1.0  0.44167  0.12814  0.92456  1.0000
  H   H1674     1.0  0.32102  0.39029  0.84220  1.0000
  H   H1675     1.0  0.30916  0.40188  0.89817  1.0000
  H   H1676     1.0  0.33951  0.99610  0.75855  1.0000
  H   H1677     1.0  0.42479  0.37483  0.87031  1.0000
  H   H1678     1.0  0.46621  0.06881  0.66516  1.0000
  H   H1679     1.0  0.41891  0.45866  0.81101  1.0000
  C   C982      1.0  0.39123  0.33885  0.93275  1.0000
  Fe  Fe143     1.0  0.45298  0.15973  0.66309  1.0000
  H   H1680     1.0  0.45448  0.09977  0.91226  1.0000
  Fe  Fe144     1.0  0.25836  0.07778  0.95626  1.0000
  S   S286      1.0  0.31578  0.45335  0.97288  1.0000
  C   C983      1.0  0.31158  0.36976  0.90545  1.0000
  H   H1681     1.0  0.44603  0.36380  0.90516  1.0000
  H   H1682     1.0  0.40358  0.13633  0.72077  1.0000
  H   H1683     1.0  0.44786  0.13941  0.94293  1.0000
  C   C984      1.0  0.39893  0.43795  0.81819  1.0000
  C   C985      1.0  0.41172  0.37032  0.93458  1.0000
  H   H1684     1.0  0.32961  0.05744  0.72105  1.0000
  H   H1685     1.0  0.29544  0.41866  0.68642  1.0000
  C   C986      1.0  0.37087  0.46625  0.84774  1.0000
  C   C987      1.0  0.27740  0.00058  0.96595  1.0000
  H   H1686     1.0  0.46903  0.03270  0.66685  1.0000
  H   H1687     1.0  0.35279  0.44199  0.68128  1.0000
  H   H1688     1.0  0.28697  0.40453  0.85400  1.0000
  S   S287      1.0  0.30034  0.46608  0.72929  1.0000
  H   H1689     1.0  0.35632  0.06292  0.76051  1.0000
  H   H1690     1.0  0.41042  0.42585  0.81239  1.0000
  H   H1691     1.0  0.44207  0.33767  0.93700  1.0000
  H   H1692     1.0  0.25796  0.35596  0.90600  1.0000
  H   H1693     1.0  0.38728  0.35808  0.72340  1.0000
  C   C988      1.0  0.47955  0.25006  0.73022  1.0000
  C   C989      1.0  0.46082  0.34929  0.70549  1.0000
  H   H1694     1.0  0.23994  0.43023  0.93544  1.0000
  H   H1695     1.0  0.39347  0.33956  0.74402  1.0000
  H   H1696     1.0  0.40035  0.47408  0.83922  1.0000
  H   H1697     1.0  0.46736  0.00035  0.75704  1.0000
  H   H1698     1.0  0.38452  0.43537  0.81565  1.0000
  H   H1699     1.0  0.32164  0.02398  0.89877  1.0000
  H   H1700     1.0  0.48129  0.07615  0.97516  1.0000
  H   H1701     1.0  0.37573  0.04351  0.75326  1.0000
  H   H1702     1.0  0.27022  0.36799  0.91934  1.0000
  H   H1703     1.0  0.39728  0.12789  0.74751  1.0000
  H   H1704     1.0  0.25479  0.00762  0.94683  1.0000
  H   H1705     1.0  0.32623  0.05654  0.77953  1.0000
  H   H1706     1.0  0.30411  0.41355  0.86436  1.0000
  C   C990      1.0  0.39823  0.35312  0.91345  1.0000
  H   H1707     1.0  0.26556  0.38125  0.87469  1.0000
  H   H1708     1.0  0.47282  0.02378  0.75938  1.0000
  Fe  Fe145     1.0  0.27627  0.98516  0.84001  1.0000
  H   H1709     1.0  0.45431  0.08037  0.72570  1.0000
  H   H1710     1.0  0.36738  0.45393  0.84192  1.0000
  H   H1711     1.0  0.37070  0.00848  0.76147  1.0000
  H   H1712     1.0  0.45819  0.29379  0.74450  1.0000
  H   H1713     1.0  0.44214  0.37594  0.93387  1.0000
  N   N73       1.0  0.44030  0.11900  0.73869  1.0000
  C   C991      1.0  0.46049  0.10986  0.72852  1.0000
  C   C992      1.0  0.43787  0.14134  0.73148  1.0000
  C   C993      1.0  0.42460  0.11038  0.73247  1.0000
  C   C994      1.0  0.43982  0.11352  0.76101  1.0000
  C   C995      1.0  0.47866  0.24713  0.69049  1.0000
  C   C996      1.0  0.45328  0.15211  0.73628  1.0000
  H   H1714     1.0  0.39336  0.11394  0.73002  1.0000
  H   H1715     1.0  0.46244  0.11537  0.71205  1.0000
  C   C997      1.0  0.48369  0.10469  0.87497  1.0000
  H   H1716     1.0  0.42303  0.14922  0.73754  1.0000
  H   H1717     1.0  0.43851  0.14467  0.71493  1.0000
  C   C998      1.0  0.26228  0.37043  0.90646  1.0000
  H   H1718     1.0  0.42285  0.09547  0.74170  1.0000
  H   H1719     1.0  0.44101  0.09704  0.76580  1.0000
  H   H1720     1.0  0.45316  0.11679  0.76553  1.0000
  H   H1721     1.0  0.48089  0.45066  0.73649  1.0000
  H   H1722     1.0  0.34742  0.06697  0.73010  1.0000
  C   C999      1.0  0.40427  0.45832  0.80710  1.0000
  H   H1723     1.0  0.45352  0.14978  0.75256  1.0000
  H   H1724     1.0  0.46844  0.14771  0.72795  1.0000
  H   H1725     1.0  0.44912  0.16849  0.73125  1.0000
  H   H1726     1.0  0.41317  0.35679  0.94630  1.0000
  N   N74       1.0  0.32785  0.07012  0.90852  1.0000
  C   C1000     1.0  0.31264  0.08913  0.90885  1.0000
  C   C1001     1.0  0.33225  0.06313  0.92955  1.0000
  C   C1002     1.0  0.31836  0.05474  0.90287  1.0000
  C   C1003     1.0  0.34600  0.07460  0.89330  1.0000
  C   C1004     1.0  0.30375  0.09762  0.88951  1.0000
  C   C1005     1.0  0.34022  0.07820  0.93826  1.0000
  C   C1006     1.0  0.33091  0.03376  0.90223  1.0000
  C   C1007     1.0  0.36603  0.06057  0.89598  1.0000
  H   H1727     1.0  0.29992  0.08703  0.92136  1.0000
  H   H1728     1.0  0.31917  0.10143  0.91182  1.0000
  H   H1729     1.0  0.34308  0.04903  0.93091  1.0000
  H   H1730     1.0  0.31850  0.05944  0.94003  1.0000
  H   H1731     1.0  0.30416  0.05277  0.91332  1.0000
  H   H1732     1.0  0.31438  0.05976  0.88766  1.0000
  H   H1733     1.0  0.34337  0.07480  0.87789  1.0000
  H   H1734     1.0  0.34868  0.08993  0.89334  1.0000
  H   H1735     1.0  0.29299  0.08851  0.88768  1.0000
  H   H1736     1.0  0.29514  0.11285  0.89063  1.0000
  H   H1737     1.0  0.31540  0.09893  0.87597  1.0000
  H   H1738     1.0  0.35270  0.08442  0.92791  1.0000
  H   H1739     1.0  0.32818  0.09063  0.94239  1.0000
  H   H1740     1.0  0.34574  0.07054  0.95235  1.0000
  C   C1008     1.0  0.33530  0.05788  0.73484  1.0000
  H   H1741     1.0  0.33566  0.02654  0.91670  1.0000
  C   C1009     1.0  0.42101  0.08457  0.66495  1.0000
  H   H1742     1.0  0.37473  0.05874  0.88092  1.0000
  H   H1743     1.0  0.36489  0.04533  0.90424  1.0000
  H   H1744     1.0  0.37535  0.06758  0.90292  1.0000
  H   H1745     1.0  0.37956  0.03091  0.78885  1.0000
  H   H1746     1.0  0.43583  0.34913  0.89290  1.0000
  H   H1747     1.0  0.46061  0.10888  0.96174  1.0000
  H   H1748     1.0  0.37685  0.45936  0.86175  1.0000
  H   H1749     1.0  0.40294  0.34419  0.90108  1.0000
  S   S288      1.0  0.30657  0.99322  0.82467  1.0000
  C   C1010     1.0  0.45267  0.12663  0.93461  1.0000
  C   C1011     1.0  0.45897  0.06820  0.91481  1.0000
  H   H1750     1.0  0.31270  0.36025  0.89416  1.0000
  H   H1751     1.0  0.32291  0.06542  0.74496  1.0000
  S   S289      1.0  0.24652  0.00573  0.84180  1.0000
  H   H1752     1.0  0.47270  0.11443  0.73383  1.0000
  C   C1012     1.0  0.46977  0.00897  0.76789  1.0000
  C   C1013     1.0  0.47197  0.23423  0.72585  1.0000
  N   N75       1.0  0.38944  0.47675  0.81148  1.0000
  Fe  Fe146     1.0  0.48424  0.34091  0.75822  1.0000
  H   H1753     1.0  0.45988  0.98472  0.80935  1.0000
  C   C1014     1.0  0.48176  0.07109  0.85887  1.0000
  H   H1754     1.0  0.46985  0.43309  0.72763  1.0000
  C   C1015     1.0  0.30900  0.03481  0.77772  1.0000
  H   H1755     1.0  0.29960  0.04824  0.77057  1.0000
  H   H1756     1.0  0.24793  0.35812  0.96474  1.0000
  H   H1757     1.0  0.35671  0.47620  0.85241  1.0000
  C   C1016     1.0  0.34400  0.99613  0.77301  1.0000
  C   C1017     1.0  0.26286  0.99405  0.95528  1.0000
  H   H1758     1.0  0.26699  0.45032  0.97756  1.0000
  H   H1759     1.0  0.47689  0.25491  0.97907  1.0000
  C   C1018     1.0  0.48651  0.13057  0.97269  1.0000
  S   S290      1.0  0.44351  0.98582  0.84960  1.0000
  C   C1019     1.0  0.47358  0.07330  0.64951  1.0000
  C   C1020     1.0  0.23779  0.02342  0.90726  1.0000
  H   H1760     1.0  0.23775  0.02285  0.97392  1.0000
  C   C1021     1.0  0.48692  0.26449  0.71472  1.0000
  C   C1022     1.0  0.48637  0.26288  0.69484  1.0000
  H   H1761     1.0  0.23769  0.06641  0.85156  1.0000
  C   C1023     1.0  0.48003  0.97993  0.14885  1.0000
  S   S291      1.0  0.46562  0.55127  0.24707  1.0000
  S   S292      1.0  0.47129  0.60788  0.22049  1.0000
  H   H1762     1.0  0.32827  0.88789  0.05317  1.0000
  H   H1763     1.0  0.37136  0.80087  0.99684  1.0000
  H   H1764     1.0  0.46268  0.82622  0.23018  1.0000
  Fe  Fe147     1.0  0.37881  0.51162  0.22717  1.0000
  C   C1024     1.0  0.31243  0.91508  0.06316  1.0000
  S   S293      1.0  0.39105  0.54009  0.21284  1.0000
  H   H1765     1.0  0.40195  0.51127  0.16873  1.0000
  H   H1766     1.0  0.31222  0.83377  0.07510  1.0000
  H   H1767     1.0  0.30647  0.50938  0.22807  1.0000
  S   S294      1.0  0.34945  0.50724  0.22147  1.0000
  H   H1768     1.0  0.40444  0.60741  0.24776  1.0000
  H   H1769     1.0  0.44686  0.87461  0.08072  1.0000
  C   C1025     1.0  0.41608  0.63155  0.28892  1.0000
  H   H1770     1.0  0.34749  0.95260  0.22199  1.0000
  H   H1771     1.0  0.47993  0.60150  0.99738  1.0000
  C   C1026     1.0  0.31566  0.77205  0.02456  1.0000
  S   S295      1.0  0.27693  0.94160  0.10452  1.0000
  H   H1772     1.0  0.41532  0.80192  0.30792  1.0000
  Fe  Fe148     1.0  0.27142  0.92346  0.13517  1.0000
  S   S296      1.0  0.29730  0.90502  0.14944  1.0000
  Fe  Fe149     1.0  0.40342  0.92257  0.14925  1.0000
  S   S297      1.0  0.40908  0.89003  0.16266  1.0000
  S   S298      1.0  0.37525  0.94245  0.14066  1.0000
  Fe  Fe150     1.0  0.44561  0.92784  0.14963  1.0000
  S   S299      1.0  0.45514  0.89586  0.16345  1.0000
  H   H1773     1.0  0.42481  0.98008  0.15871  1.0000
  Fe  Fe151     1.0  0.43856  0.88863  0.14190  1.0000
  S   S300      1.0  0.44984  0.86275  0.12512  1.0000
  Fe  Fe152     1.0  0.42512  0.89958  0.18333  1.0000
  S   S301      1.0  0.41980  0.88434  0.21566  1.0000
  S   S302      1.0  0.43135  0.92028  0.12646  1.0000
  S   S303      1.0  0.41721  0.93234  0.17154  1.0000
  H   H1774     1.0  0.31520  0.79241  0.07504  1.0000
  S   S304      1.0  0.33740  0.52128  0.03114  1.0000
  C   C1027     1.0  0.41784  0.57924  0.27714  1.0000
  Fe  Fe153     1.0  0.32584  0.51612  0.08921  1.0000
  S   S305      1.0  0.31873  0.54526  0.06859  1.0000
  S   S306      1.0  0.31760  0.51848  0.12223  1.0000
  Fe  Fe154     1.0  0.30764  0.52725  0.05090  1.0000
  Fe  Fe155     1.0  0.34909  0.53659  0.05088  1.0000
  S   S307      1.0  0.37000  0.55946  0.04184  1.0000
  H   H1775     1.0  0.44701  0.62752  0.99480  1.0000
  H   H1776     1.0  0.35314  0.81765  0.01006  1.0000
  H   H1777     1.0  0.47192  0.95002  0.30500  1.0000
  H   H1778     1.0  0.26610  0.87248  0.02031  1.0000
  C   C1028     1.0  0.47445  0.88400  0.06270  1.0000
  H   H1779     1.0  0.40115  0.89273  0.28581  1.0000
  H   H1780     1.0  0.35184  0.77342  0.00977  1.0000
  H   H1781     1.0  0.39316  0.51554  0.13779  1.0000
  C   C1029     1.0  0.48406  0.84198  0.10666  1.0000
  H   H1782     1.0  0.47772  0.83423  0.25578  1.0000
  H   H1783     1.0  0.46682  0.69243  0.30031  1.0000
  H   H1784     1.0  0.26537  0.90572  0.02900  1.0000
  Fe  Fe156     1.0  0.34399  0.49281  0.25392  1.0000
  H   H1785     1.0  0.40718  0.96538  0.11276  1.0000
  H   H1786     1.0  0.37147  0.89648  0.24022  1.0000
  H   H1787     1.0  0.40934  0.87338  0.25791  1.0000
  C   C1030     1.0  0.45020  0.58850  0.29309  1.0000
  C   C1031     1.0  0.38102  0.56460  0.01640  1.0000
  C   C1032     1.0  0.39115  0.58099  0.00971  1.0000
  H   H1788     1.0  0.40820  0.59778  0.98458  1.0000
  H   H1789     1.0  0.30788  0.80894  0.00123  1.0000
  C   C1033     1.0  0.25971  0.85807  0.05097  1.0000
  C   C1034     1.0  0.38026  0.55239  0.00287  1.0000
  H   H1790     1.0  0.39159  0.59060  0.02008  1.0000
  H   H1791     1.0  0.30281  0.77966  0.99669  1.0000
  H   H1792     1.0  0.34060  0.79337  0.99300  1.0000
  H   H1793     1.0  0.37260  0.53968  0.00788  1.0000
  C   C1035     1.0  0.36494  0.53933  0.10871  1.0000
  H   H1794     1.0  0.25129  0.88172  0.09151  1.0000
  S   S308      1.0  0.25966  0.91947  0.06625  1.0000
  H   H1795     1.0  0.30255  0.77894  0.06369  1.0000
  C   C1036     1.0  0.26294  0.87441  0.03583  1.0000
  N   N76       1.0  0.48045  0.87182  0.04597  1.0000
  S   S309      1.0  0.26234  0.83389  0.04527  1.0000
  H   H1796     1.0  0.32655  0.92013  0.06337  1.0000
  H   H1797     1.0  0.32846  0.87742  0.12451  1.0000
  S   S310      1.0  0.35691  0.50845  0.07263  1.0000
  C   C1037     1.0  0.41350  0.89888  0.23483  1.0000
  C   C1038     1.0  0.41233  0.91967  0.23070  1.0000
  C   C1039     1.0  0.40693  0.93075  0.24646  1.0000
  C   C1040     1.0  0.40318  0.92103  0.26639  1.0000
  C   C1041     1.0  0.40916  0.88930  0.25471  1.0000
  H   H1798     1.0  0.41569  0.92719  0.21544  1.0000
  H   H1799     1.0  0.40601  0.94685  0.24327  1.0000
  H   H1800     1.0  0.47393  0.73039  0.00519  1.0000
  C   C1042     1.0  0.32334  0.85829  0.08234  1.0000
  C   C1043     1.0  0.32581  0.50681  0.16012  1.0000
  H   H1801     1.0  0.37466  0.56500  0.11435  1.0000
  H   H1802     1.0  0.32740  0.76457  0.99411  1.0000
  H   H1803     1.0  0.28901  0.52768  0.21571  1.0000
  C   C1044     1.0  0.34484  0.54794  0.17201  1.0000
  C   C1045     1.0  0.41983  0.60764  0.24982  1.0000
  H   H1804     1.0  0.29286  0.85353  0.08224  1.0000
  C   C1046     1.0  0.31911  0.91545  0.14594  1.0000
  C   C1047     1.0  0.33666  0.90317  0.15109  1.0000
  C   C1048     1.0  0.35416  0.91119  0.14888  1.0000
  C   C1049     1.0  0.35408  0.93162  0.14194  1.0000
  C   C1050     1.0  0.33655  0.94389  0.13672  1.0000
  C   C1051     1.0  0.31913  0.93581  0.13857  1.0000
  H   H1805     1.0  0.33672  0.88741  0.15682  1.0000
  H   H1806     1.0  0.36767  0.90160  0.15267  1.0000
  H   H1807     1.0  0.33639  0.95973  0.13137  1.0000
  H   H1808     1.0  0.30563  0.94540  0.13467  1.0000
  C   C1052     1.0  0.25469  0.87973  0.07600  1.0000
  H   H1809     1.0  0.32351  0.83523  0.00349  1.0000
  C   C1053     1.0  0.26252  0.89322  0.04078  1.0000
  C   C1054     1.0  0.25850  0.89593  0.06086  1.0000
  H   H1810     1.0  0.25748  0.48818  0.04611  1.0000
  C   C1055     1.0  0.41781  0.97495  0.11393  1.0000
  H   H1811     1.0  0.36569  0.92030  0.24904  1.0000
  H   H1812     1.0  0.42767  0.85343  0.28467  1.0000
  H   H1813     1.0  0.37843  0.52360  0.18074  1.0000
  S   S311      1.0  0.24977  0.90691  0.12772  1.0000
  H   H1814     1.0  0.47541  0.97154  0.27237  1.0000
  H   H1815     1.0  0.47369  0.56505  0.03880  1.0000
  H   H1816     1.0  0.44857  0.61398  0.26942  1.0000
  H   H1817     1.0  0.47410  0.88784  0.99548  1.0000
  H   H1818     1.0  0.33683  0.80242  0.04442  1.0000
  H   H1819     1.0  0.41187  0.55981  0.12599  1.0000
  H   H1820     1.0  0.29565  0.49829  0.20007  1.0000
  H   H1821     1.0  0.32489  0.75845  0.03181  1.0000
  H   H1822     1.0  0.32093  0.82983  0.03049  1.0000
  H   H1823     1.0  0.37081  0.54167  0.09236  1.0000
  H   H1824     1.0  0.34614  0.53199  0.17906  1.0000
  H   H1825     1.0  0.28558  0.88687  0.09169  1.0000
  H   H1826     1.0  0.26837  0.52522  0.07890  1.0000
  C   C1056     1.0  0.47256  0.67721  0.29792  1.0000
  H   H1827     1.0  0.42923  0.56880  0.26877  1.0000
  H   H1828     1.0  0.33789  0.85594  0.07207  1.0000
  H   H1829     1.0  0.46785  0.84236  0.02667  1.0000
  H   H1830     1.0  0.47447  0.80884  0.26108  1.0000
  H   H1831     1.0  0.34732  0.56624  0.14280  1.0000
  Fe  Fe157     1.0  0.25583  0.83184  0.01496  1.0000
  N   N77       1.0  0.37386  0.54358  0.14214  1.0000
  H   H1832     1.0  0.32871  0.55431  0.17488  1.0000
  C   C1057     1.0  0.44535  0.54827  0.23678  1.0000
  C   C1058     1.0  0.43532  0.53216  0.24556  1.0000
  C   C1059     1.0  0.41882  0.52948  0.23816  1.0000
  C   C1060     1.0  0.41201  0.54308  0.22207  1.0000
  C   C1061     1.0  0.42195  0.55931  0.21334  1.0000
  C   C1062     1.0  0.43866  0.56186  0.22060  1.0000
  H   H1833     1.0  0.44031  0.52165  0.25815  1.0000
  H   H1834     1.0  0.41135  0.51688  0.24496  1.0000
  H   H1835     1.0  0.41680  0.56986  0.20085  1.0000
  H   H1836     1.0  0.44635  0.57429  0.21367  1.0000
  S   S312      1.0  0.47088  0.78354  0.98372  1.0000
  H   H1837     1.0  0.45548  0.85208  0.23341  1.0000
  C   C1063     1.0  0.47696  0.83737  0.03878  1.0000
  N   N78       1.0  0.35139  0.92445  0.21111  1.0000
  C   C1064     1.0  0.35878  0.94322  0.21230  1.0000
  C   C1065     1.0  0.34360  0.91538  0.23229  1.0000
  C   C1066     1.0  0.33467  0.93058  0.19898  1.0000
  C   C1067     1.0  0.36862  0.91086  0.20100  1.0000
  C   C1068     1.0  0.38961  0.55647  0.98283  1.0000
  C   C1069     1.0  0.32101  0.91521  0.20028  1.0000
  C   C1070     1.0  0.36631  0.88888  0.20209  1.0000
  H   H1838     1.0  0.38504  0.58789  0.27966  1.0000
  H   H1839     1.0  0.37240  0.93948  0.21941  1.0000
  H   H1840     1.0  0.33612  0.90254  0.23292  1.0000
  H   H1841     1.0  0.33170  0.92639  0.23946  1.0000
  H   H1842     1.0  0.34068  0.93477  0.18280  1.0000
  H   H1843     1.0  0.37227  0.91704  0.18480  1.0000
  H   H1844     1.0  0.38260  0.91050  0.20670  1.0000
  H   H1845     1.0  0.39416  0.61917  0.27933  1.0000
  H   H1846     1.0  0.25929  0.93231  0.99525  1.0000
  H   H1847     1.0  0.37534  0.94905  0.18144  1.0000
  H   H1848     1.0  0.32927  0.90075  0.19639  1.0000
  H   H1849     1.0  0.31074  0.92120  0.18923  1.0000
  H   H1850     1.0  0.31141  0.91287  0.21517  1.0000
  H   H1851     1.0  0.36232  0.88678  0.18801  1.0000
  H   H1852     1.0  0.35548  0.88304  0.21479  1.0000
  H   H1853     1.0  0.38079  0.87898  0.20399  1.0000
  H   H1854     1.0  0.43762  0.63231  0.24299  1.0000
  C   C1071     1.0  0.36418  0.95704  0.19219  1.0000
  H   H1855     1.0  0.47916  0.89893  0.05784  1.0000
  S   S313      1.0  0.39617  0.93511  0.28588  1.0000
  C   C1072     1.0  0.47240  0.85245  0.05334  1.0000
  C   C1073     1.0  0.37987  0.52128  0.14837  1.0000
  C   C1074     1.0  0.40847  0.61336  0.28508  1.0000
  C   C1075     1.0  0.48300  0.87940  0.00710  1.0000
  H   H1856     1.0  0.40134  0.97511  0.15434  1.0000
  C   C1076     1.0  0.31033  0.79199  0.06082  1.0000
  H   H1857     1.0  0.39327  0.54325  0.11325  1.0000
  C   C1077     1.0  0.34377  0.78917  0.00858  1.0000
  H   H1858     1.0  0.29963  0.80600  0.05750  1.0000
  H   H1859     1.0  0.29776  0.89820  0.10535  1.0000
  H   H1860     1.0  0.41856  0.57337  0.29324  1.0000
  C   C1078     1.0  0.34061  0.87464  0.11178  1.0000
  C   C1079     1.0  0.45198  0.88818  0.07117  1.0000
  H   H1861     1.0  0.45614  0.88147  0.02903  1.0000
  H   H1862     1.0  0.36564  0.52299  0.11381  1.0000
  H   H1863     1.0  0.42943  0.59372  0.01470  1.0000
  H   H1864     1.0  0.28657  0.87483  0.13101  1.0000
  C   C1080     1.0  0.48252  0.57009  0.99891  1.0000
  H   H1865     1.0  0.34830  0.88483  0.08009  1.0000
  H   H1866     1.0  0.44798  0.84519  0.29770  1.0000
  H   H1867     1.0  0.40419  0.60454  0.30018  1.0000
  C   C1081     1.0  0.25769  0.53060  0.05085  1.0000
  H   H1868     1.0  0.30055  0.77307  0.03394  1.0000
  H   H1869     1.0  0.33277  0.49872  0.18994  1.0000
  H   H1870     1.0  0.39422  0.56150  0.28200  1.0000
  H   H1871     1.0  0.35086  0.96416  0.18521  1.0000
  C   C1082     1.0  0.48324  0.66398  0.31172  1.0000
  H   H1872     1.0  0.36790  0.51326  0.14725  1.0000
  H   H1873     1.0  0.30813  0.85645  0.05775  1.0000
  H   H1874     1.0  0.27689  0.49405  0.02517  1.0000
  C   C1083     1.0  0.32878  0.79023  0.04415  1.0000
  C   C1084     1.0  0.33466  0.88608  0.09176  1.0000
  H   H1875     1.0  0.48225  0.87662  0.07545  1.0000
  H   H1876     1.0  0.37085  0.96932  0.19493  1.0000
  H   H1877     1.0  0.47509  0.83079  0.10701  1.0000
  C   C1085     1.0  0.31524  0.89219  0.06475  1.0000
  C   C1086     1.0  0.40056  0.58507  0.98965  1.0000
  S   S314      1.0  0.47374  0.64425  0.25492  1.0000
  H   H1878     1.0  0.31489  0.51976  0.16346  1.0000
  H   H1879     1.0  0.33096  0.90207  0.09372  1.0000
  H   H1880     1.0  0.42983  0.59746  0.24002  1.0000
  H   H1881     1.0  0.35344  0.88046  0.11448  1.0000
  C   C1087     1.0  0.47188  0.95211  0.17472  1.0000
  H   H1882     1.0  0.36651  0.79540  0.02348  1.0000
  C   C1088     1.0  0.25553  0.86079  0.07106  1.0000
  S   S315      1.0  0.26158  0.80160  0.00586  1.0000
  H   H1883     1.0  0.29984  0.84000  0.01928  1.0000
  H   H1884     1.0  0.30734  0.85733  0.12277  1.0000
  H   H1885     1.0  0.42517  0.62622  0.01428  1.0000
  Fe  Fe158     1.0  0.34260  0.49377  0.05423  1.0000
  H   H1886     1.0  0.41426  0.82814  0.30587  1.0000
  H   H1887     1.0  0.47803  0.84450  0.06733  1.0000
  C   C1089     1.0  0.35929  0.80165  0.01010  1.0000
  H   H1888     1.0  0.45386  0.59072  0.26125  1.0000
  H   H1889     1.0  0.33907  0.77621  0.04889  1.0000
  H   H1890     1.0  0.41013  0.81792  0.28515  1.0000
  H   H1891     1.0  0.44869  0.81038  0.30301  1.0000
  H   H1892     1.0  0.44072  0.64425  0.01235  1.0000
  C   C1090     1.0  0.41901  0.81555  0.29730  1.0000
  H   H1893     1.0  0.30756  0.92238  0.04868  1.0000
  S   S316      1.0  0.31214  0.49875  0.07289  1.0000
  H   H1894     1.0  0.34914  0.54689  0.11035  1.0000
  H   H1895     1.0  0.27048  0.50237  0.21192  1.0000
  C   C1091     1.0  0.37743  0.54848  0.11951  1.0000
  C   C1092     1.0  0.46967  0.67085  0.28073  1.0000
  H   H1896     1.0  0.48452  0.69939  0.99201  1.0000
  C   C1093     1.0  0.30971  0.80856  0.01688  1.0000
  H   H1897     1.0  0.24862  0.67077  0.99027  1.0000
  H   H1898     1.0  0.42371  0.55980  0.02979  1.0000
  C   C1094     1.0  0.42325  0.62918  0.24087  1.0000
  H   H1899     1.0  0.42404  0.84091  0.25781  1.0000
  C   C1095     1.0  0.38577  0.55570  0.14956  1.0000
  N   N79       1.0  0.44913  0.82893  0.27366  1.0000
  C   C1096     1.0  0.44170  0.81243  0.28956  1.0000
  C   C1097     1.0  0.47554  0.85897  0.11545  1.0000
  C   C1098     1.0  0.43869  0.83085  0.25594  1.0000
  H   H1900     1.0  0.44930  0.89951  0.08116  1.0000
  C   C1099     1.0  0.25579  0.52572  0.07169  1.0000
  H   H1901     1.0  0.44600  0.79777  0.28415  1.0000
  C   C1100     1.0  0.47180  0.88366  0.02789  1.0000
  H   H1902     1.0  0.46584  0.93834  0.17952  1.0000
  H   H1903     1.0  0.48165  0.72986  0.03842  1.0000
  H   H1904     1.0  0.43504  0.81615  0.25492  1.0000
  H   H1905     1.0  0.27216  0.50856  0.28981  1.0000
  H   H1906     1.0  0.44665  0.61614  0.04059  1.0000
  H   H1907     1.0  0.41602  0.55885  0.15083  1.0000
  H   H1908     1.0  0.28333  0.85895  0.11546  1.0000
  N   N80       1.0  0.31773  0.87991  0.08511  1.0000
  C   C1101     1.0  0.29854  0.88411  0.09959  1.0000
  H   H1909     1.0  0.30519  0.52346  0.31339  1.0000
  H   H1910     1.0  0.45913  0.59450  0.99106  1.0000
  C   C1102     1.0  0.38553  0.51395  0.16950  1.0000
  H   H1911     1.0  0.29443  0.80750  0.02536  1.0000
  N   N81       1.0  0.45828  0.59244  0.02285  1.0000
  Fe  Fe159     1.0  0.25126  0.96386  0.11596  1.0000
  C   C1103     1.0  0.33005  0.50236  0.14066  1.0000
  C   C1104     1.0  0.43851  0.58536  0.02623  1.0000
  C   C1105     1.0  0.44409  0.59902  0.27279  1.0000
  C   C1106     1.0  0.43915  0.56316  0.02546  1.0000
  H   H1912     1.0  0.42413  0.96805  0.12761  1.0000
  H   H1913     1.0  0.46460  0.59252  0.29420  1.0000
  C   C1107     1.0  0.45395  0.61429  0.02501  1.0000
  H   H1914     1.0  0.38104  0.49912  0.17555  1.0000
  H   H1915     1.0  0.44440  0.56001  0.00998  1.0000
  H   H1916     1.0  0.42960  0.58838  0.04095  1.0000
  C   C1108     1.0  0.45001  0.83788  0.23483  1.0000
  C   C1109     1.0  0.33591  0.49489  0.17515  1.0000
  S   S317      1.0  0.31261  0.50248  0.27012  1.0000
  C   C1110     1.0  0.44090  0.62858  0.01068  1.0000
  H   H1917     1.0  0.47774  0.55695  0.00935  1.0000
  H   H1918     1.0  0.45263  0.57197  0.29415  1.0000
  C   C1111     1.0  0.47744  0.65125  0.27709  1.0000
  H   H1919     1.0  0.48536  0.86347  0.00567  1.0000
  C   C1112     1.0  0.29418  0.86760  0.11793  1.0000
  C   C1113     1.0  0.31413  0.82936  0.01754  1.0000
  H   H1920     1.0  0.47273  0.82291  0.04705  1.0000
  N   N82       1.0  0.42249  0.60027  0.27137  1.0000
  C   C1114     1.0  0.30814  0.85028  0.07387  1.0000
  H   H1921     1.0  0.32458  0.94424  0.20345  1.0000
  H   H1922     1.0  0.44279  0.89412  0.05923  1.0000
  H   H1923     1.0  0.42804  0.62690  0.29820  1.0000
  H   H1924     1.0  0.41491  0.53612  0.14289  1.0000
  C   C1115     1.0  0.47222  0.96211  0.15499  1.0000
  H   H1925     1.0  0.42965  0.97375  0.10059  1.0000
  H   H1926     1.0  0.47733  0.50464  0.25325  1.0000
  H   H1927     1.0  0.47487  0.48999  0.23605  1.0000
  C   C1116     1.0  0.47132  0.82279  0.26770  1.0000
  Fe  Fe160     1.0  0.25384  0.92666  0.09766  1.0000
  H   H1928     1.0  0.35250  0.55614  0.17950  1.0000
  C   C1117     1.0  0.29928  0.48696  0.28951  1.0000
  H   H1929     1.0  0.46077  0.58250  0.05413  1.0000
  S   S318      1.0  0.37216  0.49997  0.26012  1.0000
  C   C1118     1.0  0.26232  0.48476  0.99301  1.0000
  H   H1930     1.0  0.34554  0.85839  0.11183  1.0000
  H   H1931     1.0  0.30276  0.55002  0.30849  1.0000
  N   N83       1.0  0.32458  0.79051  0.02353  1.0000
  H   H1932     1.0  0.30068  0.92046  0.07511  1.0000
  H   H1933     1.0  0.25215  0.49938  0.24358  1.0000
  C   C1119     1.0  0.35933  0.90790  0.24618  1.0000
  C   C1120     1.0  0.40437  0.90026  0.27049  1.0000
  H   H1934     1.0  0.30197  0.88931  0.05973  1.0000
  C   C1121     1.0  0.44403  0.84799  0.28244  1.0000
  C   C1122     1.0  0.39730  0.57645  0.27391  1.0000
  H   H1935     1.0  0.25578  0.97501  0.07536  1.0000
  S   S319      1.0  0.28024  0.53621  0.03601  1.0000
  H   H1936     1.0  0.38017  0.57202  0.14545  1.0000
  H   H1937     1.0  0.35216  0.90066  0.26099  1.0000
  H   H1938     1.0  0.43974  0.84043  0.22381  1.0000
  C   C1123     1.0  0.35194  0.55021  0.14922  1.0000
  H   H1939     1.0  0.43905  0.59287  0.30602  1.0000
  C   C1124     1.0  0.48021  0.95949  0.18804  1.0000
  H   H1940     1.0  0.32591  0.84804  0.09642  1.0000
  S   S320      1.0  0.46411  0.95209  0.13734  1.0000
  C   C1125     1.0  0.31304  0.76753  0.00435  1.0000
  H   H1941     1.0  0.34276  0.54169  0.14378  1.0000
  H   H1942     1.0  0.45589  0.85524  0.05733  1.0000
  H   H1943     1.0  0.41075  0.64028  0.24689  1.0000
  C   C1126     1.0  0.29087  0.51280  0.22550  1.0000
  C   C1127     1.0  0.40841  0.55222  0.14173  1.0000
  H   H1944     1.0  0.38399  0.55309  0.16612  1.0000
  C   C1128     1.0  0.46954  0.59055  0.00206  1.0000
  C   C1129     1.0  0.27916  0.49399  0.29650  1.0000
  H   H1945     1.0  0.40362  0.64086  0.29744  1.0000
  Fe  Fe161     1.0  0.48302  0.57642  0.23348  1.0000
  H   H1946     1.0  0.44797  0.55277  0.03611  1.0000
  H   H1947     1.0  0.46160  0.68130  0.27003  1.0000
  H   H1948     1.0  0.48086  0.88642  0.12189  1.0000
  H   H1949     1.0  0.42355  0.63161  0.22444  1.0000
  H   H1950     1.0  0.30618  0.75383  0.00719  1.0000
  H   H1951     1.0  0.28080  0.51435  0.23993  1.0000
  S   S321      1.0  0.24770  0.94726  0.14765  1.0000
  H   H1952     1.0  0.39725  0.57647  0.25784  1.0000
  C   C1130     1.0  0.24880  0.94563  0.98952  1.0000
  C   C1131     1.0  0.28597  0.49717  0.21503  1.0000
  H   H1953     1.0  0.48053  0.95141  0.20314  1.0000
  H   H1954     1.0  0.47796  0.65194  0.98632  1.0000
  H   H1955     1.0  0.24271  0.53515  0.02550  1.0000
  C   C1132     1.0  0.45378  0.86583  0.27042  1.0000
  C   C1133     1.0  0.48459  0.49972  0.23881  1.0000
  H   H1956     1.0  0.42161  0.64140  0.27509  1.0000
  H   H1957     1.0  0.44855  0.87872  0.27857  1.0000
  C   C1134     1.0  0.23742  0.52199  0.08327  1.0000
  H   H1958     1.0  0.44928  0.87091  0.25555  1.0000
  H   H1959     1.0  0.47084  0.90004  0.02724  1.0000
  S   S322      1.0  0.27037  0.84665  0.98518  1.0000
  H   H1960     1.0  0.25288  0.84821  0.08282  1.0000
  H   H1961     1.0  0.48169  0.80477  0.29501  1.0000
  H   H1962     1.0  0.48402  0.51282  0.22667  1.0000
  C   C1135     1.0  0.24128  0.53132  0.04163  1.0000
  C   C1136     1.0  0.46997  0.58131  0.03908  1.0000
  H   H1963     1.0  0.27011  0.96481  0.98720  1.0000
  H   H1964     1.0  0.28214  0.53883  0.30740  1.0000
  C   C1137     1.0  0.48613  0.79950  0.98704  1.0000
  H   H1965     1.0  0.46799  0.62052  0.02235  1.0000
  H   H1966     1.0  0.47025  0.86266  0.26894  1.0000
  H   H1967     1.0  0.26591  0.49827  0.99695  1.0000
  C   C1138     1.0  0.48383  0.81893  0.28459  1.0000
  H   H1968     1.0  0.48072  0.83150  0.29307  1.0000
  H   H1969     1.0  0.32120  0.48679  0.02692  1.0000
  H   H1970     1.0  0.23884  0.95087  0.00280  1.0000
  C   C1139     1.0  0.48691  0.94891  0.29550  1.0000
  C   C1140     1.0  0.34414  0.48557  0.13640  1.0000
  H   H1971     1.0  0.48223  0.56765  0.98358  1.0000
  C   C1141     1.0  0.29659  0.79416  0.57797  1.0000
  H   H1972     1.0  0.43606  0.97868  0.36915  1.0000
  S   S323      1.0  0.26279  0.63186  0.48053  1.0000
  Fe  Fe162     1.0  0.45041  0.73578  0.60768  1.0000
  S   S324      1.0  0.42845  0.74501  0.58586  1.0000
  H   H1973     1.0  0.33875  0.95880  0.56690  1.0000
  Fe  Fe163     1.0  0.31955  0.71173  0.51574  1.0000
  S   S325      1.0  0.33366  0.73404  0.49102  1.0000
  S   S326      1.0  0.29100  0.70103  0.51250  1.0000
  Fe  Fe164     1.0  0.34910  0.71350  0.54329  1.0000
  S   S327      1.0  0.36466  0.73564  0.52061  1.0000
  S   S328      1.0  0.36246  0.70036  0.57150  1.0000
  Fe  Fe165     1.0  0.33425  0.75119  0.51537  1.0000
  S   S329      1.0  0.32747  0.78525  0.50958  1.0000
  Fe  Fe166     1.0  0.36290  0.71672  0.49868  1.0000
  S   S330      1.0  0.39255  0.70798  0.47969  1.0000
  S   S331      1.0  0.31823  0.73030  0.53973  1.0000
  S   S332      1.0  0.34913  0.69322  0.52159  1.0000
  H   H1974     1.0  0.42640  0.88674  0.64074  1.0000
  S   S333      1.0  0.45391  0.74085  0.37978  1.0000
  C   C1142     1.0  0.25573  0.63576  0.54724  1.0000
  S   S334      1.0  0.47165  0.78568  0.64025  1.0000
  S   S335      1.0  0.46079  0.69267  0.38017  1.0000
  Fe  Fe167     1.0  0.43776  0.71938  0.37219  1.0000
  S   S336      1.0  0.40494  0.72226  0.38522  1.0000
  S   S337      1.0  0.45046  0.72463  0.33923  1.0000
  Fe  Fe168     1.0  0.43430  0.91197  0.34254  1.0000
  S   S338      1.0  0.41596  0.89561  0.36893  1.0000
  Fe  Fe169     1.0  0.46862  0.74416  0.34783  1.0000
  H   H1975     1.0  0.47954  0.77179  0.37779  1.0000
  H   H1976     1.0  0.26320  0.60097  0.51675  1.0000
  Fe  Fe170     1.0  0.39053  0.91987  0.36095  1.0000
  S   S339      1.0  0.36662  0.93236  0.38511  1.0000
  Fe  Fe171     1.0  0.40900  0.88008  0.34627  1.0000
  S   S340      1.0  0.40539  0.84734  0.35358  1.0000
  S   S341      1.0  0.40949  0.93746  0.33626  1.0000
  C   C1143     1.0  0.27801  0.48543  0.36304  1.0000
  Fe  Fe172     1.0  0.33339  0.87161  0.56561  1.0000
  S   S342      1.0  0.31856  0.88500  0.59318  1.0000
  S   S343      1.0  0.34448  0.83805  0.56784  1.0000
  Fe  Fe173     1.0  0.32832  0.91221  0.53881  1.0000
  S   S344      1.0  0.31245  0.92864  0.56395  1.0000
  S   S345      1.0  0.33731  0.92714  0.50708  1.0000
  Fe  Fe174     1.0  0.33621  0.91037  0.58105  1.0000
  S   S346      1.0  0.35715  0.92302  0.59557  1.0000
  Fe  Fe175     1.0  0.29614  0.90223  0.57373  1.0000
  S   S347      1.0  0.26277  0.90476  0.58540  1.0000
  S   S348      1.0  0.35290  0.89519  0.55510  1.0000
  S   S349      1.0  0.31018  0.88750  0.54705  1.0000
  C   C1144     1.0  0.32609  0.95232  0.50330  1.0000
  H   H1977     1.0  0.25132  0.58658  0.55285  1.0000
  H   H1978     1.0  0.39794  0.90742  0.62670  1.0000
  H   H1979     1.0  0.34849  0.96083  0.47825  1.0000
  H   H1980     1.0  0.33754  0.90596  0.44702  1.0000
  C   C1145     1.0  0.46498  0.71860  0.54487  1.0000
  C   C1146     1.0  0.25402  0.89035  0.55403  1.0000
  H   H1981     1.0  0.26889  0.89198  0.54637  1.0000
  C   C1147     1.0  0.36663  0.95589  0.39121  1.0000
  H   H1982     1.0  0.33963  0.95476  0.41288  1.0000
  Fe  Fe176     1.0  0.47487  0.69903  0.34758  1.0000
  Fe  Fe177     1.0  0.47820  0.71472  0.38524  1.0000
  H   H1983     1.0  0.39373  0.96134  0.37113  1.0000
  H   H1984     1.0  0.25685  0.51806  0.37913  1.0000
  H   H1985     1.0  0.43647  0.63563  0.62230  1.0000
  H   H1986     1.0  0.43454  0.94637  0.35992  1.0000
  C   C1148     1.0  0.35705  0.94443  0.60639  1.0000
  C   C1149     1.0  0.33965  0.95778  0.61183  1.0000
  C   C1150     1.0  0.39339  0.89727  0.42144  1.0000
  C   C1151     1.0  0.35118  0.98175  0.41151  1.0000
  Fe  Fe178     1.0  0.47239  0.75568  0.63114  1.0000
  H   H1987     1.0  0.32545  0.95511  0.60977  1.0000
  H   H1988     1.0  0.28288  0.60931  0.52499  1.0000
  C   C1152     1.0  0.45586  0.79517  0.34074  1.0000
  C   C1153     1.0  0.46005  0.81473  0.33734  1.0000
  C   C1154     1.0  0.44479  0.83093  0.34138  1.0000
  C   C1155     1.0  0.42524  0.82761  0.34876  1.0000
  C   C1156     1.0  0.42114  0.80805  0.35231  1.0000
  C   C1157     1.0  0.43638  0.79187  0.34846  1.0000
  C   C1158     1.0  0.35890  0.97824  0.62331  1.0000
  H   H1989     1.0  0.44808  0.84597  0.33863  1.0000
  H   H1990     1.0  0.40600  0.80547  0.35767  1.0000
  H   H1991     1.0  0.43290  0.77692  0.35083  1.0000
  C   C1159     1.0  0.39544  0.71256  0.45350  1.0000
  C   C1160     1.0  0.37974  0.72246  0.44342  1.0000
  C   C1161     1.0  0.38255  0.72509  0.42239  1.0000
  C   C1162     1.0  0.40119  0.71830  0.41148  1.0000
  C   C1163     1.0  0.41693  0.70889  0.42164  1.0000
  C   C1164     1.0  0.41403  0.70592  0.44258  1.0000
  H   H1992     1.0  0.36547  0.72798  0.45181  1.0000
  H   H1993     1.0  0.37041  0.73261  0.41453  1.0000
  H   H1994     1.0  0.43139  0.70380  0.41341  1.0000
  H   H1995     1.0  0.42628  0.69840  0.45031  1.0000
  C   C1165     1.0  0.33371  0.79968  0.52515  1.0000
  C   C1166     1.0  0.34209  0.79072  0.54225  1.0000
  C   C1167     1.0  0.34586  0.80269  0.55486  1.0000
  C   C1168     1.0  0.34107  0.82369  0.55065  1.0000
  C   C1169     1.0  0.33321  0.83265  0.53324  1.0000
  C   C1170     1.0  0.32965  0.82069  0.52052  1.0000
  H   H1996     1.0  0.34538  0.77458  0.54596  1.0000
  H   H1997     1.0  0.35210  0.79562  0.56820  1.0000
  H   H1998     1.0  0.32968  0.84878  0.52969  1.0000
  H   H1999     1.0  0.32336  0.82776  0.50722  1.0000
  C   C1171     1.0  0.40915  0.73261  0.58407  1.0000
  C   C1172     1.0  0.40903  0.71236  0.59203  1.0000
  C   C1173     1.0  0.39438  0.70265  0.58852  1.0000
  C   C1174     1.0  0.37992  0.71309  0.57686  1.0000
  C   C1175     1.0  0.37987  0.73341  0.56927  1.0000
  C   C1176     1.0  0.39443  0.74309  0.57282  1.0000
  H   H2000     1.0  0.42062  0.70409  0.60024  1.0000
  H   H2001     1.0  0.39453  0.68691  0.59439  1.0000
  H   H2002     1.0  0.36856  0.74175  0.56069  1.0000
  H   H2003     1.0  0.39433  0.75880  0.56671  1.0000
  C   C1177     1.0  0.27003  0.65115  0.48990  1.0000
  C   C1178     1.0  0.29012  0.64943  0.49195  1.0000
  C   C1179     1.0  0.29674  0.66428  0.49911  1.0000
  C   C1180     1.0  0.28345  0.68137  0.50396  1.0000
  C   C1181     1.0  0.26331  0.68298  0.50211  1.0000
  C   C1182     1.0  0.25660  0.66798  0.49525  1.0000
  H   H2004     1.0  0.30063  0.63638  0.48811  1.0000
  H   H2005     1.0  0.31211  0.66248  0.50096  1.0000
  H   H2006     1.0  0.44083  0.95318  0.62067  1.0000
  H   H2007     1.0  0.37568  0.98224  0.55180  1.0000
  H   H2008     1.0  0.26819  0.80079  0.59709  1.0000
  H   H2009     1.0  0.39839  0.81798  0.39899  1.0000
  H   H2010     1.0  0.46245  0.93369  0.61798  1.0000
  H   H2011     1.0  0.38887  0.93840  0.60459  1.0000
  H   H2012     1.0  0.26074  0.83494  0.59794  1.0000
  C   C1183     1.0  0.41286  0.69783  0.64482  1.0000
  N   N84       1.0  0.39828  0.77873  0.43100  1.0000
  C   C1184     1.0  0.39344  0.77118  0.45325  1.0000
  C   C1185     1.0  0.41571  0.76421  0.42257  1.0000
  C   C1186     1.0  0.38019  0.77894  0.42188  1.0000
  C   C1187     1.0  0.40300  0.79956  0.42821  1.0000
  C   C1188     1.0  0.37396  0.78188  0.46456  1.0000
  C   C1189     1.0  0.43508  0.76190  0.43105  1.0000
  C   C1190     1.0  0.38356  0.77835  0.39925  1.0000
  C   C1191     1.0  0.41086  0.80947  0.40672  1.0000
  H   H2013     1.0  0.39237  0.75495  0.45615  1.0000
  H   H2014     1.0  0.40554  0.77239  0.46108  1.0000
  H   H2015     1.0  0.41972  0.76790  0.40607  1.0000
  H   H2016     1.0  0.41163  0.74909  0.42521  1.0000
  H   H2017     1.0  0.37287  0.76578  0.42924  1.0000
  H   H2018     1.0  0.36871  0.79235  0.42456  1.0000
  H   H2019     1.0  0.38946  0.81006  0.43346  1.0000
  H   H2020     1.0  0.41361  0.80031  0.43802  1.0000
  H   H2021     1.0  0.37242  0.77518  0.48072  1.0000
  H   H2022     1.0  0.37397  0.79804  0.46362  1.0000
  H   H2023     1.0  0.36050  0.77980  0.45942  1.0000
  H   H2024     1.0  0.43347  0.75455  0.44695  1.0000
  H   H2025     1.0  0.44705  0.75189  0.42273  1.0000
  H   H2026     1.0  0.44025  0.77639  0.42922  1.0000
  H   H2027     1.0  0.39117  0.79045  0.39002  1.0000
  H   H2028     1.0  0.36887  0.78020  0.39446  1.0000
  H   H2029     1.0  0.39194  0.76368  0.39576  1.0000
  H   H2030     1.0  0.38199  0.90127  0.50173  1.0000
  H   H2031     1.0  0.42045  0.79900  0.39725  1.0000
  H   H2032     1.0  0.42056  0.82017  0.40740  1.0000
  H   H2033     1.0  0.26728  0.79121  0.57539  1.0000
  H   H2034     1.0  0.42513  0.68248  0.53833  1.0000
  H   H2035     1.0  0.30121  0.94849  0.52713  1.0000
  Fe  Fe179     1.0  0.46285  0.71337  0.64738  1.0000
  H   H2036     1.0  0.39909  0.69906  0.63859  1.0000
  H   H2037     1.0  0.40541  0.94128  0.64693  1.0000
  C   C1192     1.0  0.33505  0.96595  0.48804  1.0000
  H   H2038     1.0  0.42995  0.68765  0.51101  1.0000
  H   H2039     1.0  0.40174  0.88244  0.41833  1.0000
  H   H2040     1.0  0.46162  0.73439  0.54727  1.0000
  H   H2041     1.0  0.44860  0.94317  0.59805  1.0000
  C   C1193     1.0  0.44877  0.95105  0.35821  1.0000
  H   H2042     1.0  0.39508  0.88633  0.48351  1.0000
  C   C1194     1.0  0.43208  0.74439  0.52594  1.0000
  H   H2043     1.0  0.25280  0.69605  0.50590  1.0000
  N   N85       1.0  0.42976  0.91614  0.64443  1.0000
  H   H2044     1.0  0.39050  0.96769  0.61970  1.0000
  S   S350      1.0  0.47738  0.75100  0.59926  1.0000
  C   C1195     1.0  0.28410  0.52528  0.38383  1.0000
  C   C1196     1.0  0.36051  0.95532  0.54027  1.0000
  H   H2045     1.0  0.27449  0.84351  0.54258  1.0000
  C   C1197     1.0  0.27216  0.59867  0.52882  1.0000
  H   H2046     1.0  0.36566  0.96343  0.52515  1.0000
  H   H2047     1.0  0.25774  0.88609  0.63220  1.0000
  H   H2048     1.0  0.46875  0.89752  0.62609  1.0000
  H   H2049     1.0  0.26406  0.63732  0.53168  1.0000
  C   C1198     1.0  0.32075  0.97303  0.36761  1.0000
  C   C1199     1.0  0.27905  0.82757  0.54935  1.0000
  C   C1200     1.0  0.38178  0.96700  0.38229  1.0000
  C   C1201     1.0  0.46627  0.93888  0.35085  1.0000
  H   H2050     1.0  0.45809  0.87838  0.64490  1.0000
  H   H2051     1.0  0.25215  0.55546  0.32429  1.0000
  H   H2052     1.0  0.24118  0.83927  0.55768  1.0000
  H   H2053     1.0  0.29204  0.50965  0.38653  1.0000
  H   H2054     1.0  0.29880  0.84542  0.56924  1.0000
  N   N86       1.0  0.27500  0.52341  0.34981  1.0000
  S   S351      1.0  0.46739  0.70500  0.61670  1.0000
  H   H2055     1.0  0.26238  0.81823  0.52982  1.0000
  H   H2056     1.0  0.43999  0.74398  0.48302  1.0000
  C   C1202     1.0  0.38563  0.95591  0.44354  1.0000
  H   H2057     1.0  0.40800  0.65867  0.62589  1.0000
  C   C1203     1.0  0.27726  0.81443  0.53446  1.0000
  H   H2058     1.0  0.30127  0.53730  0.34447  1.0000
  C   C1204     1.0  0.44967  0.96928  0.36359  1.0000
  H   H2059     1.0  0.29707  0.82881  0.59344  1.0000
  C   C1205     1.0  0.27391  0.80214  0.58072  1.0000
  H   H2060     1.0  0.28122  0.58345  0.52906  1.0000
  C   C1206     1.0  0.34062  0.97459  0.62012  1.0000
  H   H2061     1.0  0.25649  0.49888  0.56155  1.0000
  H   H2062     1.0  0.26049  0.85337  0.57603  1.0000
  H   H2063     1.0  0.28420  0.97823  0.39926  1.0000
  H   H2064     1.0  0.47015  0.70954  0.55865  1.0000
  S   S352      1.0  0.46539  0.91647  0.34308  1.0000
  H   H2065     1.0  0.43066  0.72094  0.48416  1.0000
  C   C1207     1.0  0.30865  0.95904  0.51589  1.0000
  H   H2066     1.0  0.40062  0.90868  0.41026  1.0000
  N   N87       1.0  0.34965  0.67662  0.45004  1.0000
  C   C1208     1.0  0.35439  0.67827  0.46999  1.0000
  C   C1209     1.0  0.33598  0.69568  0.44335  1.0000
  C   C1210     1.0  0.36902  0.67454  0.43536  1.0000
  C   C1211     1.0  0.34001  0.65834  0.45310  1.0000
  C   C1212     1.0  0.37098  0.66201  0.47810  1.0000
  C   C1213     1.0  0.31558  0.69958  0.45699  1.0000
  C   C1214     1.0  0.36785  0.68079  0.41286  1.0000
  C   C1215     1.0  0.33155  0.65482  0.43538  1.0000
  H   H2067     1.0  0.35892  0.69296  0.46928  1.0000
  H   H2068     1.0  0.34100  0.67780  0.48191  1.0000
  H   H2069     1.0  0.33271  0.69643  0.42817  1.0000
  H   H2070     1.0  0.34339  0.70885  0.44195  1.0000
  H   H2071     1.0  0.37928  0.68373  0.43816  1.0000
  H   H2072     1.0  0.37715  0.65885  0.43751  1.0000
  H   H2073     1.0  0.35081  0.64453  0.45700  1.0000
  H   H2074     1.0  0.32797  0.65788  0.46640  1.0000
  H   H2075     1.0  0.38571  0.66260  0.46834  1.0000
  H   H2076     1.0  0.37271  0.66480  0.49286  1.0000
  H   H2077     1.0  0.36729  0.64676  0.48056  1.0000
  H   H2078     1.0  0.30684  0.68743  0.45861  1.0000
  H   H2079     1.0  0.31705  0.70198  0.47195  1.0000
  H   H2080     1.0  0.30665  0.71356  0.45017  1.0000
  H   H2081     1.0  0.35771  0.67310  0.40793  1.0000
  H   H2082     1.0  0.38295  0.67691  0.40406  1.0000
  H   H2083     1.0  0.36353  0.69725  0.40876  1.0000
  H   H2084     1.0  0.34311  0.64592  0.42558  1.0000
  H   H2085     1.0  0.32495  0.66867  0.42628  1.0000
  H   H2086     1.0  0.31898  0.64638  0.44133  1.0000
  H   H2087     1.0  0.47032  0.77839  0.40181  1.0000
  C   C1216     1.0  0.48267  0.77966  0.38891  1.0000
  N   N88       1.0  0.26731  0.82307  0.57013  1.0000
  H   H2088     1.0  0.27487  0.48653  0.37917  1.0000
  H   H2089     1.0  0.39965  0.75335  0.52749  1.0000
  C   C1217     1.0  0.24412  0.54508  0.33601  1.0000
  H   H2090     1.0  0.41352  0.77319  0.51778  1.0000
  C   C1218     1.0  0.42006  0.69194  0.52472  1.0000
  H   H2091     1.0  0.30029  0.78440  0.59205  1.0000
  H   H2092     1.0  0.43975  0.91038  0.61398  1.0000
  C   C1219     1.0  0.35133  0.96334  0.40583  1.0000
  C   C1220     1.0  0.44715  0.93916  0.61460  1.0000
  C   C1221     1.0  0.43348  0.92319  0.62212  1.0000
  H   H2093     1.0  0.30218  0.50238  0.35441  1.0000
  H   H2094     1.0  0.32949  0.96720  0.54393  1.0000
  S   S353      1.0  0.44383  0.74315  0.63871  1.0000
  C   C1222     1.0  0.37532  0.94826  0.60930  1.0000
  H   H2095     1.0  0.31615  0.96484  0.38276  1.0000
  H   H2096     1.0  0.45689  0.70274  0.50540  1.0000
  S   S354      1.0  0.47471  0.77538  0.33366  1.0000
  H   H2097     1.0  0.29502  0.53549  0.37734  1.0000
  H   H2098     1.0  0.41920  0.92992  0.61669  1.0000
  C   C1223     1.0  0.24308  0.49504  0.55776  1.0000
  H   H2099     1.0  0.42922  0.74628  0.54195  1.0000
  C   C1224     1.0  0.28758  0.50291  0.34984  1.0000
  H   H2100     1.0  0.26128  0.51818  0.32625  1.0000
  C   C1225     1.0  0.28748  0.53873  0.33811  1.0000
  H   H2101     1.0  0.29140  0.49916  0.33447  1.0000
  H   H2102     1.0  0.37792  0.89813  0.41900  1.0000
  C   C1226     1.0  0.44360  0.72746  0.48536  1.0000
  H   H2103     1.0  0.43558  0.71131  0.55588  1.0000
  H   H2104     1.0  0.25446  0.66747  0.54623  1.0000
  H   H2105     1.0  0.47505  0.81744  0.33128  1.0000
  C   C1227     1.0  0.24574  0.82514  0.56787  1.0000
  C   C1228     1.0  0.28933  0.84171  0.58394  1.0000
  H   H2106     1.0  0.41308  0.75563  0.50219  1.0000
  C   C1229     1.0  0.25897  0.59975  0.54954  1.0000
  H   H2107     1.0  0.25148  0.54714  0.56185  1.0000
  N   N89       1.0  0.38279  0.91821  0.44994  1.0000
  C   C1230     1.0  0.39253  0.93519  0.43700  1.0000
  C   C1231     1.0  0.39415  0.89909  0.44311  1.0000
  C   C1232     1.0  0.38460  0.91796  0.47140  1.0000
  C   C1233     1.0  0.36123  0.92214  0.44729  1.0000
  C   C1234     1.0  0.24749  0.89740  0.64045  1.0000
  C   C1235     1.0  0.38225  0.89844  0.48642  1.0000
  C   C1236     1.0  0.34875  0.90544  0.45660  1.0000
  H   H2108     1.0  0.39002  0.95619  0.45802  1.0000
  H   H2109     1.0  0.38997  0.93738  0.42128  1.0000
  H   H2110     1.0  0.38899  0.88564  0.45272  1.0000
  H   H2111     1.0  0.41015  0.89723  0.44454  1.0000
  H   H2112     1.0  0.39952  0.92110  0.47218  1.0000
  H   H2113     1.0  0.37353  0.93011  0.47768  1.0000
  H   H2114     1.0  0.35301  0.93556  0.45372  1.0000
  H   H2115     1.0  0.35983  0.92626  0.43117  1.0000
  H   H2116     1.0  0.45495  0.65046  0.62343  1.0000
  H   H2117     1.0  0.24863  0.91218  0.63102  1.0000
  C   C1237     1.0  0.24168  0.88213  0.54519  1.0000
  H   H2118     1.0  0.45158  0.69500  0.54044  1.0000
  H   H2119     1.0  0.43173  0.67770  0.62647  1.0000
  S   S355      1.0  0.38195  0.90309  0.34022  1.0000
  H   H2120     1.0  0.34063  0.90767  0.47177  1.0000
  H   H2121     1.0  0.35731  0.89011  0.45745  1.0000
  H   H2122     1.0  0.29511  0.82608  0.54954  1.0000
  N   N90       1.0  0.43678  0.72240  0.52412  1.0000
  H   H2123     1.0  0.37284  0.95084  0.54912  1.0000
  C   C1238     1.0  0.41781  0.71445  0.52526  1.0000
  H   H2124     1.0  0.24352  0.81295  0.56067  1.0000
  C   C1239     1.0  0.42710  0.67776  0.64281  1.0000
  H   H2125     1.0  0.30619  0.80569  0.57445  1.0000
  H   H2126     1.0  0.24675  0.51445  0.35032  1.0000
  C   C1240     1.0  0.41359  0.75714  0.51766  1.0000
  H   H2127     1.0  0.40739  0.71734  0.53925  1.0000
  H   H2128     1.0  0.27682  0.52915  0.39874  1.0000
  C   C1241     1.0  0.45132  0.71902  0.50525  1.0000
  H   H2129     1.0  0.40969  0.72231  0.51288  1.0000
  H   H2130     1.0  0.28759  0.85478  0.59156  1.0000
  C   C1242     1.0  0.37629  0.96493  0.61777  1.0000
  C   C1243     1.0  0.26847  0.83853  0.58225  1.0000
  C   C1244     1.0  0.44652  0.71106  0.54172  1.0000
  H   H2131     1.0  0.35647  0.94122  0.53823  1.0000
  H   H2132     1.0  0.26916  0.59691  0.56075  1.0000
  C   C1245     1.0  0.40290  0.65688  0.64240  1.0000
  H   H2133     1.0  0.44512  0.75195  0.51891  1.0000
  H   H2134     1.0  0.25251  0.48784  0.31729  1.0000
  C   C1246     1.0  0.34207  0.96749  0.55151  1.0000
  H   H2135     1.0  0.36813  0.89323  0.48691  1.0000
  C   C1247     1.0  0.46809  0.97536  0.36176  1.0000
  C   C1248     1.0  0.44684  0.63811  0.63145  1.0000
  H   H2136     1.0  0.26718  0.63266  0.55717  1.0000
  H   H2137     1.0  0.40515  0.68852  0.52449  1.0000
  N   N91       1.0  0.24407  0.61876  0.55150  1.0000
  C   C1249     1.0  0.24718  0.89608  0.57285  1.0000
  H   H2138     1.0  0.40904  0.93171  0.43616  1.0000
  H   H2139     1.0  0.25408  0.50431  0.52650  1.0000
  H   H2140     1.0  0.30101  0.78438  0.56634  1.0000
  H   H2141     1.0  0.36937  0.96098  0.44442  1.0000
  C   C1250     1.0  0.26786  0.52775  0.37083  1.0000
  H   H2142     1.0  0.25969  0.54334  0.37069  1.0000
  H   H2143     1.0  0.46481  0.72574  0.50427  1.0000
  C   C1251     1.0  0.46398  0.89258  0.64233  1.0000
  H   H2144     1.0  0.27945  0.55419  0.33933  1.0000
  H   H2145     1.0  0.28830  0.81730  0.52061  1.0000
  C   C1252     1.0  0.25697  0.52423  0.34047  1.0000
  H   H2146     1.0  0.28048  0.79823  0.54052  1.0000
  H   H2147     1.0  0.24726  0.87734  0.53085  1.0000
  C   C1253     1.0  0.39721  0.90412  0.64317  1.0000
  H   H2148     1.0  0.47765  0.71671  0.53240  1.0000
  C   C1254     1.0  0.30069  0.97948  0.51387  1.0000
  C   C1255     1.0  0.24378  0.65680  0.54919  1.0000
  H   H2149     1.0  0.33581  0.96505  0.36205  1.0000
  H   H2150     1.0  0.36126  0.97675  0.57585  1.0000
  H   H2151     1.0  0.31100  0.97176  0.35723  1.0000
  H   H2152     1.0  0.24112  0.66963  0.49379  1.0000
  H   H2153     1.0  0.45559  0.72345  0.47281  1.0000
  C   C1256     1.0  0.29459  0.53747  0.31565  1.0000
  H   H2154     1.0  0.24317  0.51505  0.44160  1.0000
  S   S356      1.0  0.23862  0.52436  0.60006  1.0000
  H   H2155     1.0  0.47243  0.97811  0.31615  1.0000
  H   H2156     1.0  0.39296  0.96718  0.43216  1.0000
  C   C1257     1.0  0.48471  0.94483  0.34929  1.0000
  H   H2157     1.0  0.23843  0.55200  0.34961  1.0000
  S   S357      1.0  0.42950  0.89446  0.32036  1.0000
  H   H2158     1.0  0.38779  0.63468  0.63641  1.0000
  H   H2159     1.0  0.30193  0.98001  0.56513  1.0000
  H   H2160     1.0  0.45828  0.62436  0.63299  1.0000
  H   H2161     1.0  0.42051  0.71027  0.63609  1.0000
  H   H2162     1.0  0.24093  0.95405  0.47962  1.0000
  H   H2163     1.0  0.30330  0.97293  0.41457  1.0000
  C   C1258     1.0  0.23970  0.50688  0.53700  1.0000
  C   C1259     1.0  0.48562  0.96307  0.35469  1.0000
  H   H2164     1.0  0.48197  0.79587  0.38295  1.0000
  H   H2165     1.0  0.24454  0.61398  0.58334  1.0000
  H   H2166     1.0  0.39016  0.66941  0.64396  1.0000
  C   C1260     1.0  0.48424  0.95120  0.64646  1.0000
  S   S358      1.0  0.23995  0.55291  0.45385  1.0000
  Fe  Fe180     1.0  0.40308  0.91875  0.31610  1.0000
  H   H2167     1.0  0.23774  0.62709  0.52124  1.0000
  H   H2168     1.0  0.23728  0.52283  0.53864  1.0000
  H   H2169     1.0  0.38095  0.63951  0.66177  1.0000
  Fe  Fe181     1.0  0.46640  0.58291  0.73629  1.0000
  H   H2170     1.0  0.45615  0.97764  0.78766  1.0000
  H   H2171     1.0  0.44125  0.96836  0.67586  1.0000
  Fe  Fe182     1.0  0.43309  0.56039  0.75913  1.0000
  S   S359      1.0  0.45241  0.54074  0.78002  1.0000
  S   S360      1.0  0.40128  0.55507  0.76313  1.0000
  Fe  Fe183     1.0  0.46364  0.56845  0.78148  1.0000
  H   H2172     1.0  0.38897  0.54690  0.97249  1.0000
  H   H2173     1.0  0.35020  0.49776  0.82225  1.0000
  C   C1261     1.0  0.46639  0.97407  0.79873  1.0000
  S   S361      1.0  0.44220  0.58893  0.76266  1.0000
  S   S362      1.0  0.45561  0.55586  0.73154  1.0000
  H   H2174     1.0  0.42722  0.56561  0.84790  1.0000
  H   H2175     1.0  0.31566  0.86802  0.94542  1.0000
  H   H2176     1.0  0.38794  0.49260  0.66414  1.0000
  S   S363      1.0  0.30188  0.80245  0.95716  1.0000
  H   H2177     1.0  0.24222  0.89907  0.82887  1.0000
  H   H2178     1.0  0.45538  0.77503  0.73800  1.0000
  H   H2179     1.0  0.43771  0.67027  0.71380  1.0000
  H   H2180     1.0  0.45112  0.93608  0.69749  1.0000
  S   S364      1.0  0.26443  0.96130  0.82995  1.0000
  Fe  Fe184     1.0  0.25783  0.94910  0.86282  1.0000
  S   S365      1.0  0.26384  0.91562  0.87306  1.0000
  H   H2181     1.0  0.28647  0.90122  0.92350  1.0000
  H   H2182     1.0  0.47683  0.74296  0.73165  1.0000
  H   H2183     1.0  0.37352  0.68384  0.89056  1.0000
  Fe  Fe185     1.0  0.41580  0.81283  0.94281  1.0000
  H   H2184     1.0  0.47766  0.88916  0.64927  1.0000
  H   H2185     1.0  0.39222  0.61755  0.89722  1.0000
  Fe  Fe186     1.0  0.45491  0.82343  0.91673  1.0000
  S   S366      1.0  0.47232  0.79309  0.92615  1.0000
  S   S367      1.0  0.46582  0.84993  0.89501  1.0000
  Fe  Fe187     1.0  0.44569  0.78111  0.92275  1.0000
  S   S368      1.0  0.45312  0.75363  0.90802  1.0000
  C   C1262     1.0  0.48044  0.63904  0.68222  1.0000
  S   S369      1.0  0.42934  0.81134  0.91060  1.0000
  S   S370      1.0  0.44023  0.82702  0.94815  1.0000
  Fe  Fe188     1.0  0.46993  0.61434  0.93177  1.0000
  S   S371      1.0  0.44382  0.61765  0.95664  1.0000
  C   C1263     1.0  0.46203  0.77261  0.72249  1.0000
  Fe  Fe189     1.0  0.44406  0.62669  0.89916  1.0000
  S   S372      1.0  0.41612  0.63129  0.92168  1.0000
  S   S373      1.0  0.43940  0.63445  0.86681  1.0000
  Fe  Fe190     1.0  0.43361  0.64615  0.93655  1.0000
  S   S374      1.0  0.41927  0.67448  0.94885  1.0000
  Fe  Fe191     1.0  0.42901  0.60251  0.93947  1.0000
  S   S375      1.0  0.41142  0.57720  0.95088  1.0000
  S   S376      1.0  0.46069  0.64380  0.91269  1.0000
  S   S377      1.0  0.45602  0.59684  0.91594  1.0000
  C   C1264     1.0  0.44537  0.73163  0.92231  1.0000
  C   C1265     1.0  0.42735  0.73236  0.93574  1.0000
  C   C1266     1.0  0.41986  0.71460  0.94450  1.0000
  C   C1267     1.0  0.43044  0.69606  0.94005  1.0000
  C   C1268     1.0  0.44903  0.69528  0.92756  1.0000
  C   C1269     1.0  0.45636  0.71304  0.91853  1.0000
  H   H2186     1.0  0.41871  0.74666  0.93860  1.0000
  H   H2187     1.0  0.40084  0.63176  0.68634  1.0000
  H   H2188     1.0  0.45755  0.68110  0.92441  1.0000
  H   H2189     1.0  0.47033  0.71241  0.90818  1.0000
  H   H2190     1.0  0.26069  0.49374  0.96121  1.0000
  H   H2191     1.0  0.31250  0.83532  0.97063  1.0000
  H   H2192     1.0  0.35316  0.98124  0.77703  1.0000
  C   C1270     1.0  0.34451  0.83198  0.96347  1.0000
  C   C1271     1.0  0.47797  0.92750  0.67716  1.0000
  C   C1272     1.0  0.24610  0.87900  0.92438  1.0000
  C   C1273     1.0  0.45479  0.95856  0.67102  1.0000
  C   C1274     1.0  0.46048  0.94037  0.68334  1.0000
  C   C1275     1.0  0.41833  0.93351  0.65439  1.0000
  H   H2193     1.0  0.33915  0.52351  0.70670  1.0000
  S   S378      1.0  0.43003  0.78151  0.95442  1.0000
  C   C1276     1.0  0.36222  0.82072  0.95504  1.0000
  H   H2194     1.0  0.35147  0.52393  0.67562  1.0000
  H   H2195     1.0  0.48642  0.89020  0.83827  1.0000
  C   C1277     1.0  0.48643  0.96288  0.75755  1.0000
  H   H2196     1.0  0.28531  0.86012  0.92079  1.0000
  H   H2197     1.0  0.32285  0.88912  0.92884  1.0000
  H   H2198     1.0  0.26060  0.87595  0.89423  1.0000
  H   H2199     1.0  0.34516  0.84514  0.96935  1.0000
  H   H2200     1.0  0.35760  0.50863  0.79634  1.0000
  H   H2201     1.0  0.36782  0.85550  0.90982  1.0000
  C   C1278     1.0  0.36131  0.80382  0.94732  1.0000
  C   C1279     1.0  0.34271  0.79831  0.94802  1.0000
  H   H2202     1.0  0.37492  0.79508  0.94076  1.0000
  H   H2203     1.0  0.34204  0.78527  0.94197  1.0000
  C   C1280     1.0  0.39843  0.53318  0.75537  1.0000
  C   C1281     1.0  0.37948  0.52770  0.75869  1.0000
  C   C1282     1.0  0.37708  0.50983  0.75336  1.0000
  C   C1283     1.0  0.48376  0.72273  0.70365  1.0000
  C   C1284     1.0  0.41243  0.50330  0.74061  1.0000
  C   C1285     1.0  0.41489  0.52087  0.74636  1.0000
  H   H2204     1.0  0.36668  0.53720  0.76560  1.0000
  H   H2205     1.0  0.43171  0.62736  0.66056  1.0000
  S   S379      1.0  0.48326  0.90350  0.69105  1.0000
  H   H2206     1.0  0.42956  0.52484  0.74383  1.0000
  C   C1286     1.0  0.46282  0.58686  0.82644  1.0000
  C   C1287     1.0  0.46771  0.58366  0.84568  1.0000
  C   C1288     1.0  0.46085  0.59829  0.85800  1.0000
  C   C1289     1.0  0.44892  0.61623  0.85123  1.0000
  C   C1290     1.0  0.44403  0.61950  0.83196  1.0000
  C   C1291     1.0  0.45093  0.60482  0.81957  1.0000
  H   H2207     1.0  0.35588  0.51085  0.65555  1.0000
  H   H2208     1.0  0.46485  0.59567  0.87272  1.0000
  H   H2209     1.0  0.43480  0.63335  0.82661  1.0000
  H   H2210     1.0  0.44709  0.60740  0.80475  1.0000
  H   H2211     1.0  0.42410  0.71781  0.89988  1.0000
  C   C1292     1.0  0.45915  0.67089  0.68646  1.0000
  H   H2212     1.0  0.33680  0.50769  0.73026  1.0000
  H   H2213     1.0  0.38298  0.50090  0.68810  1.0000
  H   H2214     1.0  0.44480  0.73242  0.70171  1.0000
  C   C1293     1.0  0.45547  0.64105  0.71199  1.0000
  H   H2215     1.0  0.32482  0.90531  0.89905  1.0000
  H   H2216     1.0  0.35378  0.88001  0.90447  1.0000
  C   C1294     1.0  0.35389  0.49491  0.80665  1.0000
  H   H2217     1.0  0.43057  0.76696  0.70287  1.0000
  H   H2218     1.0  0.34010  0.49198  0.80276  1.0000
  H   H2219     1.0  0.44808  0.95237  0.81573  1.0000
  C   C1295     1.0  0.48623  0.81841  0.97514  1.0000
  N   N92       1.0  0.40863  0.56850  0.89028  1.0000
  C   C1296     1.0  0.46417  0.95281  0.81007  1.0000
  H   H2220     1.0  0.29725  0.52020  0.68247  1.0000
  S   S380      1.0  0.38487  0.82867  0.95448  1.0000
  C   C1297     1.0  0.32601  0.82643  0.96425  1.0000
  C   C1298     1.0  0.41367  0.57670  0.85168  1.0000
  C   C1299     1.0  0.47344  0.70646  0.71846  1.0000
  C   C1300     1.0  0.35740  0.50893  0.67160  1.0000
  H   H2221     1.0  0.46904  0.71003  0.73382  1.0000
  H   H2222     1.0  0.48119  0.88618  0.87941  1.0000
  H   H2223     1.0  0.38819  0.71470  0.86460  1.0000
  H   H2224     1.0  0.25583  0.97237  0.92742  1.0000
  S   S381      1.0  0.24392  0.82327  0.96479  1.0000
  H   H2225     1.0  0.39256  0.74062  0.89985  1.0000
  C   C1301     1.0  0.48066  0.73226  0.96323  1.0000
  N   N93       1.0  0.41893  0.65899  0.65325  1.0000
  C   C1302     1.0  0.43948  0.76300  0.68859  1.0000
  H   H2226     1.0  0.44644  0.90272  0.66861  1.0000
  H   H2227     1.0  0.34023  0.85056  0.89656  1.0000
  H   H2228     1.0  0.42778  0.94513  0.65275  1.0000
  H   H2229     1.0  0.41814  0.59105  0.85208  1.0000
  H   H2230     1.0  0.45462  0.69538  0.87729  1.0000
  H   H2231     1.0  0.47905  0.74301  0.94909  1.0000
  C   C1303     1.0  0.40305  0.74023  0.88546  1.0000
  H   H2232     1.0  0.41196  0.58898  0.90882  1.0000
  C   C1304     1.0  0.40323  0.70523  0.86427  1.0000
  H   H2233     1.0  0.40135  0.55744  0.92214  1.0000
  H   H2234     1.0  0.45532  0.67058  0.87329  1.0000
  C   C1305     1.0  0.48487  0.75722  0.68705  1.0000
  C   C1306     1.0  0.47082  0.62964  0.70058  1.0000
  H   H2235     1.0  0.44759  0.64401  0.66065  1.0000
  H   H2236     1.0  0.47721  0.77301  0.68488  1.0000
  H   H2237     1.0  0.47694  0.82330  0.96370  1.0000
  H   H2238     1.0  0.38050  0.71313  0.90014  1.0000
  S   S382      1.0  0.45051  0.69642  0.67765  1.0000
  C   C1307     1.0  0.24376  0.92033  0.91085  1.0000
  C   C1308     1.0  0.29126  0.89058  0.93663  1.0000
  H   H2239     1.0  0.33674  0.89322  0.87777  1.0000
  C   C1309     1.0  0.47465  0.65956  0.67516  1.0000
  C   C1310     1.0  0.30361  0.83638  0.90684  1.0000
  H   H2240     1.0  0.38050  0.49436  0.83521  1.0000
  H   H2241     1.0  0.42160  0.67014  0.88634  1.0000
  Fe  Fe192     1.0  0.47572  0.53806  0.75280  1.0000
  H   H2242     1.0  0.31883  0.53128  0.67983  1.0000
  C   C1311     1.0  0.31085  0.88028  0.89524  1.0000
  H   H2243     1.0  0.47365  0.82363  0.64949  1.0000
  H   H2244     1.0  0.24293  0.93627  0.90574  1.0000
  H   H2245     1.0  0.38644  0.51838  0.66532  1.0000
  C   C1312     1.0  0.39246  0.69981  0.90133  1.0000
  H   H2246     1.0  0.39735  0.69876  0.91598  1.0000
  C   C1313     1.0  0.41046  0.66134  0.67474  1.0000
  H   H2247     1.0  0.39473  0.74340  0.87278  1.0000
  C   C1314     1.0  0.40910  0.64202  0.69034  1.0000
  N   N94       1.0  0.31534  0.86694  0.91450  1.0000
  C   C1315     1.0  0.31211  0.51785  0.68705  1.0000
  H   H2248     1.0  0.42808  0.54071  0.88445  1.0000
  C   C1316     1.0  0.25378  0.88632  0.90443  1.0000
  H   H2249     1.0  0.30919  0.51651  0.70360  1.0000
  H   H2250     1.0  0.40513  0.57931  0.83916  1.0000
  H   H2251     1.0  0.39528  0.67058  0.67584  1.0000
  H   H2252     1.0  0.42413  0.63393  0.69293  1.0000
  Fe  Fe193     1.0  0.23986  0.85205  0.97684  1.0000
  C   C1317     1.0  0.42611  0.68428  0.88734  1.0000
  H   H2253     1.0  0.28003  0.88068  0.94321  1.0000
  C   C1318     1.0  0.31231  0.87845  0.93152  1.0000
  H   H2254     1.0  0.39086  0.68960  0.84657  1.0000
  C   C1319     1.0  0.43871  0.55008  0.90759  1.0000
  C   C1320     1.0  0.42886  0.55521  0.88867  1.0000
  H   H2255     1.0  0.41684  0.68204  0.84568  1.0000
  H   H2256     1.0  0.45473  0.54380  0.90353  1.0000
  C   C1321     1.0  0.39357  0.63770  0.64917  1.0000
  C   C1322     1.0  0.46552  0.74994  0.72181  1.0000
  H   H2257     1.0  0.45159  0.74423  0.72964  1.0000
  C   C1323     1.0  0.46636  0.96370  0.65230  1.0000
  H   H2258     1.0  0.32381  0.49924  0.66442  1.0000
  H   H2259     1.0  0.44800  0.63399  0.72615  1.0000
  H   H2260     1.0  0.36249  0.50560  0.75622  1.0000
  C   C1324     1.0  0.41041  0.92844  0.67702  1.0000
  H   H2261     1.0  0.47156  0.94878  0.82344  1.0000
  C   C1325     1.0  0.38187  0.68190  0.90307  1.0000
  C   C1326     1.0  0.39494  0.60690  0.88655  1.0000
  N   N95       1.0  0.47191  0.74372  0.70144  1.0000
  C   C1327     1.0  0.39360  0.49760  0.74428  1.0000
  Fe  Fe194     1.0  0.27362  0.81704  0.97534  1.0000
  H   H2262     1.0  0.39865  0.55352  0.87046  1.0000
  C   C1328     1.0  0.39981  0.57277  0.97616  1.0000
  C   C1329     1.0  0.47801  0.96241  0.85885  1.0000
  H   H2263     1.0  0.42866  0.76092  0.67966  1.0000
  H   H2264     1.0  0.36549  0.57234  0.90014  1.0000
  H   H2265     1.0  0.40112  0.64611  0.70495  1.0000
  H   H2266     1.0  0.31401  0.87144  0.88288  1.0000
  C   C1330     1.0  0.37993  0.50475  0.67253  1.0000
  C   C1331     1.0  0.41104  0.58898  0.89296  1.0000
  H   H2267     1.0  0.25175  0.92187  0.82033  1.0000
  C   C1332     1.0  0.35333  0.86520  0.91406  1.0000
  C   C1333     1.0  0.34590  0.50928  0.71504  1.0000
  C   C1334     1.0  0.43615  0.64176  0.65253  1.0000
  N   N96       1.0  0.24873  0.98093  0.96830  1.0000
  H   H2268     1.0  0.45700  0.92162  0.65105  1.0000
  H   H2269     1.0  0.27182  0.95489  0.96522  1.0000
  H   H2270     1.0  0.41683  0.89222  0.66505  1.0000
  H   H2271     1.0  0.41822  0.49724  0.81956  1.0000
  H   H2272     1.0  0.47050  0.94985  0.86009  1.0000
  H   H2273     1.0  0.42546  0.59278  0.88423  1.0000
  C   C1335     1.0  0.45410  0.74324  0.69225  1.0000
  H   H2274     1.0  0.47621  0.77862  0.71871  1.0000
  H   H2275     1.0  0.45912  0.73788  0.67762  1.0000
  H   H2276     1.0  0.38028  0.60320  0.88637  1.0000
  H   H2277     1.0  0.41966  0.66967  0.68044  1.0000
  C   C1336     1.0  0.39527  0.55892  0.90813  1.0000
  C   C1337     1.0  0.30092  0.85225  0.92039  1.0000
  H   H2278     1.0  0.24693  0.86306  0.92955  1.0000
  H   H2279     1.0  0.40902  0.70054  0.66052  1.0000
  H   H2280     1.0  0.25320  0.89675  0.65449  1.0000
  H   H2281     1.0  0.39959  0.67300  0.86732  1.0000
  H   H2282     1.0  0.42948  0.68174  0.90280  1.0000
  H   H2283     1.0  0.42527  0.49394  0.73358  1.0000
  Fe  Fe195     1.0  0.45552  0.79561  0.95703  1.0000
  C   C1338     1.0  0.46770  0.98198  0.85492  1.0000
  H   H2284     1.0  0.43791  0.56340  0.91442  1.0000
  H   H2285     1.0  0.27080  0.48574  0.70514  1.0000
  H   H2286     1.0  0.48410  0.69209  0.71938  1.0000
  H   H2287     1.0  0.35257  0.86654  0.92993  1.0000
  S   S383      1.0  0.47191  0.56787  0.81174  1.0000
  H   H2288     1.0  0.44085  0.67851  0.64835  1.0000
  C   C1339     1.0  0.37376  0.57001  0.91275  1.0000
  H   H2289     1.0  0.40553  0.71530  0.95424  1.0000
  H   H2290     1.0  0.42250  0.92148  0.68577  1.0000
  C   C1340     1.0  0.40064  0.56886  0.87146  1.0000
  H   H2291     1.0  0.31313  0.90991  0.87799  1.0000
  H   H2292     1.0  0.45173  0.78171  0.71258  1.0000
  C   C1341     1.0  0.25292  0.90697  0.89773  1.0000
  H   H2293     1.0  0.31813  0.82616  0.90696  1.0000
  H   H2294     1.0  0.31574  0.48661  0.68888  1.0000
  H   H2295     1.0  0.48093  0.71717  0.95993  1.0000
  H   H2296     1.0  0.47696  0.63845  0.95610  1.0000
  C   C1342     1.0  0.32443  0.49843  0.68055  1.0000
  H   H2297     1.0  0.44680  0.77558  0.67981  1.0000
  H   H2298     1.0  0.40053  0.61549  0.87177  1.0000
  C   C1343     1.0  0.44598  0.68568  0.87277  1.0000
  N   N97       1.0  0.40976  0.70210  0.88439  1.0000
  H   H2299     1.0  0.43189  0.53850  0.91896  1.0000
  C   C1344     1.0  0.41788  0.72033  0.88586  1.0000
  H   H2300     1.0  0.40030  0.49407  0.78311  1.0000
  H   H2301     1.0  0.30157  0.84400  0.93587  1.0000
  H   H2302     1.0  0.47680  0.56977  0.85113  1.0000
  H   H2303     1.0  0.40315  0.94252  0.68268  1.0000
  H   H2304     1.0  0.44379  0.69119  0.85705  1.0000
  C   C1345     1.0  0.32230  0.89794  0.88727  1.0000
  H   H2305     1.0  0.37344  0.58436  0.91771  1.0000
  H   H2306     1.0  0.46723  0.73639  0.97426  1.0000
  H   H2307     1.0  0.36554  0.56077  0.92559  1.0000
  H   H2308     1.0  0.39214  0.66743  0.90419  1.0000
  C   C1346     1.0  0.33628  0.85515  0.91159  1.0000
  H   H2309     1.0  0.29468  0.88631  0.89604  1.0000
  H   H2310     1.0  0.39451  0.54341  0.90651  1.0000
  H   H2311     1.0  0.38778  0.50889  0.80155  1.0000
  H   H2312     1.0  0.30169  0.84320  0.89127  1.0000
  H   H2313     1.0  0.43048  0.72322  0.87348  1.0000
  C   C1347     1.0  0.25025  0.49267  0.97571  1.0000
  H   H2314     1.0  0.38555  0.57785  0.87143  1.0000
  H   H2315     1.0  0.33734  0.84090  0.92252  1.0000
  C   C1348     1.0  0.44971  0.66160  0.70496  1.0000
  C   C1349     1.0  0.40274  0.68620  0.85596  1.0000
  S   S384      1.0  0.27198  0.97112  0.87251  1.0000
  H   H2316     1.0  0.29192  0.82684  0.91282  1.0000
  H   H2317     1.0  0.36095  0.51061  0.71720  1.0000
  H   H2318     1.0  0.42145  0.51240  0.79537  1.0000
  C   C1350     1.0  0.32501  0.80956  0.95657  1.0000
  H   H2319     1.0  0.37073  0.68113  0.91710  1.0000
  H   H2320     1.0  0.41153  0.75267  0.88374  1.0000
  H   H2321     1.0  0.41352  0.71367  0.85267  1.0000
  C   C1351     1.0  0.39812  0.49468  0.79933  1.0000
  C   C1352     1.0  0.24505  0.96463  0.93893  1.0000
  H   H2322     1.0  0.29131  0.89957  0.94821  1.0000
  H   H2323     1.0  0.43974  0.56224  0.87653  1.0000
  C   C1353     1.0  0.34690  0.49025  0.70605  1.0000
  H   H2324     1.0  0.40428  0.62407  0.65333  1.0000
  N   N98       1.0  0.34578  0.49318  0.68404  1.0000
  C   C1354     1.0  0.44911  0.90892  0.65234  1.0000
  S   S385      1.0  0.47837  0.60364  0.70825  1.0000
  C   C1355     1.0  0.23789  0.91528  0.82359  1.0000
  C   C1356     1.0  0.41830  0.49747  0.80349  1.0000
  C   C1357     1.0  0.26087  0.96175  0.97710  1.0000
  H   H2325     1.0  0.46966  0.94137  0.80022  1.0000
  H   H2326     1.0  0.25228  0.94938  0.94486  1.0000
  H   H2327     1.0  0.24135  0.50771  0.97725  1.0000
  H   H2328     1.0  0.48209  0.66652  0.66093  1.0000
  H   H2329     1.0  0.39891  0.91869  0.68018  1.0000
  H   H2330     1.0  0.47004  0.96471  0.76164  1.0000
  H   H2331     1.0  0.43083  0.48640  0.79747  1.0000
  H   H2332     1.0  0.46036  0.70347  0.71343  1.0000
  H   H2333     1.0  0.38753  0.91666  0.64997  1.0000
  C   C1358     1.0  0.23731  0.89233  0.93762  1.0000
  H   H2334     1.0  0.24001  0.94044  0.98046  1.0000
  H   H2335     1.0  0.38969  0.89084  0.64865  1.0000
  C   C1359     1.0  0.41824  0.89905  0.64891  1.0000
  H   H2336     1.0  0.65173  0.04400  0.08621  1.0000
  H   H2337     1.0  0.66938  0.10020  0.07463  1.0000
  S   S386      1.0  0.52127  0.38618  0.22644  1.0000
  Fe  Fe196     1.0  0.64163  0.42999  0.19822  1.0000
  S   S387      1.0  0.64762  0.41372  0.22853  1.0000
  S   S388      1.0  0.65709  0.41491  0.17139  1.0000
  Fe  Fe197     1.0  0.61350  0.46392  0.21653  1.0000
  S   S389      1.0  0.61691  0.44986  0.24842  1.0000
  Fe  Fe198     1.0  0.64993  0.44341  0.23593  1.0000
  S   S390      1.0  0.67775  0.44203  0.25017  1.0000
  Fe  Fe199     1.0  0.61464  0.42125  0.23873  1.0000
  S   S391      1.0  0.59868  0.39591  0.25645  1.0000
  S   S392      1.0  0.64653  0.45920  0.20441  1.0000
  S   S393      1.0  0.60866  0.43572  0.20807  1.0000
  H   H2338     1.0  0.54038  0.41966  0.22287  1.0000
  Fe  Fe200     1.0  0.69763  0.10969  0.00725  1.0000
  S   S394      1.0  0.68750  0.08848  0.03534  1.0000
  S   S395      1.0  0.68506  0.14253  0.00045  1.0000
  H   H2339     1.0  0.60865  0.20129  0.98968  1.0000
  H   H2340     1.0  0.52315  0.33914  0.05743  1.0000
  C   C1360     1.0  0.48878  0.23221  0.01151  1.0000
  C   C1361     1.0  0.70470  0.42738  0.20323  1.0000
  C   C1362     1.0  0.50358  0.26385  0.03390  1.0000
  S   S396      1.0  0.54372  0.05667  0.16653  1.0000
  H   H2341     1.0  0.54689  0.12422  0.99206  1.0000
  Fe  Fe201     1.0  0.52805  0.04544  0.19744  1.0000
  S   S397      1.0  0.52239  0.06011  0.22490  1.0000
  Fe  Fe202     1.0  0.51684  0.05165  0.15581  1.0000
  S   S398      1.0  0.50514  0.07536  0.13098  1.0000
  S   S399      1.0  0.52982  0.01990  0.15221  1.0000
  H   H2342     1.0  0.62323  0.99453  0.12769  1.0000
  Fe  Fe203     1.0  0.55572  0.02417  0.16500  1.0000
  N   N99       1.0  0.73478  0.44064  0.02448  1.0000
  C   C1363     1.0  0.72999  0.04086  0.06975  1.0000
  H   H2343     1.0  0.60016  0.02183  0.18000  1.0000
  C   C1364     1.0  0.70875  0.31655  0.04696  1.0000
  Fe  Fe204     1.0  0.48996  0.33650  0.20563  1.0000
  H   H2344     1.0  0.59128  0.13504  0.01039  1.0000
  C   C1365     1.0  0.62569  0.99990  0.14048  1.0000
  Fe  Fe205     1.0  0.62992  0.39012  0.07401  1.0000
  S   S400      1.0  0.64850  0.36122  0.06595  1.0000
  S   S401      1.0  0.61499  0.39772  0.10466  1.0000
  Fe  Fe206     1.0  0.63359  0.41028  0.03057  1.0000
  S   S402      1.0  0.65325  0.38372  0.01890  1.0000
  S   S403      1.0  0.62225  0.43876  0.01121  1.0000
  Fe  Fe207     1.0  0.63157  0.36590  0.03997  1.0000
  S   S404      1.0  0.61962  0.34054  0.03140  1.0000
  Fe  Fe208     1.0  0.66844  0.38142  0.04544  1.0000
  S   S405      1.0  0.70216  0.37538  0.04243  1.0000
  S   S406      1.0  0.61105  0.39281  0.05028  1.0000
  S   S407      1.0  0.65076  0.40986  0.05479  1.0000
  H   H2345     1.0  0.56401  0.99041  0.12823  1.0000
  C   C1366     1.0  0.66043  0.43683  0.99032  1.0000
  H   H2346     1.0  0.56751  0.31350  0.08204  1.0000
  H   H2347     1.0  0.49024  0.09000  0.00974  1.0000
  H   H2348     1.0  0.63841  0.03464  0.11003  1.0000
  C   C1367     1.0  0.61240  0.33842  0.00856  1.0000
  C   C1368     1.0  0.50638  0.31680  0.01389  1.0000
  H   H2349     1.0  0.49889  0.21926  0.04018  1.0000
  H   H2350     1.0  0.51057  0.24843  0.03935  1.0000
  C   C1369     1.0  0.60674  0.32043  0.00701  1.0000
  C   C1370     1.0  0.57194  0.09181  0.00999  1.0000
  H   H2351     1.0  0.72170  0.47155  0.01595  1.0000
  H   H2352     1.0  0.60761  0.30800  0.01932  1.0000
  C   C1371     1.0  0.71342  0.38283  0.05988  1.0000
  C   C1372     1.0  0.71163  0.39872  0.08869  1.0000
  C   C1373     1.0  0.70209  0.39205  0.07573  1.0000
  H   H2353     1.0  0.70275  0.40606  0.10075  1.0000
  H   H2354     1.0  0.68599  0.39425  0.07792  1.0000
  H   H2355     1.0  0.57085  0.42377  0.23396  1.0000
  H   H2356     1.0  0.57819  0.36235  0.26279  1.0000
  C   C1374     1.0  0.64527  0.99839  0.14384  1.0000
  H   H2357     1.0  0.71377  0.42447  0.04603  1.0000
  C   C1375     1.0  0.53012  0.04525  0.24672  1.0000
  C   C1376     1.0  0.51844  0.04759  0.26542  1.0000
  C   C1377     1.0  0.52505  0.03708  0.28315  1.0000
  C   C1378     1.0  0.54361  0.02457  0.28230  1.0000
  C   C1379     1.0  0.55503  0.02182  0.26358  1.0000
  C   C1380     1.0  0.54825  0.03201  0.24581  1.0000
  H   H2358     1.0  0.50777  0.24019  0.18299  1.0000
  H   H2359     1.0  0.51596  0.03899  0.29744  1.0000
  C   C1381     1.0  0.49407  0.27809  0.21184  1.0000
  H   H2360     1.0  0.55738  0.03016  0.23144  1.0000
  H   H2361     1.0  0.54994  0.07302  0.02526  1.0000
  H   H2362     1.0  0.70242  0.30947  0.06225  1.0000
  H   H2363     1.0  0.52130  0.37564  0.02398  1.0000
  H   H2364     1.0  0.67959  0.04579  0.14469  1.0000
  H   H2365     1.0  0.68490  0.07053  0.13900  1.0000
  C   C1382     1.0  0.64702  0.04662  0.10193  1.0000
  C   C1383     1.0  0.70470  0.06982  0.04715  1.0000
  C   C1384     1.0  0.69831  0.05214  0.05791  1.0000
  C   C1385     1.0  0.71097  0.03764  0.06900  1.0000
  H   H2366     1.0  0.70615  0.29856  0.02409  1.0000
  H   H2367     1.0  0.68088  0.06193  0.99675  1.0000
  H   H2368     1.0  0.56252  0.10441  0.27435  1.0000
  H   H2369     1.0  0.71288  0.06184  0.00710  1.0000
  H   H2370     1.0  0.70591  0.02407  0.07713  1.0000
  C   C1386     1.0  0.72408  0.07267  0.04704  1.0000
  C   C1387     1.0  0.56187  0.31431  0.27950  1.0000
  H   H2371     1.0  0.69323  0.40886  0.18822  1.0000
  C   C1388     1.0  0.54227  0.08994  0.26530  1.0000
  N   N100      1.0  0.49079  0.25395  0.00483  1.0000
  C   C1389     1.0  0.68599  0.45548  0.26568  1.0000
  C   C1390     1.0  0.70558  0.44966  0.26988  1.0000
  C   C1391     1.0  0.71285  0.45960  0.28217  1.0000
  C   C1392     1.0  0.49131  0.00385  0.27087  1.0000
  H   H2372     1.0  0.53516  0.34914  0.00509  1.0000
  H   H2373     1.0  0.56229  0.30658  0.06047  1.0000
  H   H2374     1.0  0.71529  0.43746  0.26340  1.0000
  H   H2375     1.0  0.57895  0.33702  0.05254  1.0000
  C   C1393     1.0  0.66175  0.08915  0.08599  1.0000
  C   C1394     1.0  0.64611  0.41246  0.15115  1.0000
  C   C1395     1.0  0.65653  0.39930  0.13804  1.0000
  C   C1396     1.0  0.64770  0.39566  0.12277  1.0000
  C   C1397     1.0  0.62833  0.40521  0.12043  1.0000
  C   C1398     1.0  0.61840  0.41924  0.13278  1.0000
  C   C1399     1.0  0.62720  0.42285  0.14810  1.0000
  H   H2376     1.0  0.67129  0.39138  0.14007  1.0000
  H   H2377     1.0  0.65556  0.38484  0.11337  1.0000
  H   H2378     1.0  0.60361  0.42706  0.13076  1.0000
  H   H2379     1.0  0.61921  0.43341  0.15773  1.0000
  H   H2380     1.0  0.66453  0.42395  0.00137  1.0000
  C   C1400     1.0  0.49480  0.11254  0.98349  1.0000
  H   H2381     1.0  0.73644  0.42297  0.00141  1.0000
  H   H2382     1.0  0.72057  0.34351  0.01349  1.0000
  H   H2383     1.0  0.50524  0.28610  0.17212  1.0000
  C   C1401     1.0  0.55969  0.36634  0.03029  1.0000
  C   C1402     1.0  0.54199  0.38856  0.23634  1.0000
  C   C1403     1.0  0.55260  0.37241  0.24772  1.0000
  C   C1404     1.0  0.56984  0.37484  0.25415  1.0000
  C   C1405     1.0  0.57662  0.39334  0.24901  1.0000
  C   C1406     1.0  0.56583  0.40947  0.23785  1.0000
  C   C1407     1.0  0.54856  0.40711  0.23163  1.0000
  H   H2384     1.0  0.54770  0.35808  0.25114  1.0000
  C   C1408     1.0  0.51865  0.23814  0.22952  1.0000
  C   C1409     1.0  0.55744  0.10108  0.31200  1.0000
  H   H2385     1.0  0.56020  0.28516  0.30795  1.0000
  H   H2386     1.0  0.50715  0.47396  0.23328  1.0000
  H   H2387     1.0  0.53250  0.22981  0.23499  1.0000
  C   C1410     1.0  0.50826  0.27544  0.28593  1.0000
  H   H2388     1.0  0.50435  0.05774  0.26618  1.0000
  H   H2389     1.0  0.54549  0.28142  0.18575  1.0000
  H   H2390     1.0  0.68276  0.44209  0.17149  1.0000
  H   H2391     1.0  0.68478  0.43581  0.02740  1.0000
  H   H2392     1.0  0.68885  0.03699  0.99180  1.0000
  C   C1411     1.0  0.56259  0.33893  0.05829  1.0000
  H   H2393     1.0  0.65867  0.07848  0.07751  1.0000
  H   H2394     1.0  0.53248  0.48268  0.20699  1.0000
  C   C1412     1.0  0.70517  0.04959  0.12228  1.0000
  C   C1413     1.0  0.72747  0.39125  0.15364  1.0000
  H   H2395     1.0  0.52735  0.36110  0.06336  1.0000
  H   H2396     1.0  0.53571  0.10061  0.25306  1.0000
  S   S408      1.0  0.55330  0.01272  0.30423  1.0000
  H   H2397     1.0  0.50291  0.28520  0.21929  1.0000
  H   H2398     1.0  0.70569  0.03660  0.11501  1.0000
  C   C1414     1.0  0.50407  0.21885  0.02395  1.0000
  H   H2399     1.0  0.58410  0.07858  0.01052  1.0000
  H   H2400     1.0  0.58689  0.32707  0.29945  1.0000
  H   H2401     1.0  0.68363  0.30647  0.03994  1.0000
  H   H2402     1.0  0.58356  0.06527  0.30697  1.0000
  S   S409      1.0  0.50027  0.04302  0.18684  1.0000
  H   H2403     1.0  0.50519  0.09574  0.29013  1.0000
  C   C1415     1.0  0.60080  0.12028  0.00926  1.0000
  H   H2404     1.0  0.48852  0.30187  0.29404  1.0000
  C   C1416     1.0  0.59965  0.31839  0.98985  1.0000
  H   H2405     1.0  0.54375  0.31307  0.25712  1.0000
  C   C1417     1.0  0.68101  0.48137  0.28638  1.0000
  H   H2406     1.0  0.57164  0.15575  0.98743  1.0000
  C   C1418     1.0  0.51698  0.27616  0.18002  1.0000
  C   C1419     1.0  0.71277  0.05188  0.99636  1.0000
  Fe  Fe209     1.0  0.73171  0.99953  0.10774  1.0000
  S   S410      1.0  0.70082  0.99289  0.11064  1.0000
  H   H2407     1.0  0.53299  0.26224  0.21377  1.0000
  H   H2408     1.0  0.59838  0.10997  0.02372  1.0000
  Fe  Fe210     1.0  0.71586  0.14621  0.98327  1.0000
  C   C1420     1.0  0.52929  0.35308  0.05049  1.0000
  H   H2409     1.0  0.60838  0.47235  0.04572  1.0000
  H   H2410     1.0  0.52722  0.24704  0.28281  1.0000
  H   H2411     1.0  0.53404  0.30030  0.16794  1.0000
  H   H2412     1.0  0.64777  0.09784  0.09284  1.0000
  H   H2413     1.0  0.55284  0.37349  0.01690  1.0000
  C   C1421     1.0  0.70045  0.43488  0.01948  1.0000
  H   H2414     1.0  0.52256  0.00110  0.25561  1.0000
  C   C1422     1.0  0.64867  0.00549  0.16016  1.0000
  H   H2415     1.0  0.73367  0.45473  0.13690  1.0000
  H   H2416     1.0  0.55753  0.46565  0.22307  1.0000
  C   C1423     1.0  0.66560  0.04527  0.11161  1.0000
  H   H2417     1.0  0.50499  0.01591  0.24098  1.0000
  C   C1424     1.0  0.73405  0.46019  0.00995  1.0000
  C   C1425     1.0  0.67590  0.07884  0.10095  1.0000
  H   H2418     1.0  0.65773  0.99192  0.13367  1.0000
  H   H2419     1.0  0.70473  0.41978  0.01518  1.0000
  C   C1426     1.0  0.64951  0.07357  0.13041  1.0000
  H   H2420     1.0  0.64886  0.05325  0.15974  1.0000
  S   S411      1.0  0.49312  0.33196  0.17351  1.0000
  S   S412      1.0  0.51293  0.28487  0.26001  1.0000
  H   H2421     1.0  0.68647  0.04232  0.01683  1.0000
  Fe  Fe211     1.0  0.51560  0.01168  0.18418  1.0000
  C   C1427     1.0  0.63229  0.01371  0.17333  1.0000
  H   H2422     1.0  0.66524  0.03251  0.12436  1.0000
  H   H2423     1.0  0.54245  0.31896  0.07752  1.0000
  H   H2424     1.0  0.51331  0.99712  0.29869  1.0000
  C   C1428     1.0  0.55586  0.30354  0.26473  1.0000
  C   C1429     1.0  0.52450  0.25208  0.20969  1.0000
  C   C1430     1.0  0.70056  0.47548  0.29067  1.0000
  Fe  Fe212     1.0  0.69962  0.99069  0.14362  1.0000
  Fe  Fe213     1.0  0.50562  0.35943  0.23136  1.0000
  H   H2425     1.0  0.65261  0.08620  0.13641  1.0000
  C   C1431     1.0  0.68380  0.05772  0.13201  1.0000
  C   C1432     1.0  0.72217  0.01678  0.01306  1.0000
  N   N101      1.0  0.66828  0.06379  0.11841  1.0000
  H   H2426     1.0  0.63467  0.04743  0.14301  1.0000
  H   H2427     1.0  0.67879  0.04020  0.10071  1.0000
  S   S413      1.0  0.58517  0.01053  0.14785  1.0000
  C   C1433     1.0  0.61266  0.01527  0.16992  1.0000
  H   H2428     1.0  0.73182  0.28771  0.06924  1.0000
  H   H2429     1.0  0.50829  0.35449  0.03017  1.0000
  C   C1434     1.0  0.67375  0.47146  0.27404  1.0000
  H   H2430     1.0  0.63789  0.08063  0.12119  1.0000
  S   S414      1.0  0.48926  0.34451  0.26030  1.0000
  H   H2431     1.0  0.63656  0.06092  0.10170  1.0000
  H   H2432     1.0  0.68947  0.07175  0.09169  1.0000
  N   N102      1.0  0.55098  0.34810  0.04142  1.0000
  H   H2433     1.0  0.71893  0.43147  0.20458  1.0000
  C   C1435     1.0  0.69798  0.31100  0.03184  1.0000
  C   C1436     1.0  0.55388  0.33284  0.02783  1.0000
  H   H2434     1.0  0.53158  0.07969  0.27190  1.0000
  H   H2435     1.0  0.50509  0.48126  0.25688  1.0000
  H   H2436     1.0  0.55028  0.13283  0.29779  1.0000
  C   C1437     1.0  0.55028  0.34060  0.00608  1.0000
  C   C1438     1.0  0.51477  0.36487  0.03637  1.0000
  H   H2437     1.0  0.57080  0.09742  0.02422  1.0000
  H   H2438     1.0  0.56477  0.32930  0.27121  1.0000
  N   N103      1.0  0.57694  0.10770  0.99221  1.0000
  H   H2439     1.0  0.56941  0.32450  0.02648  1.0000
  H   H2440     1.0  0.54432  0.32127  0.03445  1.0000
  H   H2441     1.0  0.51507  0.27245  0.02464  1.0000
  H   H2442     1.0  0.57644  0.04656  0.29692  1.0000
  H   H2443     1.0  0.61653  0.12273  0.00669  1.0000
  H   H2444     1.0  0.50230  0.37407  0.04500  1.0000
  H   H2445     1.0  0.70973  0.01176  0.00867  1.0000
  H   H2446     1.0  0.71230  0.06130  0.11144  1.0000
  H   H2447     1.0  0.72804  0.45513  0.28483  1.0000
  H   H2448     1.0  0.56159  0.34969  0.99738  1.0000
  H   H2449     1.0  0.55199  0.32759  0.99838  1.0000
  H   H2450     1.0  0.69329  0.44106  0.20141  1.0000
  H   H2451     1.0  0.53500  0.28877  0.30539  1.0000
  H   H2452     1.0  0.55974  0.45793  0.24873  1.0000
  H   H2453     1.0  0.70551  0.45238  0.12871  1.0000
  H   H2454     1.0  0.49111  0.23909  0.20565  1.0000
  C   C1439     1.0  0.54897  0.46536  0.23850  1.0000
  H   H2455     1.0  0.48849  0.22488  0.99867  1.0000
  H   H2456     1.0  0.51898  0.31520  0.02128  1.0000
  H   H2457     1.0  0.68050  0.09099  0.10646  1.0000
  H   H2458     1.0  0.68372  0.44048  0.13699  1.0000
  C   C1440     1.0  0.51102  0.25675  0.99278  1.0000
  H   H2459     1.0  0.57327  0.09896  0.30444  1.0000
  H   H2460     1.0  0.65869  0.47623  0.27097  1.0000
  C   C1441     1.0  0.50748  0.00202  0.25217  1.0000
  H   H2461     1.0  0.62560  0.06834  0.15555  1.0000
  C   C1442     1.0  0.69113  0.04773  0.00063  1.0000
  H   H2462     1.0  0.71710  0.32401  0.08152  1.0000
  H   H2463     1.0  0.71887  0.40156  0.19031  1.0000
  H   H2464     1.0  0.70381  0.33295  0.04655  1.0000
  H   H2465     1.0  0.59524  0.30450  0.98906  1.0000
  C   C1443     1.0  0.70737  0.41478  0.18651  1.0000
  H   H2466     1.0  0.55983  0.34892  0.06964  1.0000
  H   H2467     1.0  0.53726  0.45595  0.24099  1.0000
  H   H2468     1.0  0.51924  0.22255  0.01946  1.0000
  C   C1444     1.0  0.51781  0.25617  0.29320  1.0000
  H   H2469     1.0  0.70157  0.45701  0.16632  1.0000
  C   C1445     1.0  0.63935  0.05964  0.14813  1.0000
  H   H2470     1.0  0.69373  0.32438  0.02064  1.0000
  N   N104      1.0  0.54473  0.09229  0.30184  1.0000
  H   H2471     1.0  0.54257  0.38836  0.04920  1.0000
  H   H2472     1.0  0.55134  0.28898  0.27213  1.0000
  H   H2473     1.0  0.57578  0.36191  0.02423  1.0000
  C   C1446     1.0  0.54689  0.10184  0.28001  1.0000
  C   C1447     1.0  0.61133  0.35427  0.99238  1.0000
  H   H2474     1.0  0.71390  0.42095  0.30721  1.0000
  Fe  Fe214     1.0  0.49924  0.31623  0.24693  1.0000
  H   H2475     1.0  0.68245  0.46578  0.13975  1.0000
  S   S415      1.0  0.72969  0.99966  0.14059  1.0000
  H   H2476     1.0  0.55942  0.12976  0.00971  1.0000
  H   H2477     1.0  0.61915  0.48324  0.01040  1.0000
  H   H2478     1.0  0.56936  0.01205  0.26279  1.0000
  H   H2479     1.0  0.49432  0.00106  0.15731  1.0000
  C   C1448     1.0  0.49320  0.31618  0.98420  1.0000
  C   C1449     1.0  0.54579  0.29558  0.31058  1.0000
  H   H2480     1.0  0.53534  0.24282  0.19956  1.0000
  S   S416      1.0  0.50096  0.98472  0.19778  1.0000
  C   C1450     1.0  0.55821  0.31834  0.07004  1.0000
  H   H2481     1.0  0.49286  0.32300  0.13500  1.0000
  H   H2482     1.0  0.73049  0.45834  0.99550  1.0000
  H   H2483     1.0  0.70063  0.44658  0.00590  1.0000
  H   H2484     1.0  0.51042  0.24678  0.24140  1.0000
  H   H2485     1.0  0.52441  0.31309  0.98529  1.0000
  H   H2486     1.0  0.51112  0.07182  0.30645  1.0000
  H   H2487     1.0  0.70554  0.45067  0.04099  1.0000
  C   C1451     1.0  0.71370  0.43770  0.03378  1.0000
  C   C1452     1.0  0.73324  0.43081  0.16330  1.0000
  C   C1453     1.0  0.55166  0.06993  0.30495  1.0000
  N   N105      1.0  0.59204  0.37972  0.18056  1.0000
  C   C1454     1.0  0.60034  0.39116  0.19251  1.0000
  C   C1455     1.0  0.57859  0.39483  0.16807  1.0000
  C   C1456     1.0  0.60948  0.36984  0.16704  1.0000
  C   C1457     1.0  0.58121  0.36436  0.19497  1.0000
  C   C1458     1.0  0.61654  0.37902  0.20459  1.0000
  C   C1459     1.0  0.56106  0.40757  0.17980  1.0000
  C   C1460     1.0  0.60475  0.35929  0.15143  1.0000
  C   C1461     1.0  0.56525  0.35650  0.18736  1.0000
  H   H2488     1.0  0.60678  0.40390  0.18260  1.0000
  H   H2489     1.0  0.58836  0.39799  0.20356  1.0000
  H   H2490     1.0  0.57203  0.38788  0.15846  1.0000
  H   H2491     1.0  0.58732  0.40540  0.15735  1.0000
  H   H2492     1.0  0.61897  0.38101  0.15867  1.0000
  H   H2493     1.0  0.61931  0.35822  0.17592  1.0000
  H   H2494     1.0  0.59202  0.35118  0.20050  1.0000
  H   H2495     1.0  0.57326  0.37074  0.20851  1.0000
  H   H2496     1.0  0.61958  0.38852  0.21441  1.0000
  H   H2497     1.0  0.61175  0.36552  0.21450  1.0000
  H   H2498     1.0  0.63089  0.37499  0.19466  1.0000
  H   H2499     1.0  0.55222  0.39823  0.19181  1.0000
  H   H2500     1.0  0.56622  0.41871  0.18618  1.0000
  H   H2501     1.0  0.55087  0.41619  0.16941  1.0000
  H   H2502     1.0  0.59810  0.34580  0.15860  1.0000
  H   H2503     1.0  0.61900  0.35403  0.14188  1.0000
  H   H2504     1.0  0.59546  0.36944  0.14103  1.0000
  H   H2505     1.0  0.56582  0.34031  0.19355  1.0000
  H   H2506     1.0  0.56683  0.35796  0.17097  1.0000
  H   H2507     1.0  0.55003  0.36379  0.19337  1.0000
  N   N106      1.0  0.72937  0.03393  0.99790  1.0000
  C   C1462     1.0  0.69738  0.44405  0.16183  1.0000
  H   H2508     1.0  0.71456  0.04432  0.13417  1.0000
  C   C1463     1.0  0.55817  0.38306  0.04252  1.0000
  N   N107      1.0  0.73126  0.31166  0.04356  1.0000
  H   H2509     1.0  0.51167  0.27302  0.98798  1.0000
  S   S417      1.0  0.51773  0.33085  0.21930  1.0000
  N   N108      1.0  0.50776  0.26395  0.19909  1.0000
  H   H2510     1.0  0.56381  0.39609  0.03236  1.0000
  H   H2511     1.0  0.51025  0.22674  0.22792  1.0000
  H   H2512     1.0  0.52570  0.26627  0.16928  1.0000
  C   C1464     1.0  0.73253  0.39620  0.08593  1.0000
  C   C1465     1.0  0.73351  0.27359  0.04429  1.0000
  H   H2513     1.0  0.54310  0.06213  0.29808  1.0000
  H   H2514     1.0  0.53909  0.09641  0.01236  1.0000
  H   H2515     1.0  0.69762  0.40740  0.15330  1.0000
  C   C1466     1.0  0.56172  0.12644  0.99423  1.0000
  N   N109      1.0  0.71288  0.42539  0.16533  1.0000
  H   H2516     1.0  0.68341  0.04975  0.05786  1.0000
  H   H2517     1.0  0.68305  0.41634  0.30780  1.0000
  H   H2518     1.0  0.49324  0.01731  0.27624  1.0000
  C   C1467     1.0  0.60933  0.00849  0.15337  1.0000
  H   H2519     1.0  0.55333  0.34507  0.30125  1.0000
  H   H2520     1.0  0.72375  0.38152  0.16822  1.0000
  H   H2521     1.0  0.52312  0.25101  0.00174  1.0000
  C   C1468     1.0  0.59776  0.11127  0.99168  1.0000
  S   S418      1.0  0.54232  0.01342  0.19684  1.0000
  C   C1469     1.0  0.55218  0.08423  0.01138  1.0000
  H   H2522     1.0  0.53735  0.11688  0.27817  1.0000
  H   H2523     1.0  0.55228  0.07664  0.99870  1.0000
  C   C1470     1.0  0.50945  0.31527  0.99358  1.0000
  C   C1471     1.0  0.49610  0.28709  0.29948  1.0000
  S   S419      1.0  0.72842  0.17510  0.98187  1.0000
  C   C1472     1.0  0.53091  0.29000  0.18235  1.0000
  H   H2524     1.0  0.73264  0.47093  0.04684  1.0000
  H   H2525     1.0  0.56882  0.30044  0.25277  1.0000
  H   H2526     1.0  0.63482  0.01918  0.18603  1.0000
  S   S420      1.0  0.72879  0.11361  0.99222  1.0000
  H   H2527     1.0  0.72295  0.45120  0.06563  1.0000
  H   H2528     1.0  0.55617  0.08153  0.25777  1.0000
  C   C1473     1.0  0.69227  0.45091  0.14049  1.0000
  H   H2529     1.0  0.51798  0.11314  0.31077  1.0000
  H   H2530     1.0  0.71728  0.27331  0.04723  1.0000
  H   H2531     1.0  0.73287  0.44178  0.17314  1.0000
  C   C1474     1.0  0.71277  0.41121  0.15140  1.0000
  H   H2532     1.0  0.57661  0.30580  0.28272  1.0000
  H   H2533     1.0  0.52399  0.29952  0.19382  1.0000
  H   H2534     1.0  0.71600  0.02179  0.02776  1.0000
  C   C1475     1.0  0.64071  0.44687  0.99183  1.0000
  H   H2535     1.0  0.50574  0.20315  0.02158  1.0000
  H   H2536     1.0  0.57861  0.07036  0.28150  1.0000
  H   H2537     1.0  0.71610  0.41824  0.13548  1.0000
  S   S421      1.0  0.67317  0.00559  0.16366  1.0000
  H   H2538     1.0  0.69947  0.41824  0.21781  1.0000
  H   H2539     1.0  0.60861  0.09704  0.99157  1.0000
  H   H2540     1.0  0.61562  0.36821  0.99324  1.0000
  H   H2541     1.0  0.72913  0.08628  0.03879  1.0000
  H   H2542     1.0  0.56772  0.37839  0.05427  1.0000
  C   C1476     1.0  0.57387  0.06293  0.29701  1.0000
  C   C1477     1.0  0.73338  0.32319  0.07641  1.0000
  C   C1478     1.0  0.50769  0.08826  0.30540  1.0000
  C   C1479     1.0  0.73430  0.37989  0.05746  1.0000
  C   C1480     1.0  0.48808  0.98745  0.16222  1.0000
  H   H2543     1.0  0.72636  0.38283  0.14194  1.0000
  H   H2544     1.0  0.49752  0.27117  0.04728  1.0000
  C   C1481     1.0  0.49710  0.24985  0.19286  1.0000
  H   H2545     1.0  0.49190  0.09593  0.09450  1.0000
  H   H2546     1.0  0.73363  0.34126  0.04759  1.0000
  C   C1482     1.0  0.73666  0.05824  0.05842  1.0000
  H   H2547     1.0  0.52146  0.31734  0.28496  1.0000
  H   H2548     1.0  0.63832  0.48198  0.02407  1.0000
  C   C1483     1.0  0.55150  0.12370  0.31276  1.0000
  C   C1484     1.0  0.52740  0.32671  0.29288  1.0000
  C   C1485     1.0  0.51566  0.24878  0.31392  1.0000
  H   H2549     1.0  0.52923  0.34085  0.28211  1.0000
  N   N110      1.0  0.54723  0.31630  0.29867  1.0000
  H   H2550     1.0  0.50686  0.98955  0.24462  1.0000
  C   C1486     1.0  0.52347  0.09675  0.31233  1.0000
  H   H2551     1.0  0.73016  0.98594  0.02731  1.0000
  N   N111      1.0  0.49132  0.98603  0.28760  1.0000
  H   H2552     1.0  0.49757  0.34146  0.30328  1.0000
  C   C1487     1.0  0.55452  0.32939  0.30964  1.0000
  C   C1488     1.0  0.51042  0.33223  0.30996  1.0000
  C   C1489     1.0  0.73636  0.45565  0.05530  1.0000
  C   C1490     1.0  0.48710  0.31940  0.02488  1.0000
  H   H2553     1.0  0.73581  0.30535  0.01312  1.0000
  C   C1491     1.0  0.73648  0.33659  0.01045  1.0000
  C   C1492     1.0  0.57628  0.32272  0.31326  1.0000
  Fe  Fe215     1.0  0.63931  0.20733  0.51678  1.0000
  S   S422      1.0  0.61070  0.22766  0.51136  1.0000
  S   S423      1.0  0.66711  0.21732  0.52148  1.0000
  Fe  Fe216     1.0  0.62189  0.16951  0.51779  1.0000
  S   S424      1.0  0.59181  0.18723  0.51293  1.0000
  S   S425      1.0  0.62889  0.13684  0.51395  1.0000
  Fe  Fe217     1.0  0.60894  0.20804  0.48992  1.0000
  S   S426      1.0  0.60232  0.21977  0.45855  1.0000
  Fe  Fe218     1.0  0.59592  0.20524  0.53497  1.0000
  S   S427      1.0  0.57101  0.21945  0.55699  1.0000
  S   S428      1.0  0.63887  0.18938  0.49330  1.0000
  S   S429      1.0  0.62472  0.18584  0.54189  1.0000
  Fe  Fe219     1.0  0.50814  0.22133  0.37033  1.0000
  H   H2554     1.0  0.67684  0.40646  0.35431  1.0000
  Fe  Fe220     1.0  0.51700  0.19891  0.41170  1.0000
  S   S430      1.0  0.50700  0.17116  0.40813  1.0000
  S   S431      1.0  0.52252  0.20007  0.44254  1.0000
  Fe  Fe221     1.0  0.52379  0.17649  0.37681  1.0000
  S   S432      1.0  0.54353  0.14991  0.36448  1.0000
  H   H2555     1.0  0.72503  0.45048  0.44696  1.0000
  S   S433      1.0  0.73434  0.34166  0.54694  1.0000
  S   S434      1.0  0.53595  0.20300  0.38116  1.0000
  H   H2556     1.0  0.65743  0.31570  0.43176  1.0000
  C   C1493     1.0  0.61512  0.26337  0.57808  1.0000
  S   S435      1.0  0.52248  0.16745  0.62944  1.0000
  H   H2557     1.0  0.57877  0.33046  0.32490  1.0000
  H   H2558     1.0  0.61945  0.01510  0.39832  1.0000
  H   H2559     1.0  0.50350  0.04363  0.59967  1.0000
  S   S436      1.0  0.69162  0.30304  0.48538  1.0000
  C   C1494     1.0  0.60653  0.01738  0.46367  1.0000
  S   S437      1.0  0.71170  0.99391  0.54648  1.0000
  H   H2560     1.0  0.57693  0.99689  0.46936  1.0000
  C   C1495     1.0  0.73419  0.42130  0.40123  1.0000
  Fe  Fe222     1.0  0.63885  0.00269  0.54524  1.0000
  H   H2561     1.0  0.59512  0.11823  0.45788  1.0000
  H   H2562     1.0  0.73213  0.47290  0.54961  1.0000
  Fe  Fe223     1.0  0.64254  0.02979  0.57305  1.0000
  S   S438      1.0  0.66389  0.00618  0.58935  1.0000
  S   S439      1.0  0.63376  0.06039  0.58234  1.0000
  C   C1496     1.0  0.73272  0.05627  0.53780  1.0000
  H   H2563     1.0  0.72160  0.08418  0.51983  1.0000
  H   H2564     1.0  0.67334  0.39983  0.40430  1.0000
  H   H2565     1.0  0.65685  0.38652  0.43748  1.0000
  S   S440      1.0  0.65880  0.02519  0.54239  1.0000
  S   S441      1.0  0.62079  0.00914  0.57477  1.0000
  H   H2566     1.0  0.52259  0.09109  0.32866  1.0000
  H   H2567     1.0  0.66785  0.34042  0.47213  1.0000
  Fe  Fe224     1.0  0.73306  0.48316  0.32666  1.0000
  S   S442      1.0  0.50619  0.02068  0.38768  1.0000
  H   H2568     1.0  0.62962  0.27430  0.59820  1.0000
  C   C1497     1.0  0.62048  0.11960  0.47040  1.0000
  C   C1498     1.0  0.57800  0.14246  0.48334  1.0000
  H   H2569     1.0  0.66775  0.43785  0.35894  1.0000
  H   H2570     1.0  0.51825  0.07297  0.59682  1.0000
  S   S443      1.0  0.49974  0.07715  0.36731  1.0000
  S   S444      1.0  0.54688  0.03084  0.35674  1.0000
  H   H2571     1.0  0.50278  0.04052  0.64526  1.0000
  H   H2572     1.0  0.70931  0.01407  0.58040  1.0000
  H   H2573     1.0  0.72550  0.38971  0.37855  1.0000
  C   C1499     1.0  0.68317  0.09344  0.54350  1.0000
  H   H2574     1.0  0.56622  0.17216  0.49214  1.0000
  C   C1500     1.0  0.53321  0.09386  0.36567  1.0000
  S   S445      1.0  0.68755  0.44529  0.64502  1.0000
  C   C1501     1.0  0.51239  0.09654  0.36825  1.0000
  H   H2575     1.0  0.67094  0.34567  0.41546  1.0000
  C   C1502     1.0  0.50850  0.06850  0.61124  1.0000
  H   H2576     1.0  0.73508  0.38879  0.35281  1.0000
  H   H2577     1.0  0.69261  0.08159  0.50740  1.0000
  Fe  Fe225     1.0  0.51482  0.04568  0.36341  1.0000
  H   H2578     1.0  0.62848  0.10561  0.46497  1.0000
  H   H2579     1.0  0.62375  0.20305  0.58596  1.0000
  C   C1503     1.0  0.62066  0.26255  0.59874  1.0000
  C   C1504     1.0  0.53145  0.12923  0.36691  1.0000
  C   C1505     1.0  0.51066  0.13170  0.37004  1.0000
  C   C1506     1.0  0.50119  0.11545  0.37056  1.0000
  H   H2580     1.0  0.59380  0.17671  0.47090  1.0000
  H   H2581     1.0  0.50183  0.14624  0.37172  1.0000
  H   H2582     1.0  0.59596  0.03107  0.40169  1.0000
  H   H2583     1.0  0.57308  0.13345  0.43630  1.0000
  C   C1507     1.0  0.67428  0.24082  0.51048  1.0000
  C   C1508     1.0  0.66260  0.25529  0.49848  1.0000
  C   C1509     1.0  0.66818  0.27422  0.49093  1.0000
  C   C1510     1.0  0.68547  0.27890  0.49527  1.0000
  C   C1511     1.0  0.69712  0.26445  0.50732  1.0000
  C   C1512     1.0  0.69153  0.24551  0.51487  1.0000
  H   H2584     1.0  0.64927  0.25190  0.49502  1.0000
  H   H2585     1.0  0.65907  0.28526  0.48162  1.0000
  H   H2586     1.0  0.70060  0.23444  0.52423  1.0000
  C   C1513     1.0  0.57937  0.21630  0.45384  1.0000
  C   C1514     1.0  0.56385  0.21234  0.46962  1.0000
  C   C1515     1.0  0.54618  0.20816  0.46578  1.0000
  C   C1516     1.0  0.54394  0.20780  0.44617  1.0000
  C   C1517     1.0  0.55924  0.21226  0.43028  1.0000
  C   C1518     1.0  0.57690  0.21659  0.43413  1.0000
  H   H2587     1.0  0.56549  0.21243  0.48481  1.0000
  H   H2588     1.0  0.53435  0.20480  0.47811  1.0000
  H   H2589     1.0  0.55761  0.21199  0.41512  1.0000
  H   H2590     1.0  0.58886  0.21971  0.42186  1.0000
  C   C1519     1.0  0.55702  0.20430  0.57601  1.0000
  C   C1520     1.0  0.56481  0.18437  0.58283  1.0000
  C   C1521     1.0  0.55390  0.17311  0.59903  1.0000
  C   C1522     1.0  0.53497  0.18151  0.60816  1.0000
  C   C1523     1.0  0.52695  0.20129  0.60099  1.0000
  C   C1524     1.0  0.53809  0.21272  0.58515  1.0000
  H   H2591     1.0  0.57941  0.17778  0.57593  1.0000
  H   H2592     1.0  0.56019  0.15782  0.60454  1.0000
  H   H2593     1.0  0.51240  0.20792  0.60794  1.0000
  H   H2594     1.0  0.53201  0.22814  0.57993  1.0000
  C   C1525     1.0  0.62865  0.11607  0.53354  1.0000
  C   C1526     1.0  0.62624  0.11810  0.55363  1.0000
  C   C1527     1.0  0.62723  0.10093  0.56862  1.0000
  C   C1528     1.0  0.63056  0.08171  0.56358  1.0000
  C   C1529     1.0  0.63248  0.07978  0.54353  1.0000
  C   C1530     1.0  0.63168  0.09688  0.52858  1.0000
  H   H2595     1.0  0.62389  0.13284  0.55760  1.0000
  H   H2596     1.0  0.62570  0.10252  0.58412  1.0000
  H   H2597     1.0  0.63476  0.06511  0.53950  1.0000
  H   H2598     1.0  0.63356  0.09518  0.51308  1.0000
  H   H2599     1.0  0.71045  0.26785  0.51077  1.0000
  H   H2600     1.0  0.55760  0.09314  0.32771  1.0000
  Fe  Fe226     1.0  0.53742  0.00460  0.37939  1.0000
  C   C1531     1.0  0.51678  0.23572  0.64587  1.0000
  H   H2601     1.0  0.68356  0.45319  0.36413  1.0000
  H   H2602     1.0  0.65741  0.32019  0.45621  1.0000
  S   S446      1.0  0.72127  0.38625  0.45477  1.0000
  Fe  Fe227     1.0  0.67864  0.00015  0.55872  1.0000
  H   H2603     1.0  0.53055  0.23740  0.63482  1.0000
  H   H2604     1.0  0.72188  0.48422  0.49571  1.0000
  Fe  Fe228     1.0  0.71920  0.44471  0.62798  1.0000
  S   S447      1.0  0.70999  0.34607  0.49847  1.0000
  H   H2605     1.0  0.67513  0.11070  0.51489  1.0000
  S   S448      1.0  0.62379  0.99971  0.52022  1.0000
  H   H2606     1.0  0.68229  0.07319  0.58251  1.0000
  H   H2607     1.0  0.64841  0.35189  0.43168  1.0000
  H   H2608     1.0  0.54967  0.16342  0.48004  1.0000
  S   S449      1.0  0.72486  0.46207  0.59665  1.0000
  H   H2609     1.0  0.57506  0.20112  0.63267  1.0000
  H   H2610     1.0  0.73499  0.35751  0.58201  1.0000
  H   H2611     1.0  0.52615  0.30362  0.33853  1.0000
  H   H2612     1.0  0.60023  0.25879  0.58035  1.0000
  H   H2613     1.0  0.66726  0.09189  0.54849  1.0000
  H   H2614     1.0  0.66798  0.46230  0.34510  1.0000
  C   C1532     1.0  0.54272  0.11023  0.36485  1.0000
  H   H2615     1.0  0.69762  0.33250  0.45121  1.0000
  H   H2616     1.0  0.63108  0.17458  0.45427  1.0000
  H   H2617     1.0  0.73535  0.44062  0.31804  1.0000
  S   S450      1.0  0.50495  0.03385  0.33982  1.0000
  H   H2618     1.0  0.61393  0.11537  0.48634  1.0000
  H   H2619     1.0  0.72757  0.04247  0.53690  1.0000
  C   C1533     1.0  0.68973  0.06957  0.52043  1.0000
  H   H2620     1.0  0.70877  0.06371  0.57626  1.0000
  H   H2621     1.0  0.56969  0.98643  0.45047  1.0000
  H   H2622     1.0  0.67339  0.06938  0.52301  1.0000
  H   H2623     1.0  0.61381  0.03179  0.41671  1.0000
  C   C1534     1.0  0.70980  0.34690  0.42184  1.0000
  H   H2624     1.0  0.61208  0.18277  0.43863  1.0000
  H   H2625     1.0  0.71121  0.38131  0.36416  1.0000
  H   H2626     1.0  0.69143  0.04715  0.58794  1.0000
  C   C1535     1.0  0.66441  0.34505  0.43151  1.0000
  H   H2627     1.0  0.62669  0.15799  0.44003  1.0000
  C   C1536     1.0  0.63557  0.23027  0.57195  1.0000
  H   H2628     1.0  0.69808  0.04272  0.55411  1.0000
  H   H2629     1.0  0.61003  0.21799  0.56764  1.0000
  H   H2630     1.0  0.69923  0.11366  0.51938  1.0000
  H   H2631     1.0  0.63180  0.12918  0.46928  1.0000
  C   C1537     1.0  0.61793  0.21878  0.57976  1.0000
  H   H2632     1.0  0.67409  0.05668  0.55804  1.0000
  C   C1538     1.0  0.68380  0.11164  0.52641  1.0000
  H   H2633     1.0  0.55276  0.15280  0.50517  1.0000
  C   C1539     1.0  0.71733  0.07582  0.53516  1.0000
  C   C1540     1.0  0.49423  0.27983  0.32019  1.0000
  C   C1541     1.0  0.72957  0.47727  0.50866  1.0000
  Fe  Fe229     1.0  0.71826  0.31580  0.48915  1.0000
  N   N112      1.0  0.63023  0.25221  0.56355  1.0000
  C   C1542     1.0  0.62105  0.25346  0.54522  1.0000
  C   C1543     1.0  0.64873  0.26184  0.55697  1.0000
  C   C1544     1.0  0.61672  0.27449  0.53255  1.0000
  C   C1545     1.0  0.66542  0.25480  0.56979  1.0000
  H   H2634     1.0  0.63098  0.24375  0.53498  1.0000
  H   H2635     1.0  0.60661  0.24782  0.54925  1.0000
  H   H2636     1.0  0.64596  0.22236  0.56042  1.0000
  H   H2637     1.0  0.65613  0.25918  0.54170  1.0000
  H   H2638     1.0  0.64482  0.27842  0.55569  1.0000
  H   H2639     1.0  0.61211  0.27957  0.57170  1.0000
  H   H2640     1.0  0.60528  0.28482  0.54089  1.0000
  H   H2641     1.0  0.63037  0.28123  0.52658  1.0000
  H   H2642     1.0  0.61062  0.27306  0.51933  1.0000
  H   H2643     1.0  0.67307  0.23937  0.56799  1.0000
  H   H2644     1.0  0.66007  0.25557  0.58582  1.0000
  H   H2645     1.0  0.67692  0.26460  0.56429  1.0000
  H   H2646     1.0  0.55407  0.14199  0.45633  1.0000
  H   H2647     1.0  0.58944  0.16280  0.43317  1.0000
  H   H2648     1.0  0.61116  0.15707  0.48015  1.0000
  H   H2649     1.0  0.50028  0.08265  0.61614  1.0000
  N   N113      1.0  0.69559  0.07380  0.53880  1.0000
  C   C1546     1.0  0.70048  0.05005  0.51291  1.0000
  H   H2650     1.0  0.54194  0.07928  0.36403  1.0000
  C   C1547     1.0  0.50415  0.26076  0.32749  1.0000
  N   N114      1.0  0.59133  0.14843  0.46379  1.0000
  H   H2651     1.0  0.54509  0.33061  0.32448  1.0000
  H   H2652     1.0  0.53745  0.12706  0.32336  1.0000
  C   C1548     1.0  0.62114  0.00373  0.45024  1.0000
  H   H2653     1.0  0.58510  0.01343  0.43414  1.0000
  S   S451      1.0  0.50314  0.25341  0.35361  1.0000
  H   H2654     1.0  0.51862  0.06023  0.62175  1.0000
  C   C1549     1.0  0.60780  0.02168  0.40979  1.0000
  H   H2655     1.0  0.57120  0.12935  0.48285  1.0000
  C   C1550     1.0  0.67763  0.44895  0.35210  1.0000
  C   C1551     1.0  0.67403  0.41476  0.32305  1.0000
  H   H2656     1.0  0.55216  0.29619  0.34048  1.0000
  H   H2657     1.0  0.63186  0.01273  0.44002  1.0000
  S   S452      1.0  0.55174  0.98759  0.40601  1.0000
  C   C1552     1.0  0.72473  0.01098  0.57341  1.0000
  H   H2658     1.0  0.71609  0.36096  0.41644  1.0000
  Fe  Fe230     1.0  0.73256  0.35593  0.47204  1.0000
  H   H2659     1.0  0.62864  0.24780  0.60487  1.0000
  H   H2660     1.0  0.59315  0.02520  0.45727  1.0000
  H   H2661     1.0  0.71990  0.08502  0.54559  1.0000
  H   H2662     1.0  0.69354  0.04817  0.50043  1.0000
  C   C1553     1.0  0.49422  0.05579  0.60754  1.0000
  H   H2663     1.0  0.50488  0.31877  0.31908  1.0000
  H   H2664     1.0  0.68069  0.31433  0.43952  1.0000
  H   H2665     1.0  0.55618  0.15640  0.43177  1.0000
  H   H2666     1.0  0.72807  0.43586  0.39374  1.0000
  S   S453      1.0  0.49031  0.21929  0.40141  1.0000
  H   H2667     1.0  0.64393  0.22777  0.58452  1.0000
  N   N115      1.0  0.67426  0.35670  0.44178  1.0000
  C   C1554     1.0  0.66363  0.35549  0.46328  1.0000
  H   H2668     1.0  0.67642  0.12543  0.53261  1.0000
  C   C1555     1.0  0.67199  0.37850  0.43207  1.0000
  C   C1556     1.0  0.69586  0.34775  0.44214  1.0000
  C   C1557     1.0  0.66727  0.37075  0.47510  1.0000
  C   C1558     1.0  0.56496  0.14669  0.44298  1.0000
  C   C1559     1.0  0.66517  0.32261  0.44047  1.0000
  H   H2669     1.0  0.63882  0.99155  0.41615  1.0000
  H   H2670     1.0  0.64717  0.35753  0.46409  1.0000
  C   C1560     1.0  0.60359  0.16282  0.46692  1.0000
  Fe  Fe231     1.0  0.53605  0.01691  0.33494  1.0000
  C   C1561     1.0  0.69014  0.05783  0.55636  1.0000
  H   H2671     1.0  0.72124  0.42399  0.35925  1.0000
  H   H2672     1.0  0.68866  0.37645  0.40130  1.0000
  H   H2673     1.0  0.70259  0.35612  0.45031  1.0000
  H   H2674     1.0  0.57988  0.30636  0.31843  1.0000
  H   H2675     1.0  0.68319  0.37189  0.47330  1.0000
  H   H2676     1.0  0.65878  0.38589  0.47071  1.0000
  H   H2677     1.0  0.66201  0.36599  0.49133  1.0000
  C   C1562     1.0  0.68704  0.40742  0.33965  1.0000
  C   C1563     1.0  0.61907  0.16987  0.44878  1.0000
  S   S454      1.0  0.49748  0.19517  0.36365  1.0000
  N   N116      1.0  0.61224  0.99210  0.43906  1.0000
  H   H2678     1.0  0.71156  0.42212  0.42758  1.0000
  C   C1564     1.0  0.69352  0.06090  0.57680  1.0000
  H   H2679     1.0  0.69378  0.39160  0.33842  1.0000
  C   C1565     1.0  0.60433  0.12976  0.45750  1.0000
  H   H2680     1.0  0.68277  0.38607  0.43651  1.0000
  H   H2681     1.0  0.60204  0.00887  0.47883  1.0000
  C   C1566     1.0  0.67421  0.38338  0.40902  1.0000
  H   H2682     1.0  0.60720  0.22516  0.59197  1.0000
  C   C1567     1.0  0.57942  0.15873  0.44756  1.0000
  H   H2683     1.0  0.61179  0.13265  0.44162  1.0000
  H   H2684     1.0  0.55882  0.10824  0.36255  1.0000
  H   H2685     1.0  0.69838  0.41657  0.37132  1.0000
  C   C1568     1.0  0.56079  0.15882  0.49028  1.0000
  H   H2686     1.0  0.70275  0.34362  0.41021  1.0000
  C   C1569     1.0  0.55952  0.19944  0.63975  1.0000
  H   H2687     1.0  0.68768  0.09795  0.55626  1.0000
  H   H2688     1.0  0.72051  0.45459  0.53506  1.0000
  H   H2689     1.0  0.58685  0.13741  0.49576  1.0000
  H   H2690     1.0  0.57071  0.17323  0.45112  1.0000
  H   H2691     1.0  0.60676  0.26507  0.60978  1.0000
  H   H2692     1.0  0.66182  0.37925  0.40366  1.0000
  C   C1570     1.0  0.59855  0.00546  0.42559  1.0000
  C   C1571     1.0  0.72595  0.46220  0.43342  1.0000
  H   H2693     1.0  0.66424  0.40368  0.32382  1.0000
  S   S455      1.0  0.72494  0.47015  0.35927  1.0000
  N   N117      1.0  0.70299  0.41957  0.33901  1.0000
  C   C1572     1.0  0.71072  0.41403  0.35859  1.0000
  H   H2694     1.0  0.69909  0.03651  0.52442  1.0000
  H   H2695     1.0  0.61403  0.02954  0.46537  1.0000
  Fe  Fe232     1.0  0.48982  0.17765  0.64063  1.0000
  H   H2696     1.0  0.70279  0.46311  0.51814  1.0000
  C   C1573     1.0  0.72484  0.41349  0.42035  1.0000
  H   H2697     1.0  0.72408  0.39880  0.32203  1.0000
  Fe  Fe233     1.0  0.49874  0.00770  0.36363  1.0000
  H   H2698     1.0  0.52344  0.23410  0.31941  1.0000
  C   C1574     1.0  0.72986  0.00069  0.55716  1.0000
  H   H2699     1.0  0.70665  0.45045  0.33533  1.0000
  H   H2700     1.0  0.49326  0.09147  0.31555  1.0000
  C   C1575     1.0  0.49272  0.03298  0.64000  1.0000
  H   H2701     1.0  0.69542  0.47830  0.54719  1.0000
  C   C1576     1.0  0.54002  0.29363  0.33358  1.0000
  H   H2702     1.0  0.71977  0.47720  0.43752  1.0000
  H   H2703     1.0  0.54999  0.20667  0.62838  1.0000
  H   H2704     1.0  0.51838  0.20414  0.64712  1.0000
  H   H2705     1.0  0.51438  0.34139  0.31948  1.0000
  H   H2706     1.0  0.71616  0.45967  0.42363  1.0000
  S   S456      1.0  0.52918  0.98952  0.35711  1.0000
  H   H2707     1.0  0.54888  0.06350  0.32119  1.0000
  H   H2708     1.0  0.72236  0.33425  0.42370  1.0000
  H   H2709     1.0  0.59261  0.99625  0.41742  1.0000
  H   H2710     1.0  0.71639  0.05072  0.50671  1.0000
  Fe  Fe234     1.0  0.73550  0.33702  0.51534  1.0000
  H   H2711     1.0  0.56315  0.12867  0.31859  1.0000
  C   C1577     1.0  0.72116  0.39215  0.36353  1.0000
  C   C1578     1.0  0.71936  0.41521  0.32169  1.0000
  C   C1579     1.0  0.69483  0.44163  0.33589  1.0000
  H   H2712     1.0  0.69013  0.44690  0.32102  1.0000
  C   C1580     1.0  0.71891  0.45953  0.51921  1.0000
  H   H2713     1.0  0.72577  0.44621  0.51205  1.0000
  H   H2714     1.0  0.73553  0.02577  0.59273  1.0000
  C   C1581     1.0  0.73282  0.39475  0.43035  1.0000
  H   H2715     1.0  0.66408  0.42919  0.32504  1.0000
  H   H2716     1.0  0.63062  0.99334  0.46042  1.0000
  Fe  Fe235     1.0  0.64344  0.98499  0.58836  1.0000
  H   H2717     1.0  0.50295  0.02114  0.63235  1.0000
  H   H2718     1.0  0.50435  0.23902  0.63717  1.0000
  H   H2719     1.0  0.55899  0.18317  0.64327  1.0000
  H   H2720     1.0  0.53752  0.27806  0.33991  1.0000
  C   C1582     1.0  0.62767  0.41499  0.96183  1.0000
  H   H2721     1.0  0.59270  0.07089  0.86588  1.0000
  Fe  Fe236     1.0  0.59662  0.42243  0.77748  1.0000
  H   H2722     1.0  0.65347  0.05097  0.91167  1.0000
  S   S457      1.0  0.57497  0.40051  0.78794  1.0000
  Fe  Fe237     1.0  0.63644  0.43546  0.75780  1.0000
  H   H2723     1.0  0.54874  0.24481  0.82490  1.0000
  S   S458      1.0  0.62648  0.41643  0.78736  1.0000
  H   H2724     1.0  0.53616  0.21651  0.71722  1.0000
  Fe  Fe238     1.0  0.50085  0.29997  0.74469  1.0000
  H   H2725     1.0  0.68161  0.42706  0.92470  1.0000
  Fe  Fe239     1.0  0.52926  0.32675  0.75142  1.0000
  C   C1583     1.0  0.64470  0.20780  0.91094  1.0000
  S   S459      1.0  0.55759  0.33970  0.73882  1.0000
  H   H2726     1.0  0.62536  0.45423  0.86852  1.0000
  S   S460      1.0  0.66770  0.42975  0.74001  1.0000
  S   S461      1.0  0.52637  0.29432  0.76223  1.0000
  S   S462      1.0  0.50608  0.33153  0.73196  1.0000
  H   H2727     1.0  0.71044  0.03229  0.96440  1.0000
  H   H2728     1.0  0.55923  0.01355  0.86244  1.0000
  C   C1584     1.0  0.55370  0.20940  0.65862  1.0000
  C   C1585     1.0  0.64523  0.41027  0.91309  1.0000
  S   S463      1.0  0.49705  0.28473  0.71909  1.0000
  H   H2729     1.0  0.72904  0.38650  0.72000  1.0000
  S   S464      1.0  0.70825  0.14130  0.95443  1.0000
  S   S465      1.0  0.64824  0.14872  0.96288  1.0000
  S   S466      1.0  0.68714  0.46758  0.93937  1.0000
  Fe  Fe240     1.0  0.71881  0.10853  0.96483  1.0000
  H   H2730     1.0  0.53718  0.40629  0.71544  1.0000
  Fe  Fe241     1.0  0.56984  0.11640  0.91557  1.0000
  S   S467      1.0  0.55534  0.13254  0.88904  1.0000
  S   S468      1.0  0.60287  0.10576  0.91676  1.0000
  Fe  Fe242     1.0  0.52993  0.11410  0.94289  1.0000
  S   S469      1.0  0.51204  0.13079  0.91919  1.0000
  H   H2731     1.0  0.49985  0.29195  0.86260  1.0000
  Fe  Fe243     1.0  0.53283  0.11123  0.89885  1.0000
  S   S470      1.0  0.52356  0.09138  0.88034  1.0000
  Fe  Fe244     1.0  0.53558  0.15067  0.91150  1.0000
  S   S471      1.0  0.52771  0.18450  0.90702  1.0000
  S   S472      1.0  0.54957  0.09350  0.92331  1.0000
  S   S473      1.0  0.55125  0.13561  0.93713  1.0000
  Fe  Fe245     1.0  0.52932  0.30487  0.94562  1.0000
  S   S474      1.0  0.55440  0.28893  0.96211  1.0000
  Fe  Fe246     1.0  0.55567  0.30847  0.90468  1.0000
  S   S475      1.0  0.58311  0.29335  0.91799  1.0000
  S   S476      1.0  0.55762  0.31907  0.87100  1.0000
  Fe  Fe247     1.0  0.56349  0.27159  0.93641  1.0000
  S   S477      1.0  0.57407  0.23784  0.94030  1.0000
  Fe  Fe248     1.0  0.57180  0.31210  0.94258  1.0000
  S   S478      1.0  0.58985  0.33262  0.95146  1.0000
  S   S479      1.0  0.53700  0.28576  0.92164  1.0000
  S   S480      1.0  0.54585  0.32896  0.92751  1.0000
  C   C1586     1.0  0.54001  0.19821  0.91830  1.0000
  C   C1587     1.0  0.55866  0.19037  0.92400  1.0000
  C   C1588     1.0  0.56882  0.20249  0.93111  1.0000
  C   C1589     1.0  0.56044  0.22252  0.93255  1.0000
  C   C1590     1.0  0.54152  0.23004  0.92751  1.0000
  C   C1591     1.0  0.53142  0.21800  0.92035  1.0000
  H   H2732     1.0  0.56557  0.17522  0.92228  1.0000
  H   H2733     1.0  0.58340  0.19643  0.93506  1.0000
  H   H2734     1.0  0.53465  0.24520  0.92891  1.0000
  H   H2735     1.0  0.51698  0.22417  0.91607  1.0000
  H   H2736     1.0  0.63675  0.18581  0.93671  1.0000
  C   C1592     1.0  0.72686  0.04750  0.91405  1.0000
  C   C1593     1.0  0.55770  0.03518  0.83580  1.0000
  H   H2737     1.0  0.62021  0.47125  0.97863  1.0000
  N   N118      1.0  0.72371  0.38092  0.68291  1.0000
  C   C1594     1.0  0.49741  0.99480  0.85597  1.0000
  H   H2738     1.0  0.60900  0.47181  0.71137  1.0000
  S   S481      1.0  0.69882  0.98605  0.90280  1.0000
  Fe  Fe249     1.0  0.61648  0.44535  0.79931  1.0000
  H   H2739     1.0  0.51233  0.06133  0.86350  1.0000
  C   C1595     1.0  0.63636  0.13677  0.94938  1.0000
  C   C1596     1.0  0.61814  0.14658  0.94349  1.0000
  C   C1597     1.0  0.60789  0.13731  0.93332  1.0000
  C   C1598     1.0  0.61574  0.11812  0.92894  1.0000
  C   C1599     1.0  0.63410  0.10844  0.93458  1.0000
  C   C1600     1.0  0.64434  0.11767  0.94481  1.0000
  H   H2740     1.0  0.61181  0.16135  0.94693  1.0000
  H   H2741     1.0  0.59395  0.14507  0.92879  1.0000
  H   H2742     1.0  0.64048  0.09371  0.93112  1.0000
  H   H2743     1.0  0.65841  0.11000  0.94913  1.0000
  H   H2744     1.0  0.48984  0.07053  0.64909  1.0000
  H   H2745     1.0  0.68189  0.21493  0.96068  1.0000
  C   C1601     1.0  0.51733  0.21431  0.65800  1.0000
  H   H2746     1.0  0.62012  0.20865  0.93506  1.0000
  H   H2747     1.0  0.50489  0.00736  0.85484  1.0000
  C   C1602     1.0  0.51634  0.30332  0.83410  1.0000
  C   C1603     1.0  0.53247  0.31296  0.82464  1.0000
  C   C1604     1.0  0.54471  0.31808  0.83610  1.0000
  C   C1605     1.0  0.54099  0.31365  0.85715  1.0000
  C   C1606     1.0  0.52446  0.30463  0.86661  1.0000
  C   C1607     1.0  0.51232  0.29934  0.85514  1.0000
  H   H2748     1.0  0.53588  0.31593  0.80846  1.0000
  H   H2749     1.0  0.55740  0.32504  0.82852  1.0000
  H   H2750     1.0  0.52122  0.30136  0.88277  1.0000
  C   C1608     1.0  0.52935  0.21932  0.68724  1.0000
  C   C1609     1.0  0.67253  0.43510  0.71363  1.0000
  C   C1610     1.0  0.65845  0.43414  0.70214  1.0000
  C   C1611     1.0  0.66329  0.43726  0.68112  1.0000
  C   C1612     1.0  0.68215  0.44148  0.67143  1.0000
  C   C1613     1.0  0.69606  0.44287  0.68291  1.0000
  C   C1614     1.0  0.69130  0.43956  0.70394  1.0000
  H   H2751     1.0  0.64399  0.43058  0.70948  1.0000
  H   H2752     1.0  0.65243  0.43624  0.67231  1.0000
  H   H2753     1.0  0.71046  0.44658  0.67558  1.0000
  H   H2754     1.0  0.53178  0.38202  0.72930  1.0000
  C   C1615     1.0  0.57167  0.38303  0.77409  1.0000
  C   C1616     1.0  0.55876  0.36942  0.78332  1.0000
  C   C1617     1.0  0.55488  0.35577  0.77275  1.0000
  C   C1618     1.0  0.56355  0.35582  0.75269  1.0000
  C   C1619     1.0  0.57682  0.36915  0.74350  1.0000
  C   C1620     1.0  0.58094  0.38272  0.75420  1.0000
  H   H2755     1.0  0.55160  0.36941  0.79870  1.0000
  H   H2756     1.0  0.54523  0.34515  0.78020  1.0000
  H   H2757     1.0  0.58373  0.36914  0.72801  1.0000
  H   H2758     1.0  0.59096  0.39313  0.74697  1.0000
  H   H2759     1.0  0.50132  0.00025  0.76820  1.0000
  H   H2760     1.0  0.59700  0.46232  0.93367  1.0000
  H   H2761     1.0  0.61285  0.07976  0.88746  1.0000
  H   H2762     1.0  0.64991  0.43332  0.95039  1.0000
  H   H2763     1.0  0.60844  0.06101  0.92833  1.0000
  H   H2764     1.0  0.62778  0.02431  0.88347  1.0000
  H   H2765     1.0  0.72083  0.41150  0.66692  1.0000
  N   N119      1.0  0.58234  0.37060  0.84883  1.0000
  C   C1621     1.0  0.58443  0.35898  0.83204  1.0000
  C   C1622     1.0  0.56031  0.37561  0.85665  1.0000
  C   C1623     1.0  0.59301  0.35712  0.86493  1.0000
  C   C1624     1.0  0.59181  0.38901  0.84050  1.0000
  C   C1625     1.0  0.60592  0.35127  0.82234  1.0000
  C   C1626     1.0  0.54769  0.38977  0.84187  1.0000
  C   C1627     1.0  0.58652  0.36167  0.88645  1.0000
  C   C1628     1.0  0.58893  0.40471  0.85424  1.0000
  H   H2766     1.0  0.57672  0.34577  0.83729  1.0000
  H   H2767     1.0  0.57712  0.36811  0.81960  1.0000
  H   H2768     1.0  0.55733  0.38257  0.87024  1.0000
  H   H2769     1.0  0.55373  0.36165  0.86163  1.0000
  H   H2770     1.0  0.59111  0.34127  0.86612  1.0000
  H   H2771     1.0  0.60937  0.35704  0.86100  1.0000
  H   H2772     1.0  0.60822  0.38479  0.83620  1.0000
  H   H2773     1.0  0.58708  0.39680  0.82606  1.0000
  H   H2774     1.0  0.60523  0.34232  0.81093  1.0000
  H   H2775     1.0  0.61379  0.36377  0.81424  1.0000
  H   H2776     1.0  0.61472  0.34131  0.83330  1.0000
  H   H2777     1.0  0.53225  0.39366  0.84989  1.0000
  H   H2778     1.0  0.55342  0.40401  0.83581  1.0000
  H   H2779     1.0  0.54648  0.38253  0.82939  1.0000
  H   H2780     1.0  0.57151  0.35787  0.89302  1.0000
  H   H2781     1.0  0.58679  0.37734  0.88741  1.0000
  H   H2782     1.0  0.59694  0.35196  0.89610  1.0000
  H   H2783     1.0  0.60139  0.40181  0.86285  1.0000
  H   H2784     1.0  0.57459  0.40596  0.86460  1.0000
  H   H2785     1.0  0.58879  0.41977  0.84479  1.0000
  H   H2786     1.0  0.55676  0.03634  0.81978  1.0000
  C   C1629     1.0  0.63060  0.46577  0.85674  1.0000
  H   H2787     1.0  0.73120  0.01625  0.95328  1.0000
  H   H2788     1.0  0.56835  0.04446  0.83742  1.0000
  H   H2789     1.0  0.63496  0.48037  0.80627  1.0000
  H   H2790     1.0  0.60030  0.02683  0.83380  1.0000
  C   C1630     1.0  0.51615  0.18045  0.69634  1.0000
  N   N120      1.0  0.50375  0.41257  0.74887  1.0000
  H   H2791     1.0  0.68056  0.07555  0.92043  1.0000
  C   C1631     1.0  0.50552  0.40646  0.72875  1.0000
  H   H2792     1.0  0.51428  0.07236  0.92557  1.0000
  H   H2793     1.0  0.55096  0.19762  0.70421  1.0000
  C   C1632     1.0  0.58938  0.08108  0.96909  1.0000
  N   N121      1.0  0.55198  0.24000  0.85610  1.0000
  C   C1633     1.0  0.53430  0.22913  0.86188  1.0000
  H   H2794     1.0  0.65194  0.45564  0.92075  1.0000
  C   C1634     1.0  0.54994  0.25358  0.83634  1.0000
  C   C1635     1.0  0.55168  0.25187  0.87226  1.0000
  C   C1636     1.0  0.51347  0.24236  0.86412  1.0000
  C   C1637     1.0  0.53325  0.18512  0.67899  1.0000
  C   C1638     1.0  0.56648  0.26617  0.82723  1.0000
  H   H2795     1.0  0.68487  0.44741  0.90452  1.0000
  C   C1639     1.0  0.69805  0.38910  0.65855  1.0000
  C   C1640     1.0  0.69608  0.07026  0.92171  1.0000
  H   H2796     1.0  0.56862  0.27314  0.87723  1.0000
  H   H2797     1.0  0.59176  0.01885  0.85970  1.0000
  C   C1641     1.0  0.64705  0.23080  0.94338  1.0000
  H   H2798     1.0  0.53599  0.26467  0.83769  1.0000
  H   H2799     1.0  0.54064  0.26586  0.87059  1.0000
  H   H2800     1.0  0.69153  0.38152  0.64935  1.0000
  H   H2801     1.0  0.66111  0.01304  0.89213  1.0000
  H   H2802     1.0  0.57244  0.21522  0.88563  1.0000
  H   H2803     1.0  0.51198  0.25326  0.87427  1.0000
  H   H2804     1.0  0.53463  0.21925  0.85090  1.0000
  H   H2805     1.0  0.61940  0.45837  0.94411  1.0000
  C   C1642     1.0  0.60670  0.99123  0.80836  1.0000
  H   H2806     1.0  0.56661  0.27733  0.83662  1.0000
  H   H2807     1.0  0.56319  0.27494  0.81257  1.0000
  H   H2808     1.0  0.58141  0.25694  0.82421  1.0000
  H   H2809     1.0  0.60579  0.46709  0.68791  1.0000
  H   H2810     1.0  0.64638  0.47262  0.71265  1.0000
  H   H2811     1.0  0.50237  0.21391  0.66743  1.0000
  C   C1643     1.0  0.60805  0.06257  0.86679  1.0000
  H   H2812     1.0  0.68574  0.39453  0.67011  1.0000
  H   H2813     1.0  0.65772  0.40859  0.94597  1.0000
  C   C1644     1.0  0.64806  0.01448  0.90426  1.0000
  H   H2814     1.0  0.51366  0.41023  0.78700  1.0000
  N   N122      1.0  0.64069  0.42781  0.92411  1.0000
  H   H2815     1.0  0.58930  0.19987  0.86949  1.0000
  C   C1645     1.0  0.61944  0.43798  0.92321  1.0000
  C   C1646     1.0  0.70544  0.07986  0.93237  1.0000
  C   C1647     1.0  0.65412  0.44259  0.91294  1.0000
  H   H2816     1.0  0.51468  0.43976  0.73328  1.0000
  C   C1648     1.0  0.61350  0.45841  0.93038  1.0000
  H   H2817     1.0  0.58326  0.25731  0.86064  1.0000
  C   C1649     1.0  0.62924  0.46544  0.83680  1.0000
  H   H2818     1.0  0.63676  0.38486  0.93586  1.0000
  C   C1650     1.0  0.54948  0.48202  0.75438  1.0000
  H   H2819     1.0  0.60862  0.42842  0.93206  1.0000
  H   H2820     1.0  0.61646  0.44058  0.90755  1.0000
  H   H2821     1.0  0.66001  0.19959  0.90700  1.0000
  H   H2822     1.0  0.71789  0.00682  0.97702  1.0000
  H   H2823     1.0  0.56996  0.21616  0.84121  1.0000
  H   H2824     1.0  0.56366  0.19745  0.87503  1.0000
  H   H2825     1.0  0.51395  0.21936  0.69581  1.0000
  H   H2826     1.0  0.55761  0.46777  0.76044  1.0000
  H   H2827     1.0  0.58871  0.98695  0.88017  1.0000
  H   H2828     1.0  0.64247  0.18640  0.97467  1.0000
  C   C1651     1.0  0.49950  0.06920  0.93387  1.0000
  C   C1652     1.0  0.68034  0.19930  0.96074  1.0000
  H   H2829     1.0  0.63039  0.01110  0.84190  1.0000
  H   H2830     1.0  0.61932  0.99866  0.80866  1.0000
  H   H2831     1.0  0.52958  0.23540  0.68097  1.0000
  C   C1653     1.0  0.62696  0.24510  0.94280  1.0000
  H   H2832     1.0  0.54635  0.24340  0.88715  1.0000
  H   H2833     1.0  0.60386  0.36448  0.96269  1.0000
  C   C1654     1.0  0.63592  0.48047  0.82164  1.0000
  C   C1655     1.0  0.64494  0.42123  0.94528  1.0000
  H   H2834     1.0  0.61656  0.24000  0.93558  1.0000
  S   S482      1.0  0.68862  0.10264  0.98050  1.0000
  H   H2835     1.0  0.65372  0.23506  0.95490  1.0000
  H   H2836     1.0  0.51601  0.16408  0.69944  1.0000
  H   H2837     1.0  0.50947  0.43770  0.75973  1.0000
  H   H2838     1.0  0.60632  0.99162  0.79231  1.0000
  N   N123      1.0  0.58356  0.00242  0.84012  1.0000
  H   H2839     1.0  0.55634  0.22271  0.69732  1.0000
  H   H2840     1.0  0.63526  0.20324  0.90204  1.0000
  H   H2841     1.0  0.60919  0.19244  0.96709  1.0000
  H   H2842     1.0  0.69567  0.19097  0.95688  1.0000
  H   H2843     1.0  0.63630  0.38265  0.91087  1.0000
  C   C1656     1.0  0.66958  0.46012  0.96003  1.0000
  C   C1657     1.0  0.70674  0.05411  0.91245  1.0000
  C   C1658     1.0  0.58667  0.00247  0.81787  1.0000
  H   H2844     1.0  0.67395  0.48142  0.68737  1.0000
  H   H2845     1.0  0.53218  0.17693  0.66705  1.0000
  C   C1659     1.0  0.63625  0.20232  0.93336  1.0000
  H   H2846     1.0  0.69713  0.09249  0.93912  1.0000
  C   C1660     1.0  0.49945  0.07301  0.86500  1.0000
  Fe  Fe250     1.0  0.50334  0.30651  0.78689  1.0000
  H   H2847     1.0  0.54097  0.42272  0.76393  1.0000
  H   H2848     1.0  0.62008  0.99651  0.86415  1.0000
  H   H2849     1.0  0.50212  0.23259  0.87081  1.0000
  H   H2850     1.0  0.67632  0.20319  0.93028  1.0000
  C   C1661     1.0  0.66785  0.19773  0.94517  1.0000
  C   C1662     1.0  0.51729  0.24699  0.97381  1.0000
  H   H2851     1.0  0.60828  0.04699  0.86500  1.0000
  H   H2852     1.0  0.66360  0.04420  0.87794  1.0000
  C   C1663     1.0  0.65431  0.07504  0.86718  1.0000
  H   H2853     1.0  0.64711  0.04770  0.86129  1.0000
  H   H2854     1.0  0.62468  0.03761  0.93519  1.0000
  H   H2855     1.0  0.61813  0.06988  0.85410  1.0000
  C   C1664     1.0  0.53822  0.42221  0.74878  1.0000
  C   C1665     1.0  0.63809  0.05788  0.90923  1.0000
  C   C1666     1.0  0.59810  0.01330  0.84531  1.0000
  C   C1667     1.0  0.61335  0.06369  0.88708  1.0000
  C   C1668     1.0  0.67674  0.43457  0.91031  1.0000
  H   H2856     1.0  0.49476  0.39622  0.72960  1.0000
  C   C1669     1.0  0.63032  0.02947  0.89682  1.0000
  C   C1670     1.0  0.70726  0.38533  0.70018  1.0000
  H   H2857     1.0  0.51709  0.23067  0.97713  1.0000
  H   H2858     1.0  0.67444  0.19224  0.97611  1.0000
  H   H2859     1.0  0.56555  0.20292  0.66792  1.0000
  H   H2860     1.0  0.65260  0.01815  0.91735  1.0000
  H   H2861     1.0  0.66580  0.07741  0.87517  1.0000
  C   C1671     1.0  0.73628  0.05726  0.92456  1.0000
  H   H2862     1.0  0.69004  0.43541  0.97286  1.0000
  C   C1672     1.0  0.54418  0.21365  0.70218  1.0000
  H   H2863     1.0  0.66008  0.07722  0.85084  1.0000
  H   H2864     1.0  0.52502  0.38699  0.76005  1.0000
  C   C1673     1.0  0.72561  0.07349  0.93373  1.0000
  H   H2865     1.0  0.52095  0.47217  0.76232  1.0000
  C   C1674     1.0  0.56261  0.01319  0.84608  1.0000
  C   C1675     1.0  0.51580  0.42885  0.74744  1.0000
  H   H2866     1.0  0.54680  0.43316  0.73840  1.0000
  S   S483      1.0  0.50213  0.29436  0.82022  1.0000
  C   C1676     1.0  0.63550  0.46357  0.97758  1.0000
  H   H2867     1.0  0.66097  0.40268  0.91297  1.0000
  H   H2868     1.0  0.64431  0.22415  0.90622  1.0000
  C   C1677     1.0  0.63676  0.20239  0.96911  1.0000
  S   S484      1.0  0.61908  0.44607  0.83139  1.0000
  H   H2869     1.0  0.50142  0.18799  0.69260  1.0000
  C   C1678     1.0  0.50669  0.39759  0.78576  1.0000
  H   H2870     1.0  0.56068  0.10032  0.97173  1.0000
  C   C1679     1.0  0.57160  0.25760  0.87405  1.0000
  S   S485      1.0  0.60734  0.43896  0.74682  1.0000
  H   H2871     1.0  0.53481  0.21906  0.87654  1.0000
  H   H2872     1.0  0.64583  0.48338  0.95106  1.0000
  H   H2873     1.0  0.61646  0.39891  0.92298  1.0000
  S   S486      1.0  0.58593  0.45018  0.79138  1.0000
  H   H2874     1.0  0.52478  0.39147  0.70552  1.0000
  Fe  Fe251     1.0  0.70761  0.01488  0.88550  1.0000
  H   H2875     1.0  0.55510  0.22549  0.65394  1.0000
  H   H2876     1.0  0.61611  0.42806  0.96511  1.0000
  H   H2877     1.0  0.55273  0.15425  0.97435  1.0000
  C   C1680     1.0  0.56658  0.14565  0.97964  1.0000
  S   S487      1.0  0.50775  0.33834  0.77682  1.0000
  H   H2878     1.0  0.58098  0.11240  0.95986  1.0000
  H   H2879     1.0  0.64374  0.99940  0.90901  1.0000
  H   H2880     1.0  0.65040  0.44884  0.89771  1.0000
  H   H2881     1.0  0.65732  0.23507  0.92923  1.0000
  H   H2882     1.0  0.60302  0.12108  0.97759  1.0000
  C   C1681     1.0  0.61902  0.00124  0.84801  1.0000
  C   C1682     1.0  0.64997  0.47035  0.96187  1.0000
  H   H2883     1.0  0.50153  0.41969  0.71728  1.0000
  C   C1683     1.0  0.72319  0.02042  0.96785  1.0000
  H   H2884     1.0  0.64117  0.08692  0.86941  1.0000
  H   H2885     1.0  0.54493  0.40739  0.74482  1.0000
  H   H2886     1.0  0.63363  0.40864  0.97597  1.0000
  S   S488      1.0  0.49697  0.31176  0.95952  1.0000
  H   H2887     1.0  0.58655  0.07768  0.95500  1.0000
  H   H2888     1.0  0.54749  0.17760  0.68418  1.0000
  H   H2889     1.0  0.58415  0.23102  0.84826  1.0000
  S   S489      1.0  0.62875  0.46390  0.77067  1.0000
  H   H2890     1.0  0.61682  0.02735  0.90829  1.0000
  H   H2891     1.0  0.62884  0.06036  0.94065  1.0000
  C   C1684     1.0  0.50939  0.39423  0.76394  1.0000
  H   H2892     1.0  0.69799  0.40018  0.69615  1.0000
  H   H2893     1.0  0.61960  0.24784  0.95805  1.0000
  C   C1685     1.0  0.64946  0.05363  0.87428  1.0000
  H   H2894     1.0  0.50954  0.25026  0.84942  1.0000
  H   H2895     1.0  0.49508  0.13758  0.95924  1.0000
  N   N124      1.0  0.53345  0.20705  0.67073  1.0000
  C   C1686     1.0  0.62404  0.05383  0.92939  1.0000
  C   C1687     1.0  0.57043  0.22435  0.85338  1.0000
  H   H2896     1.0  0.57762  0.24811  0.88722  1.0000
  S   S490      1.0  0.69770  0.01135  0.85756  1.0000
  C   C1688     1.0  0.63273  0.39348  0.92146  1.0000
  H   H2897     1.0  0.63837  0.07427  0.90593  1.0000
  H   H2898     1.0  0.64359  0.41555  0.89706  1.0000
  H   H2899     1.0  0.61883  0.47044  0.91846  1.0000
  H   H2900     1.0  0.51376  0.24724  0.65561  1.0000
  H   H2901     1.0  0.49188  0.27400  0.68269  1.0000
  S   S491      1.0  0.51842  0.10013  0.97426  1.0000
  C   C1689     1.0  0.52614  0.39601  0.71963  1.0000
  S   S492      1.0  0.69436  0.04306  0.89871  1.0000
  N   N125      1.0  0.63283  0.05117  0.89184  1.0000
  H   H2902     1.0  0.60066  0.05941  0.89877  1.0000
  H   H2903     1.0  0.62960  0.25967  0.93337  1.0000
  C   C1690     1.0  0.50060  0.08979  0.87310  1.0000
  H   H2904     1.0  0.50047  0.38254  0.76392  1.0000
  H   H2905     1.0  0.50806  0.25438  0.96216  1.0000
  H   H2906     1.0  0.51809  0.18471  0.71035  1.0000
  C   C1691     1.0  0.57395  0.20847  0.87208  1.0000
  H   H2907     1.0  0.73176  0.41505  0.69760  1.0000
  H   H2908     1.0  0.66836  0.18147  0.94558  1.0000
  H   H2909     1.0  0.68142  0.42446  0.89904  1.0000
  Fe  Fe252     1.0  0.59902  0.46616  0.76169  1.0000
  H   H2910     1.0  0.57756  0.14295  0.96613  1.0000
  H   H2911     1.0  0.57466  0.99599  0.81420  1.0000
  H   H2912     1.0  0.70220  0.44046  0.71276  1.0000
  N   N126      1.0  0.64653  0.20864  0.94773  1.0000
  H   H2913     1.0  0.62055  0.40345  0.95845  1.0000
  H   H2914     1.0  0.73162  0.33616  0.68696  1.0000
  H   H2915     1.0  0.55145  0.00512  0.84315  1.0000
  Fe  Fe253     1.0  0.67848  0.13547  0.97232  1.0000
  C   C1692     1.0  0.59850  0.33425  0.97370  1.0000
  H   H2916     1.0  0.51398  0.38389  0.79475  1.0000
  C   C1693     1.0  0.60785  0.47889  0.69570  1.0000
  C   C1694     1.0  0.67486  0.44338  0.97430  1.0000
  H   H2917     1.0  0.69683  0.37437  0.70312  1.0000
  H   H2918     1.0  0.62386  0.98805  0.84047  1.0000
  H   H2919     1.0  0.49071  0.39992  0.79265  1.0000
  C   C1695     1.0  0.73422  0.34397  0.69847  1.0000
  C   C1696     1.0  0.71345  0.38491  0.72058  1.0000
  H   H2920     1.0  0.60547  0.08195  0.96682  1.0000
  H   H2921     1.0  0.54272  0.04184  0.84305  1.0000
  C   C1697     1.0  0.60458  0.35211  0.97507  1.0000
  H   H2922     1.0  0.58563  0.01801  0.80940  1.0000
  Fe  Fe254     1.0  0.72914  0.99525  0.84934  1.0000
  C   C1698     1.0  0.71502  0.37415  0.66756  1.0000
  H   H2923     1.0  0.70398  0.39748  0.72760  1.0000
  H   H2924     1.0  0.73521  0.03511  0.90691  1.0000
  H   H2925     1.0  0.63826  0.47435  0.68159  1.0000
  H   H2926     1.0  0.72083  0.34520  0.71026  1.0000
  C   C1699     1.0  0.57620  0.10116  0.97291  1.0000
  H   H2927     1.0  0.52030  0.99499  0.79471  1.0000
  H   H2928     1.0  0.70857  0.36034  0.67413  1.0000
  H   H2929     1.0  0.64071  0.21096  0.97933  1.0000
  H   H2930     1.0  0.49098  0.01445  0.66958  1.0000
  C   C1700     1.0  0.63866  0.48100  0.86146  1.0000
  H   H2931     1.0  0.71023  0.37111  0.73116  1.0000
  H   H2932     1.0  0.50175  0.06189  0.94925  1.0000
  H   H2933     1.0  0.49047  0.09778  0.94286  1.0000
  C   C1701     1.0  0.61384  0.20407  0.97324  1.0000
  H   H2934     1.0  0.72689  0.37023  0.65479  1.0000
  H   H2935     1.0  0.60602  0.21899  0.96730  1.0000
  H   H2936     1.0  0.49517  0.05850  0.92638  1.0000
  H   H2937     1.0  0.63957  0.48128  0.87680  1.0000
  C   C1702     1.0  0.73242  0.39939  0.67267  1.0000
  H   H2938     1.0  0.53288  0.24892  0.96714  1.0000
  H   H2939     1.0  0.58584  0.06838  0.98104  1.0000
  C   C1703     1.0  0.48727  0.99876  0.77906  1.0000
  H   H2940     1.0  0.71499  0.06144  0.98131  1.0000
  H   H2941     1.0  0.70358  0.40202  0.64825  1.0000
  C   C1704     1.0  0.50554  0.48725  0.24060  1.0000
  C   C1705     1.0  0.51065  0.82477  0.99264  1.0000
  C   C1706     1.0  0.65748  0.92250  0.00195  1.0000
  H   H2942     1.0  0.56999  0.63438  0.23014  1.0000
  H   H2943     1.0  0.52355  0.74564  0.00773  1.0000
  C   C1707     1.0  0.56119  0.96124  0.18892  1.0000
  Fe  Fe255     1.0  0.52469  0.58512  0.22909  1.0000
  S   S493      1.0  0.55430  0.57067  0.23852  1.0000
  S   S494      1.0  0.51641  0.61759  0.21565  1.0000
  C   C1708     1.0  0.52888  0.64735  0.25008  1.0000
  S   S495      1.0  0.70468  0.93715  0.10361  1.0000
  H   H2944     1.0  0.68071  0.85136  0.98199  1.0000
  C   C1709     1.0  0.60617  0.58389  0.98373  1.0000
  H   H2945     1.0  0.49851  0.94541  0.30514  1.0000
  H   H2946     1.0  0.73650  0.85543  0.13673  1.0000
  S   S496      1.0  0.49425  0.61945  0.16603  1.0000
  C   C1710     1.0  0.56905  0.93082  0.16234  1.0000
  H   H2947     1.0  0.52213  0.69784  0.09232  1.0000
  H   H2948     1.0  0.50332  0.51243  0.26787  1.0000
  Fe  Fe256     1.0  0.71396  0.83600  0.03323  1.0000
  C   C1711     1.0  0.52524  0.72051  0.99182  1.0000
  N   N127      1.0  0.62623  0.51220  0.01114  1.0000
  S   S497      1.0  0.71342  0.86916  0.02585  1.0000
  N   N128      1.0  0.52319  0.49795  0.23268  1.0000
  H   H2949     1.0  0.55492  0.56991  0.28683  1.0000
  S   S498      1.0  0.68780  0.82400  0.05393  1.0000
  C   C1712     1.0  0.50444  0.63149  0.99326  1.0000
  Fe  Fe257     1.0  0.57782  0.61706  0.01649  1.0000
  S   S499      1.0  0.55946  0.64388  0.00079  1.0000
  S   S500      1.0  0.60563  0.59881  0.00162  1.0000
  Fe  Fe258     1.0  0.55778  0.62605  0.05816  1.0000
  S   S501      1.0  0.53779  0.65380  0.04604  1.0000
  S   S502      1.0  0.56283  0.61495  0.09018  1.0000
  Fe  Fe259     1.0  0.53405  0.63513  0.02441  1.0000
  Fe  Fe260     1.0  0.56453  0.66059  0.02330  1.0000
  S   S503      1.0  0.57394  0.69070  0.01164  1.0000
  S   S504      1.0  0.55181  0.60653  0.03838  1.0000
  S   S505      1.0  0.58500  0.63462  0.03719  1.0000
  Fe  Fe261     1.0  0.58514  0.81395  0.03111  1.0000
  S   S506      1.0  0.57379  0.80272  0.06353  1.0000
  S   S507      1.0  0.61665  0.81374  0.01413  1.0000
  Fe  Fe262     1.0  0.54355  0.82591  0.02044  1.0000
  S   S508      1.0  0.52859  0.81574  0.05156  1.0000
  H   H2950     1.0  0.71781  0.88285  0.06473  1.0000
  Fe  Fe263     1.0  0.55015  0.83037  0.06119  1.0000
  S   S509      1.0  0.54030  0.85229  0.08294  1.0000
  Fe  Fe264     1.0  0.55300  0.78899  0.05126  1.0000
  S   S510      1.0  0.54315  0.75915  0.06401  1.0000
  S   S511      1.0  0.56337  0.84273  0.02979  1.0000
  S   S512      1.0  0.56613  0.79801  0.01905  1.0000
  N   N129      1.0  0.50387  0.72121  0.98990  1.0000
  H   H2951     1.0  0.57398  0.59709  0.28301  1.0000
  H   H2952     1.0  0.71710  0.77261  0.07602  1.0000
  H   H2953     1.0  0.51048  0.82635  0.09045  1.0000
  N   N130      1.0  0.65038  0.88628  0.00817  1.0000
  C   C1713     1.0  0.56572  0.95767  0.13312  1.0000
  H   H2954     1.0  0.58230  0.95627  0.12997  1.0000
  H   H2955     1.0  0.55897  0.60803  0.31268  1.0000
  C   C1714     1.0  0.50907  0.62625  0.12588  1.0000
  C   C1715     1.0  0.53627  0.95316  0.16053  1.0000
  H   H2956     1.0  0.67068  0.89437  0.03764  1.0000
  C   C1716     1.0  0.56471  0.70995  0.02583  1.0000
  C   C1717     1.0  0.57481  0.72621  0.02245  1.0000
  C   C1718     1.0  0.56797  0.74168  0.03375  1.0000
  C   C1719     1.0  0.55086  0.74104  0.04833  1.0000
  C   C1720     1.0  0.54035  0.72510  0.05126  1.0000
  C   C1721     1.0  0.54736  0.70947  0.04013  1.0000
  H   H2957     1.0  0.58819  0.72667  0.01131  1.0000
  H   H2958     1.0  0.57627  0.75380  0.03156  1.0000
  H   H2959     1.0  0.52698  0.72471  0.06240  1.0000
  H   H2960     1.0  0.53928  0.69718  0.04249  1.0000
  H   H2961     1.0  0.56525  0.97350  0.19462  1.0000
  C   C1722     1.0  0.51570  0.85406  0.09631  1.0000
  H   H2962     1.0  0.56768  0.59479  0.26024  1.0000
  H   H2963     1.0  0.52028  0.80073  0.01564  1.0000
  H   H2964     1.0  0.50183  0.50407  0.19837  1.0000
  C   C1723     1.0  0.63917  0.51165  0.99085  1.0000
  H   H2965     1.0  0.62374  0.86203  0.00083  1.0000
  H   H2966     1.0  0.58127  0.96639  0.16096  1.0000
  H   H2967     1.0  0.50735  0.72073  0.03089  1.0000
  C   C1724     1.0  0.66817  0.82043  0.04305  1.0000
  C   C1725     1.0  0.64891  0.82101  0.05434  1.0000
  C   C1726     1.0  0.63293  0.81874  0.04578  1.0000
  C   C1727     1.0  0.63626  0.81549  0.02598  1.0000
  C   C1728     1.0  0.65562  0.81427  0.01492  1.0000
  C   C1729     1.0  0.67148  0.81690  0.02335  1.0000
  H   H2968     1.0  0.49054  0.74672  0.00466  1.0000
  H   H2969     1.0  0.61804  0.81962  0.05444  1.0000
  H   H2970     1.0  0.57959  0.52798  0.99573  1.0000
  H   H2971     1.0  0.52435  0.61793  0.26469  1.0000
  H   H2972     1.0  0.66903  0.86793  0.04322  1.0000
  C   C1730     1.0  0.51073  0.80578  0.00441  1.0000
  H   H2973     1.0  0.59146  0.64031  0.23649  1.0000
  H   H2974     1.0  0.53194  0.94489  0.17589  1.0000
  H   H2975     1.0  0.51178  0.52662  0.19822  1.0000
  H   H2976     1.0  0.58988  0.50254  0.00387  1.0000
  H   H2977     1.0  0.53525  0.93586  0.13639  1.0000
  H   H2978     1.0  0.55310  0.49523  0.23897  1.0000
  H   H2979     1.0  0.52853  0.51714  0.26580  1.0000
  H   H2980     1.0  0.65497  0.92397  0.01796  1.0000
  C   C1731     1.0  0.56591  0.91376  0.15269  1.0000
  H   H2981     1.0  0.57551  0.89974  0.15849  1.0000
  C   C1732     1.0  0.56895  0.63371  0.26261  1.0000
  H   H2982     1.0  0.49293  0.83407  0.03243  1.0000
  H   H2983     1.0  0.52059  0.63220  0.09417  1.0000
  H   H2984     1.0  0.50849  0.85686  0.05511  1.0000
  C   C1733     1.0  0.56595  0.54886  0.22853  1.0000
  C   C1734     1.0  0.56273  0.54635  0.20998  1.0000
  C   C1735     1.0  0.57145  0.52865  0.20248  1.0000
  C   C1736     1.0  0.58335  0.51323  0.21347  1.0000
  C   C1737     1.0  0.58699  0.51587  0.23186  1.0000
  C   C1738     1.0  0.57837  0.53373  0.23932  1.0000
  H   H2985     1.0  0.55359  0.55808  0.20132  1.0000
  H   H2986     1.0  0.56878  0.52681  0.18812  1.0000
  H   H2987     1.0  0.64500  0.54552  0.00026  1.0000
  H   H2988     1.0  0.58106  0.53567  0.25361  1.0000
  C   C1739     1.0  0.54669  0.58552  0.28591  1.0000
  C   C1740     1.0  0.53256  0.60722  0.14705  1.0000
  C   C1741     1.0  0.54747  0.60617  0.13001  1.0000
  C   C1742     1.0  0.54325  0.61520  0.11088  1.0000
  C   C1743     1.0  0.52397  0.62516  0.10883  1.0000
  H   H2989     1.0  0.56342  0.65004  0.26213  1.0000
  H   H2990     1.0  0.53596  0.60029  0.16173  1.0000
  H   H2991     1.0  0.56238  0.59848  0.13168  1.0000
  H   H2992     1.0  0.50681  0.89813  0.02771  1.0000
  H   H2993     1.0  0.49842  0.57035  0.99911  1.0000
  C   C1744     1.0  0.53745  0.62525  0.25743  1.0000
  N   N131      1.0  0.56587  0.67818  0.09751  1.0000
  C   C1745     1.0  0.58437  0.66644  0.08699  1.0000
  C   C1746     1.0  0.56549  0.67229  0.11980  1.0000
  C   C1747     1.0  0.56578  0.70038  0.09174  1.0000
  C   C1748     1.0  0.54795  0.67348  0.09139  1.0000
  C   C1749     1.0  0.58941  0.67296  0.06408  1.0000
  C   C1750     1.0  0.56051  0.65131  0.12908  1.0000
  C   C1751     1.0  0.58355  0.70790  0.09626  1.0000
  C   C1752     1.0  0.52735  0.68327  0.10146  1.0000
  H   H2994     1.0  0.59776  0.66685  0.09331  1.0000
  H   H2995     1.0  0.58314  0.65029  0.08949  1.0000
  H   H2996     1.0  0.55485  0.68328  0.12817  1.0000
  H   H2997     1.0  0.58021  0.67263  0.12364  1.0000
  H   H2998     1.0  0.56527  0.70535  0.07556  1.0000
  H   H2999     1.0  0.55203  0.70892  0.09945  1.0000
  H   H3000     1.0  0.54821  0.67842  0.07506  1.0000
  H   H3001     1.0  0.54827  0.65707  0.09336  1.0000
  H   H3002     1.0  0.59327  0.68821  0.05986  1.0000
  H   H3003     1.0  0.60271  0.66261  0.05812  1.0000
  H   H3004     1.0  0.57725  0.67208  0.05630  1.0000
  H   H3005     1.0  0.56228  0.64793  0.14509  1.0000
  H   H3006     1.0  0.54480  0.65049  0.12875  1.0000
  H   H3007     1.0  0.57062  0.63945  0.12158  1.0000
  H   H3008     1.0  0.58216  0.72426  0.09053  1.0000
  H   H3009     1.0  0.59805  0.70074  0.08864  1.0000
  H   H3010     1.0  0.58354  0.70577  0.11258  1.0000
  H   H3011     1.0  0.50669  0.97440  0.31287  1.0000
  H   H3012     1.0  0.60860  0.54032  0.00034  1.0000
  H   H3013     1.0  0.66931  0.93139  0.99413  1.0000
  C   C1753     1.0  0.57999  0.63044  0.24147  1.0000
  H   H3014     1.0  0.51638  0.67314  0.10304  1.0000
  H   H3015     1.0  0.49823  0.77867  0.01106  1.0000
  C   C1754     1.0  0.72763  0.77726  0.06225  1.0000
  C   C1755     1.0  0.63550  0.52099  0.02451  1.0000
  Fe  Fe265     1.0  0.72526  0.86390  0.99439  1.0000
  H   H3016     1.0  0.50890  0.53727  0.26027  1.0000
  H   H3017     1.0  0.59361  0.49606  0.03891  1.0000
  C   C1756     1.0  0.71946  0.92305  0.08568  1.0000
  H   H3018     1.0  0.55723  0.98134  0.16179  1.0000
  H   H3019     1.0  0.58545  0.93054  0.16022  1.0000
  H   H3020     1.0  0.53615  0.64491  0.28850  1.0000
  C   C1757     1.0  0.73420  0.86695  0.12342  1.0000
  H   H3021     1.0  0.63425  0.87536  0.03732  1.0000
  H   H3022     1.0  0.65364  0.88472  0.05855  1.0000
  H   H3023     1.0  0.54185  0.97765  0.28733  1.0000
  H   H3024     1.0  0.49884  0.57708  0.04867  1.0000
  H   H3025     1.0  0.63338  0.50303  0.98205  1.0000
  H   H3026     1.0  0.62545  0.52187  0.03914  1.0000
  H   H3027     1.0  0.52711  0.68579  0.11678  1.0000
  C   C1758     1.0  0.66130  0.50238  0.99100  1.0000
  S   S513      1.0  0.50970  0.57316  0.20923  1.0000
  C   C1759     1.0  0.48978  0.58838  0.03876  1.0000
  H   H3028     1.0  0.51628  0.88201  0.10517  1.0000
  H   H3029     1.0  0.71958  0.90822  0.13901  1.0000
  H   H3030     1.0  0.52068  0.65515  0.26255  1.0000
  C   C1760     1.0  0.59382  0.51734  0.99655  1.0000
  C   C1761     1.0  0.66468  0.90063  0.99871  1.0000
  C   C1762     1.0  0.48860  0.97699  0.18170  1.0000
  H   H3031     1.0  0.48849  0.93594  0.28778  1.0000
  H   H3032     1.0  0.48711  0.60261  0.04471  1.0000
  C   C1763     1.0  0.61717  0.87723  0.00415  1.0000
  C   C1764     1.0  0.56120  0.59991  0.27477  1.0000
  H   H3033     1.0  0.52824  0.62141  0.29667  1.0000
  N   N132      1.0  0.55863  0.95165  0.15524  1.0000
  H   H3034     1.0  0.71411  0.91027  0.17440  1.0000
  H   H3035     1.0  0.64389  0.92938  0.99539  1.0000
  C   C1765     1.0  0.64368  0.88697  0.03021  1.0000
  C   C1766     1.0  0.54172  0.62850  0.29082  1.0000
  H   H3036     1.0  0.52942  0.70936  0.00499  1.0000
  Fe  Fe266     1.0  0.71554  0.96057  0.11530  1.0000
  H   H3037     1.0  0.53217  0.52669  0.22969  1.0000
  H   H3038     1.0  0.67529  0.86203  0.01162  1.0000
  C   C1767     1.0  0.49055  0.64424  0.30833  1.0000
  H   H3039     1.0  0.57080  0.94739  0.19491  1.0000
  H   H3040     1.0  0.55037  0.91083  0.15714  1.0000
  C   C1768     1.0  0.50407  0.83951  0.09713  1.0000
  H   H3041     1.0  0.51813  0.95905  0.13667  1.0000
  N   N133      1.0  0.55234  0.62185  0.27141  1.0000
  H   H3042     1.0  0.54390  0.61799  0.24405  1.0000
  C   C1769     1.0  0.52897  0.97054  0.28697  1.0000
  S   S514      1.0  0.59168  0.49045  0.20431  1.0000
  H   H3043     1.0  0.54435  0.50347  0.20542  1.0000
  H   H3044     1.0  0.50131  0.96376  0.26780  1.0000
  H   H3045     1.0  0.60480  0.88285  0.99543  1.0000
  H   H3046     1.0  0.51787  0.64787  0.24029  1.0000
  C   C1770     1.0  0.66043  0.88332  0.04282  1.0000
  H   H3047     1.0  0.63398  0.90148  0.03261  1.0000
  C   C1771     1.0  0.50735  0.87076  0.10566  1.0000
  C   C1772     1.0  0.71185  0.90763  0.08090  1.0000
  C   C1773     1.0  0.60641  0.52509  0.00839  1.0000
  C   C1774     1.0  0.56504  0.96577  0.16581  1.0000
  H   H3048     1.0  0.66909  0.51159  0.99721  1.0000
  H   H3049     1.0  0.64625  0.82358  0.06965  1.0000
  H   H3050     1.0  0.72445  0.73612  0.04371  1.0000
  H   H3051     1.0  0.52948  0.88094  0.03113  1.0000
  H   H3052     1.0  0.67133  0.49366  0.29274  1.0000
  H   H3053     1.0  0.51399  0.89027  0.05227  1.0000
  C   C1775     1.0  0.51331  0.61734  0.14504  1.0000
  H   H3054     1.0  0.56410  0.92613  0.17865  1.0000
  C   C1776     1.0  0.52980  0.49809  0.21049  1.0000
  C   C1777     1.0  0.52575  0.94603  0.14617  1.0000
  H   H3055     1.0  0.68618  0.81641  0.01445  1.0000
  H   H3056     1.0  0.49316  0.62259  0.28888  1.0000
  H   H3057     1.0  0.50860  0.85900  0.02935  1.0000
  C   C1778     1.0  0.70615  0.77176  0.04082  1.0000
  S   S515      1.0  0.49873  0.58604  0.25438  1.0000
  H   H3058     1.0  0.59617  0.50406  0.24043  1.0000
  C   C1779     1.0  0.55409  0.62426  0.30785  1.0000
  C   C1780     1.0  0.68894  0.76793  0.05836  1.0000
  H   H3059     1.0  0.72268  0.79362  0.05766  1.0000
  H   H3060     1.0  0.53077  0.60926  0.99627  1.0000
  H   H3061     1.0  0.49990  0.81713  0.27790  1.0000
  H   H3062     1.0  0.70318  0.78790  0.03417  1.0000
  H   H3063     1.0  0.70442  0.76347  0.02925  1.0000
  S   S516      1.0  0.72340  0.83121  0.00149  1.0000
  H   H3064     1.0  0.61380  0.49379  0.05273  1.0000
  Fe  Fe267     1.0  0.48908  0.61749  0.23960  1.0000
  H   H3065     1.0  0.65174  0.85447  0.01522  1.0000
  S   S517      1.0  0.70844  0.48797  0.30728  1.0000
  Fe  Fe268     1.0  0.49931  0.60569  0.19761  1.0000
  H   H3066     1.0  0.69127  0.75245  0.06678  1.0000
  H   H3067     1.0  0.68645  0.77891  0.06867  1.0000
  H   H3068     1.0  0.67486  0.77019  0.05226  1.0000
  H   H3069     1.0  0.62645  0.55382  0.02041  1.0000
  H   H3070     1.0  0.59712  0.52763  0.02306  1.0000
  C   C1781     1.0  0.51912  0.61571  0.98743  1.0000
  H   H3071     1.0  0.57035  0.91618  0.13620  1.0000
  H   H3072     1.0  0.65827  0.81173  0.99960  1.0000
  H   H3073     1.0  0.53193  0.95518  0.29564  1.0000
  C   C1782     1.0  0.51370  0.88537  0.03801  1.0000
  H   H3074     1.0  0.56242  0.94764  0.12411  1.0000
  C   C1783     1.0  0.63984  0.54251  0.01660  1.0000
  C   C1784     1.0  0.48963  0.73060  0.00631  1.0000
  S   S518      1.0  0.71195  0.95782  0.14872  1.0000
  C   C1785     1.0  0.72370  0.89492  0.06799  1.0000
  H   H3075     1.0  0.58797  0.61486  0.24139  1.0000
  C   C1786     1.0  0.48930  0.63968  0.98189  1.0000
  H   H3076     1.0  0.51372  0.93796  0.15516  1.0000
  N   N134      1.0  0.72699  0.76619  0.04577  1.0000
  H   H3077     1.0  0.58064  0.62995  0.27227  1.0000
  H   H3078     1.0  0.63665  0.89390  0.98143  1.0000
  H   H3079     1.0  0.64929  0.51111  0.02877  1.0000
  H   H3080     1.0  0.62374  0.90669  0.00111  1.0000
  C   C1787     1.0  0.66091  0.86542  0.00585  1.0000
  H   H3081     1.0  0.69683  0.90525  0.08750  1.0000
  H   H3082     1.0  0.52923  0.96904  0.16113  1.0000
  C   C1788     1.0  0.51919  0.51912  0.23680  1.0000
  H   H3083     1.0  0.67930  0.89542  0.00395  1.0000
  H   H3084     1.0  0.48868  0.70550  0.03186  1.0000
  S   S519      1.0  0.50383  0.64009  0.01554  1.0000
  H   H3085     1.0  0.49766  0.88449  0.00324  1.0000
  S   S520      1.0  0.52618  0.84054  0.99575  1.0000
  H   H3086     1.0  0.50659  0.52851  0.22998  1.0000
  C   C1789     1.0  0.49833  0.79323  0.00173  1.0000
  H   H3087     1.0  0.50381  0.69090  0.00599  1.0000
  H   H3088     1.0  0.73647  0.91994  0.16378  1.0000
  H   H3089     1.0  0.65220  0.54486  0.02337  1.0000
  H   H3090     1.0  0.54043  0.65588  0.24098  1.0000
  H   H3091     1.0  0.56722  0.63197  0.30378  1.0000
  C   C1790     1.0  0.73148  0.74380  0.05245  1.0000
  C   C1791     1.0  0.49225  0.72087  0.02796  1.0000
  H   H3092     1.0  0.54525  0.96064  0.19512  1.0000
  H   H3093     1.0  0.49886  0.59035  0.02360  1.0000
  H   H3094     1.0  0.53619  0.48510  0.25951  1.0000
  C   C1792     1.0  0.50050  0.70006  0.99147  1.0000
  C   C1793     1.0  0.51474  0.52130  0.25907  1.0000
  C   C1794     1.0  0.48731  0.87324  0.11519  1.0000
  H   H3095     1.0  0.71847  0.87479  0.12510  1.0000
  C   C1795     1.0  0.54045  0.48672  0.24294  1.0000
  H   H3096     1.0  0.52946  0.96959  0.27115  1.0000
  C   C1796     1.0  0.55716  0.97915  0.12387  1.0000
  H   H3097     1.0  0.72463  0.73968  0.06841  1.0000
  H   H3098     1.0  0.53431  0.58633  0.27772  1.0000
  C   C1797     1.0  0.63228  0.89192  0.99800  1.0000
  H   H3099     1.0  0.72667  0.77332  0.00157  1.0000
  C   C1798     1.0  0.62382  0.49102  0.02079  1.0000
  H   H3100     1.0  0.57479  0.58258  0.99007  1.0000
  H   H3101     1.0  0.49419  0.63408  0.12426  1.0000
  C   C1799     1.0  0.53075  0.74061  0.99335  1.0000
  C   C1800     1.0  0.50293  0.86717  0.04208  1.0000
  C   C1801     1.0  0.50968  0.98259  0.29722  1.0000
  H   H3102     1.0  0.56084  0.98089  0.10729  1.0000
  H   H3103     1.0  0.61034  0.87612  0.02018  1.0000
  C   C1802     1.0  0.51549  0.51064  0.19655  1.0000
  H   H3104     1.0  0.54060  0.58799  0.30146  1.0000
  H   H3105     1.0  0.72249  0.88422  0.15366  1.0000
  H   H3106     1.0  0.54710  0.73857  0.99292  1.0000
  H   H3107     1.0  0.52299  0.51035  0.18079  1.0000
  H   H3108     1.0  0.66321  0.48675  0.99911  1.0000
  C   C1803     1.0  0.72980  0.90617  0.16709  1.0000
  C   C1804     1.0  0.72993  0.89749  0.14817  1.0000
  H   H3109     1.0  0.54073  0.98274  0.12789  1.0000
  C   C1805     1.0  0.66566  0.86068  0.98428  1.0000
  C   C1806     1.0  0.48764  0.63786  0.29115  1.0000
  H   H3110     1.0  0.66834  0.90121  0.98222  1.0000
  C   C1807     1.0  0.60899  0.48856  0.04064  1.0000
  H   H3111     1.0  0.73648  0.85908  0.11042  1.0000
  H   H3112     1.0  0.65522  0.85137  0.98219  1.0000
  C   C1808     1.0  0.48888  0.96801  0.27974  1.0000
  H   H3113     1.0  0.63855  0.52679  0.98150  1.0000
  H   H3114     1.0  0.68177  0.50270  0.54935  1.0000
  C   C1809     1.0  0.52507  0.78765  0.36832  1.0000
  H   H3115     1.0  0.67840  0.78271  0.48120  1.0000
  H   H3116     1.0  0.71183  0.89693  0.44821  1.0000
  H   H3117     1.0  0.64720  0.74525  0.45809  1.0000
  H   H3118     1.0  0.50281  0.79701  0.56451  1.0000
  S   S521      1.0  0.52408  0.70906  0.59390  1.0000
  H   H3119     1.0  0.70325  0.73271  0.45984  1.0000
  H   H3120     1.0  0.66992  0.75281  0.50091  1.0000
  H   H3121     1.0  0.54548  0.75788  0.34578  1.0000
  C   C1810     1.0  0.64187  0.76522  0.49090  1.0000
  Fe  Fe269     1.0  0.57103  0.73534  0.48321  1.0000
  S   S522      1.0  0.58131  0.70354  0.47837  1.0000
  S   S523      1.0  0.54143  0.74554  0.50188  1.0000
  Fe  Fe270     1.0  0.60554  0.75050  0.45348  1.0000
  S   S524      1.0  0.61842  0.71993  0.44585  1.0000
  S   S525      1.0  0.62248  0.77521  0.43647  1.0000
  Fe  Fe271     1.0  0.58686  0.71692  0.44579  1.0000
  S   S526      1.0  0.58037  0.70297  0.42143  1.0000
  Fe  Fe272     1.0  0.61210  0.70903  0.47880  1.0000
  S   S527      1.0  0.63392  0.68641  0.49593  1.0000
  S   S528      1.0  0.57452  0.74846  0.45037  1.0000
  S   S529      1.0  0.60121  0.73986  0.48674  1.0000
  H   H3122     1.0  0.68667  0.71994  0.44132  1.0000
  H   H3123     1.0  0.62764  0.92182  0.63619  1.0000
  S   S530      1.0  0.72482  0.57929  0.47467  1.0000
  H   H3124     1.0  0.65705  0.72182  0.47072  1.0000
  C   C1811     1.0  0.51216  0.78588  0.55552  1.0000
  S   S531      1.0  0.71518  0.63771  0.45613  1.0000
  H   H3125     1.0  0.69987  0.50581  0.51563  1.0000
  C   C1812     1.0  0.72916  0.51706  0.57993  1.0000
  H   H3126     1.0  0.63567  0.95186  0.44560  1.0000
  H   H3127     1.0  0.60128  0.96388  0.44617  1.0000
  H   H3128     1.0  0.57141  0.75795  0.54556  1.0000
  H   H3129     1.0  0.70952  0.51872  0.53015  1.0000
  Fe  Fe273     1.0  0.64179  0.87438  0.45733  1.0000
  S   S532      1.0  0.65613  0.87765  0.42498  1.0000
  S   S533      1.0  0.62026  0.85311  0.47241  1.0000
  Fe  Fe274     1.0  0.66068  0.90756  0.46502  1.0000
  S   S534      1.0  0.67579  0.91392  0.43313  1.0000
  S   S535      1.0  0.66947  0.92149  0.48787  1.0000
  Fe  Fe275     1.0  0.64693  0.91070  0.42528  1.0000
  S   S536      1.0  0.63559  0.93089  0.39836  1.0000
  Fe  Fe276     1.0  0.68364  0.88059  0.43587  1.0000
  S   S537      1.0  0.63092  0.90741  0.45712  1.0000
  S   S538      1.0  0.67008  0.87428  0.46825  1.0000
  C   C1813     1.0  0.72735  0.89048  0.44473  1.0000
  H   H3130     1.0  0.50412  0.78050  0.40646  1.0000
  H   H3131     1.0  0.68767  0.70230  0.47479  1.0000
  H   H3132     1.0  0.65556  0.73487  0.49954  1.0000
  C   C1814     1.0  0.60483  0.65342  0.47696  1.0000
  H   H3133     1.0  0.67424  0.74353  0.42890  1.0000
  H   H3134     1.0  0.57719  0.90828  0.43697  1.0000
  S   S539      1.0  0.49096  0.72645  0.64186  1.0000
  H   H3135     1.0  0.56536  0.87665  0.42231  1.0000
  H   H3136     1.0  0.60927  0.97019  0.46627  1.0000
  H   H3137     1.0  0.52064  0.79356  0.54179  1.0000
  H   H3138     1.0  0.51295  0.73990  0.37777  1.0000
  H   H3139     1.0  0.49844  0.63381  0.31917  1.0000
  C   C1815     1.0  0.58661  0.90126  0.39655  1.0000
  H   H3140     1.0  0.66229  0.77456  0.45407  1.0000
  S   S540      1.0  0.72242  0.51003  0.39220  1.0000
  C   C1816     1.0  0.61144  0.94511  0.40010  1.0000
  C   C1817     1.0  0.58578  0.89354  0.44239  1.0000
  H   H3141     1.0  0.49775  0.72997  0.56584  1.0000
  H   H3142     1.0  0.57486  0.78048  0.52837  1.0000
  H   H3143     1.0  0.60802  0.86310  0.38498  1.0000
  C   C1818     1.0  0.59796  0.94365  0.41806  1.0000
  H   H3144     1.0  0.56286  0.89915  0.38074  1.0000
  H   H3145     1.0  0.60212  0.93327  0.43105  1.0000
  C   C1819     1.0  0.61634  0.94770  0.61595  1.0000
  Fe  Fe277     1.0  0.73552  0.57349  0.50425  1.0000
  C   C1820     1.0  0.72564  0.53122  0.42055  1.0000
  C   C1821     1.0  0.58276  0.92893  0.62077  1.0000
  C   C1822     1.0  0.58391  0.94740  0.60804  1.0000
  C   C1823     1.0  0.60058  0.95681  0.60569  1.0000
  S   S541      1.0  0.56209  0.91720  0.62230  1.0000
  H   H3146     1.0  0.61248  0.89677  0.42100  1.0000
  H   H3147     1.0  0.57180  0.95448  0.59997  1.0000
  H   H3148     1.0  0.61124  0.87194  0.43315  1.0000
  C   C1824     1.0  0.65704  0.94469  0.49386  1.0000
  C   C1825     1.0  0.66713  0.95566  0.50218  1.0000
  S   S542      1.0  0.49423  0.71917  0.35351  1.0000
  H   H3149     1.0  0.60479  0.96854  0.54868  1.0000
  H   H3150     1.0  0.55248  0.75646  0.38037  1.0000
  C   C1826     1.0  0.63690  0.95138  0.49245  1.0000
  H   H3151     1.0  0.68270  0.95045  0.50337  1.0000
  H   H3152     1.0  0.57363  0.90897  0.40603  1.0000
  H   H3153     1.0  0.62898  0.94258  0.48653  1.0000
  H   H3154     1.0  0.53649  0.74271  0.39882  1.0000
  H   H3155     1.0  0.66271  0.72201  0.43484  1.0000
  H   H3156     1.0  0.70221  0.77111  0.46917  1.0000
  H   H3157     1.0  0.70359  0.49434  0.56045  1.0000
  C   C1827     1.0  0.60223  0.88561  0.42585  1.0000
  H   H3158     1.0  0.71825  0.53153  0.49576  1.0000
  H   H3159     1.0  0.49332  0.95517  0.63205  1.0000
  C   C1828     1.0  0.63685  0.97943  0.50876  1.0000
  H   H3160     1.0  0.63208  0.76301  0.48110  1.0000
  N   N135      1.0  0.59522  0.88155  0.40803  1.0000
  C   C1829     1.0  0.51824  0.75335  0.36799  1.0000
  C   C1830     1.0  0.57931  0.95625  0.41943  1.0000
  C   C1831     1.0  0.65642  0.67290  0.48464  1.0000
  C   C1832     1.0  0.66675  0.65660  0.49629  1.0000
  C   C1833     1.0  0.68472  0.64557  0.48778  1.0000
  C   C1834     1.0  0.69265  0.65097  0.46758  1.0000
  C   C1835     1.0  0.68241  0.66742  0.45599  1.0000
  C   C1836     1.0  0.66429  0.67821  0.46442  1.0000
  H   H3161     1.0  0.66080  0.65241  0.51197  1.0000
  H   H3162     1.0  0.69249  0.63297  0.49688  1.0000
  H   H3163     1.0  0.68848  0.67171  0.44036  1.0000
  H   H3164     1.0  0.65650  0.69070  0.45534  1.0000
  C   C1837     1.0  0.62167  0.79667  0.44682  1.0000
  C   C1838     1.0  0.60849  0.80052  0.46428  1.0000
  C   C1839     1.0  0.60835  0.81778  0.47214  1.0000
  C   C1840     1.0  0.62141  0.83120  0.46263  1.0000
  C   C1841     1.0  0.63464  0.82727  0.44522  1.0000
  C   C1842     1.0  0.63470  0.81011  0.43730  1.0000
  H   H3165     1.0  0.59834  0.79027  0.47167  1.0000
  H   H3166     1.0  0.59802  0.82080  0.48557  1.0000
  H   H3167     1.0  0.64484  0.83743  0.43785  1.0000
  H   H3168     1.0  0.64497  0.80717  0.42381  1.0000
  C   C1843     1.0  0.51445  0.71080  0.41598  1.0000
  C   C1844     1.0  0.51991  0.71582  0.43255  1.0000
  C   C1845     1.0  0.54008  0.71338  0.43436  1.0000
  C   C1846     1.0  0.55495  0.70563  0.41972  1.0000
  C   C1847     1.0  0.54951  0.70031  0.40326  1.0000
  C   C1848     1.0  0.52930  0.70300  0.40132  1.0000
  H   H3169     1.0  0.50850  0.72182  0.44396  1.0000
  H   H3170     1.0  0.54411  0.71748  0.44712  1.0000
  H   H3171     1.0  0.56095  0.69429  0.39190  1.0000
  H   H3172     1.0  0.52521  0.69901  0.38854  1.0000
  C   C1849     1.0  0.52839  0.71722  0.56783  1.0000
  C   C1850     1.0  0.54789  0.71417  0.55715  1.0000
  C   C1851     1.0  0.55197  0.72219  0.53668  1.0000
  C   C1852     1.0  0.53655  0.73338  0.52684  1.0000
  C   C1853     1.0  0.51696  0.73594  0.53738  1.0000
  C   C1854     1.0  0.51285  0.72774  0.55779  1.0000
  H   H3173     1.0  0.55993  0.70592  0.56483  1.0000
  H   H3174     1.0  0.56710  0.72011  0.52862  1.0000
  H   H3175     1.0  0.50499  0.74458  0.52981  1.0000
  C   C1855     1.0  0.60566  0.95203  0.55198  1.0000
  H   H3176     1.0  0.63307  0.76460  0.50625  1.0000
  H   H3177     1.0  0.70297  0.53282  0.56770  1.0000
  C   C1856     1.0  0.66073  0.74897  0.49124  1.0000
  C   C1857     1.0  0.64339  0.96413  0.43667  1.0000
  N   N136      1.0  0.67288  0.74578  0.47108  1.0000
  H   H3178     1.0  0.58316  0.98188  0.37172  1.0000
  H   H3179     1.0  0.62176  0.89448  0.37044  1.0000
  C   C1858     1.0  0.52571  0.76992  0.56806  1.0000
  H   H3180     1.0  0.54709  0.73371  0.36197  1.0000
  H   H3181     1.0  0.51568  0.76316  0.58114  1.0000
  H   H3182     1.0  0.60244  0.94752  0.53864  1.0000
  H   H3183     1.0  0.57552  0.88278  0.44938  1.0000
  H   H3184     1.0  0.50049  0.75588  0.40617  1.0000
  C   C1859     1.0  0.61532  0.92910  0.62850  1.0000
  C   C1860     1.0  0.58714  0.97111  0.38460  1.0000
  C   C1861     1.0  0.69268  0.73297  0.47426  1.0000
  H   H3185     1.0  0.58850  0.65718  0.47703  1.0000
  S   S543      1.0  0.71498  0.86555  0.42523  1.0000
  H   H3186     1.0  0.60120  0.97112  0.59597  1.0000
  C   C1862     1.0  0.57932  0.86855  0.41447  1.0000
  H   H3187     1.0  0.56912  0.95547  0.43353  1.0000
  H   H3188     1.0  0.53108  0.76686  0.42109  1.0000
  H   H3189     1.0  0.59725  0.91207  0.39272  1.0000
  C   C1863     1.0  0.67653  0.76543  0.45806  1.0000
  H   H3190     1.0  0.54459  0.63010  0.32110  1.0000
  C   C1864     1.0  0.66150  0.73561  0.46087  1.0000
  C   C1865     1.0  0.57398  0.97023  0.40281  1.0000
  C   C1866     1.0  0.53827  0.75813  0.39121  1.0000
  H   H3191     1.0  0.56813  0.76324  0.58803  1.0000
  C   C1867     1.0  0.50252  0.77052  0.39638  1.0000
  C   C1868     1.0  0.68693  0.77851  0.46689  1.0000
  N   N137      1.0  0.62571  0.64848  0.44189  1.0000
  C   C1869     1.0  0.62863  0.66064  0.42104  1.0000
  C   C1870     1.0  0.61276  0.63350  0.44164  1.0000
  C   C1871     1.0  0.64594  0.63750  0.44606  1.0000
  C   C1872     1.0  0.61637  0.66250  0.45663  1.0000
  C   C1873     1.0  0.64346  0.67544  0.41695  1.0000
  C   C1874     1.0  0.59202  0.64258  0.43592  1.0000
  C   C1875     1.0  0.64677  0.62422  0.46671  1.0000
  C   C1876     1.0  0.61284  0.87077  0.39539  1.0000
  H   H3192     1.0  0.63373  0.65065  0.40956  1.0000
  H   H3193     1.0  0.61429  0.66985  0.41746  1.0000
  H   H3194     1.0  0.61026  0.62343  0.45619  1.0000
  H   H3195     1.0  0.62042  0.62322  0.43089  1.0000
  H   H3196     1.0  0.65305  0.62797  0.43448  1.0000
  H   H3197     1.0  0.65618  0.64815  0.44514  1.0000
  H   H3198     1.0  0.62784  0.66988  0.45993  1.0000
  H   H3199     1.0  0.60552  0.67489  0.44986  1.0000
  H   H3200     1.0  0.64073  0.68477  0.42875  1.0000
  H   H3201     1.0  0.65915  0.66759  0.41516  1.0000
  H   H3202     1.0  0.64164  0.68578  0.40263  1.0000
  H   H3203     1.0  0.59312  0.64823  0.41959  1.0000
  H   H3204     1.0  0.58253  0.63077  0.43955  1.0000
  H   H3205     1.0  0.51399  0.76930  0.64001  1.0000
  H   H3206     1.0  0.64295  0.63336  0.47884  1.0000
  H   H3207     1.0  0.66239  0.61650  0.46719  1.0000
  H   H3208     1.0  0.63743  0.61240  0.46976  1.0000
  C   C1877     1.0  0.58515  0.84832  0.42793  1.0000
  H   H3209     1.0  0.58120  0.91389  0.36618  1.0000
  H   H3210     1.0  0.62141  0.85844  0.40495  1.0000
  N   N138      1.0  0.54211  0.77707  0.57450  1.0000
  C   C1878     1.0  0.55581  0.78598  0.55654  1.0000
  C   C1879     1.0  0.53300  0.79289  0.58734  1.0000
  C   C1880     1.0  0.55403  0.75929  0.58589  1.0000
  C   C1881     1.0  0.56376  0.77311  0.53987  1.0000
  C   C1882     1.0  0.54772  0.80048  0.59680  1.0000
  H   H3211     1.0  0.55876  0.80788  0.58534  1.0000
  H   H3212     1.0  0.54849  0.80085  0.54950  1.0000
  H   H3213     1.0  0.56921  0.78901  0.56117  1.0000
  H   H3214     1.0  0.52113  0.78770  0.59957  1.0000
  H   H3215     1.0  0.52528  0.80640  0.57843  1.0000
  H   H3216     1.0  0.55865  0.74678  0.57713  1.0000
  C   C1883     1.0  0.51530  0.79534  0.34939  1.0000
  H   H3217     1.0  0.53925  0.81196  0.60588  1.0000
  C   C1884     1.0  0.54341  0.75053  0.60682  1.0000
  H   H3218     1.0  0.59292  0.89564  0.45462  1.0000
  S   S544      1.0  0.71694  0.55735  0.53084  1.0000
  H   H3219     1.0  0.70706  0.70364  0.48747  1.0000
  N   N139      1.0  0.52086  0.76777  0.38056  1.0000
  H   H3220     1.0  0.68175  0.70991  0.49911  1.0000
  H   H3221     1.0  0.57247  0.83994  0.43156  1.0000
  H   H3222     1.0  0.68614  0.76295  0.44355  1.0000
  N   N140      1.0  0.63141  0.91973  0.55963  1.0000
  C   C1885     1.0  0.62670  0.94234  0.55648  1.0000
  C   C1886     1.0  0.65212  0.91386  0.56483  1.0000
  C   C1887     1.0  0.61663  0.91204  0.57725  1.0000
  C   C1888     1.0  0.62956  0.91282  0.54085  1.0000
  H   H3223     1.0  0.54167  0.78390  0.64622  1.0000
  C   C1889     1.0  0.66905  0.92082  0.54830  1.0000
  C   C1890     1.0  0.61860  0.88921  0.58378  1.0000
  C   C1891     1.0  0.64039  0.89152  0.53769  1.0000
  H   H3224     1.0  0.62877  0.94805  0.56976  1.0000
  H   H3225     1.0  0.63715  0.94894  0.54366  1.0000
  H   H3226     1.0  0.65636  0.89750  0.56907  1.0000
  H   H3227     1.0  0.65277  0.91991  0.57843  1.0000
  H   H3228     1.0  0.61743  0.91835  0.59054  1.0000
  H   H3229     1.0  0.60109  0.91697  0.57432  1.0000
  H   H3230     1.0  0.61357  0.91376  0.53992  1.0000
  H   H3231     1.0  0.63548  0.92317  0.52745  1.0000
  C   C1892     1.0  0.53711  0.74573  0.35369  1.0000
  H   H3232     1.0  0.54138  0.78725  0.36298  1.0000
  C   C1893     1.0  0.71907  0.53062  0.56572  1.0000
  H   H3233     1.0  0.49903  0.79580  0.35240  1.0000
  H   H3234     1.0  0.68364  0.91353  0.55276  1.0000
  H   H3235     1.0  0.66883  0.91671  0.53370  1.0000
  H   H3236     1.0  0.60722  0.88610  0.59734  1.0000
  H   H3237     1.0  0.63324  0.88214  0.58811  1.0000
  H   H3238     1.0  0.61522  0.88198  0.57223  1.0000
  H   H3239     1.0  0.63018  0.88377  0.53275  1.0000
  H   H3240     1.0  0.64559  0.88168  0.55095  1.0000
  H   H3241     1.0  0.65330  0.89239  0.52525  1.0000
  C   C1894     1.0  0.54200  0.76914  0.40703  1.0000
  C   C1895     1.0  0.59853  0.91979  0.63104  1.0000
  H   H3242     1.0  0.52057  0.79961  0.37775  1.0000
  H   H3243     1.0  0.55693  0.76259  0.41107  1.0000
  H   H3244     1.0  0.54187  0.78534  0.40144  1.0000
  C   C1896     1.0  0.62675  0.96872  0.50006  1.0000
  H   H3245     1.0  0.63344  0.89208  0.39206  1.0000
  H   H3246     1.0  0.64121  0.87396  0.37583  1.0000
  H   H3247     1.0  0.58713  0.88745  0.36997  1.0000
  H   H3248     1.0  0.58415  0.65488  0.44413  1.0000
  S   S545      1.0  0.65999  0.97709  0.55895  1.0000
  H   H3249     1.0  0.52191  0.78622  0.33747  1.0000
  H   H3250     1.0  0.53202  0.75765  0.55937  1.0000
  H   H3251     1.0  0.57491  0.86495  0.40117  1.0000
  H   H3252     1.0  0.55180  0.77176  0.53198  1.0000
  H   H3253     1.0  0.72932  0.51307  0.47965  1.0000
  C   C1897     1.0  0.65712  0.97310  0.50941  1.0000
  H   H3254     1.0  0.70969  0.53187  0.42491  1.0000
  S   S546      1.0  0.63734  0.95919  0.61370  1.0000
  H   H3255     1.0  0.61622  0.95970  0.36929  1.0000
  H   H3256     1.0  0.65495  0.95739  0.42519  1.0000
  C   C1898     1.0  0.62802  0.88376  0.38279  1.0000
  H   H3257     1.0  0.58839  0.85027  0.44239  1.0000
  N   N141      1.0  0.72993  0.49281  0.52096  1.0000
  H   H3258     1.0  0.72084  0.50898  0.59291  1.0000
  Fe  Fe278     1.0  0.49390  0.72079  0.61035  1.0000
  H   H3259     1.0  0.55554  0.78846  0.60709  1.0000
  C   C1899     1.0  0.62918  0.98111  0.42583  1.0000
  H   H3260     1.0  0.59808  0.83874  0.42037  1.0000
  C   C1900     1.0  0.60586  0.95859  0.38328  1.0000
  H   H3261     1.0  0.66509  0.98149  0.51577  1.0000
  C   C1901     1.0  0.57899  0.90018  0.37737  1.0000
  H   H3262     1.0  0.68831  0.79270  0.45617  1.0000
  H   H3263     1.0  0.64545  0.78056  0.48612  1.0000
  H   H3264     1.0  0.60906  0.63718  0.48175  1.0000
  H   H3265     1.0  0.52695  0.75403  0.60912  1.0000
  S   S547      1.0  0.48881  0.67146  0.33282  1.0000
  C   C1902     1.0  0.67220  0.73005  0.44040  1.0000
  H   H3266     1.0  0.70003  0.73942  0.48375  1.0000
  C   C1903     1.0  0.69194  0.71105  0.48451  1.0000
  H   H3267     1.0  0.53275  0.73906  0.34224  1.0000
  H   H3268     1.0  0.66871  0.93716  0.54632  1.0000
  C   C1904     1.0  0.57929  0.98356  0.46215  1.0000
  H   H3269     1.0  0.60745  0.66061  0.48895  1.0000
  H   H3270     1.0  0.59381  0.94907  0.56501  1.0000
  H   H3271     1.0  0.51793  0.81086  0.34315  1.0000
  H   H3272     1.0  0.50643  0.75981  0.35877  1.0000
  Fe  Fe279     1.0  0.73321  0.60966  0.47166  1.0000
  H   H3273     1.0  0.54894  0.75524  0.61883  1.0000
  H   H3274     1.0  0.49830  0.93536  0.34380  1.0000
  H   H3275     1.0  0.54737  0.73394  0.60915  1.0000
  C   C1905     1.0  0.70909  0.50346  0.52760  1.0000
  H   H3276     1.0  0.65137  0.96960  0.44627  1.0000
  H   H3277     1.0  0.49986  0.96758  0.35336  1.0000
  C   C1906     1.0  0.73574  0.52190  0.40423  1.0000
  H   H3278     1.0  0.50175  0.77835  0.55060  1.0000
  C   C1907     1.0  0.73300  0.87446  0.43419  1.0000
  C   C1908     1.0  0.73217  0.52165  0.49036  1.0000
  H   H3279     1.0  0.72811  0.54675  0.44389  1.0000
  H   H3280     1.0  0.62332  0.97437  0.41536  1.0000
  H   H3281     1.0  0.61093  0.97339  0.50003  1.0000
  C   C1909     1.0  0.73604  0.53964  0.43134  1.0000
  H   H3282     1.0  0.57401  0.97129  0.47380  1.0000
  C   C1910     1.0  0.60134  0.97675  0.45345  1.0000
  C   C1911     1.0  0.49198  0.79552  0.64408  1.0000
  C   C1912     1.0  0.51122  0.78437  0.64319  1.0000
  C   C1913     1.0  0.69704  0.49383  0.54722  1.0000
  H   H3283     1.0  0.59794  0.90535  0.64055  1.0000
  C   C1914     1.0  0.72976  0.54132  0.54900  1.0000
  S   S548      1.0  0.48898  0.71526  0.41391  1.0000
  C   C1915     1.0  0.52684  0.79264  0.64681  1.0000
  H   H3284     1.0  0.53344  0.83785  0.95262  1.0000
  H   H3285     1.0  0.50031  0.87994  0.76973  1.0000
  H   H3286     1.0  0.53030  0.96998  0.78922  1.0000
  C   C1916     1.0  0.59858  0.59055  0.89430  1.0000
  H   H3287     1.0  0.72714  0.61487  0.98083  1.0000
  H   H3288     1.0  0.54974  0.61945  0.94308  1.0000
  C   C1917     1.0  0.62459  0.57739  0.97232  1.0000
  H   H3289     1.0  0.64653  0.51778  0.66747  1.0000
  Fe  Fe280     1.0  0.59167  0.92426  0.83186  1.0000
  S   S549      1.0  0.58082  0.89944  0.82239  1.0000
  S   S550      1.0  0.62382  0.92957  0.82465  1.0000
  Fe  Fe281     1.0  0.54984  0.94359  0.84739  1.0000
  S   S551      1.0  0.53542  0.92087  0.83942  1.0000
  H   H3290     1.0  0.64437  0.94834  0.67505  1.0000
  Fe  Fe282     1.0  0.55982  0.89844  0.85197  1.0000
  S   S552      1.0  0.55431  0.86851  0.87100  1.0000
  Fe  Fe283     1.0  0.55701  0.92346  0.81059  1.0000
  S   S553      1.0  0.54265  0.92786  0.78296  1.0000
  S   S554      1.0  0.57275  0.92116  0.86239  1.0000
  S   S555      1.0  0.56944  0.94829  0.81751  1.0000
  S   S556      1.0  0.53938  0.90458  0.67902  1.0000
  S   S557      1.0  0.52801  0.85914  0.69528  1.0000
  Fe  Fe284     1.0  0.51417  0.88880  0.67959  1.0000
  H   H3291     1.0  0.58255  0.63754  0.90550  1.0000
  Fe  Fe285     1.0  0.55427  0.87445  0.69240  1.0000
  S   S558      1.0  0.57164  0.87095  0.71770  1.0000
  C   C1918     1.0  0.51043  0.82953  0.83396  1.0000
  Fe  Fe286     1.0  0.66044  0.51729  0.88233  1.0000
  H   H3292     1.0  0.50138  0.95726  0.81306  1.0000
  S   S559      1.0  0.65576  0.51539  0.85132  1.0000
  Fe  Fe287     1.0  0.64072  0.53181  0.92164  1.0000
  S   S560      1.0  0.66920  0.52468  0.93420  1.0000
  S   S561      1.0  0.61026  0.54251  0.93875  1.0000
  Fe  Fe288     1.0  0.68350  0.53764  0.90346  1.0000
  H   H3293     1.0  0.49240  0.63032  0.67335  1.0000
  C   C1919     1.0  0.55481  0.80161  0.96209  1.0000
  H   H3294     1.0  0.55860  0.80711  0.97459  1.0000
  S   S562      1.0  0.65438  0.54750  0.89184  1.0000
  S   S563      1.0  0.64466  0.50229  0.91123  1.0000
  H   H3295     1.0  0.61044  0.96126  0.69264  1.0000
  C   C1920     1.0  0.51801  0.50315  0.74824  1.0000
  S   S564      1.0  0.70951  0.88233  0.96953  1.0000
  H   H3296     1.0  0.60958  0.97517  0.81504  1.0000
  H   H3297     1.0  0.73215  0.58226  0.97510  1.0000
  H   H3298     1.0  0.55849  0.59856  0.89679  1.0000
  H   H3299     1.0  0.52616  0.82198  0.83132  1.0000
  H   H3300     1.0  0.71186  0.52833  0.93327  1.0000
  C   C1921     1.0  0.49713  0.96293  0.77500  1.0000
  H   H3301     1.0  0.50236  0.82706  0.82264  1.0000
  C   C1922     1.0  0.60894  0.55832  0.95609  1.0000
  C   C1923     1.0  0.62597  0.56478  0.95841  1.0000
  H   H3302     1.0  0.51534  0.85295  0.84767  1.0000
  H   H3303     1.0  0.64022  0.56008  0.94951  1.0000
  H   H3304     1.0  0.57224  0.62834  0.88855  1.0000
  H   H3305     1.0  0.50028  0.94725  0.78302  1.0000
  C   C1924     1.0  0.52962  0.86366  0.87892  1.0000
  C   C1925     1.0  0.52635  0.84412  0.88752  1.0000
  C   C1926     1.0  0.49047  0.85487  0.89019  1.0000
  H   H3306     1.0  0.50367  0.92333  0.65406  1.0000
  C   C1927     1.0  0.62673  0.48754  0.68467  1.0000
  C   C1928     1.0  0.51322  0.87883  0.87639  1.0000
  H   H3307     1.0  0.53893  0.83223  0.88938  1.0000
  H   H3308     1.0  0.56029  0.84040  0.96686  1.0000
  C   C1929     1.0  0.60026  0.91582  0.68695  1.0000
  H   H3309     1.0  0.51542  0.89399  0.87025  1.0000
  H   H3310     1.0  0.54840  0.64977  0.92325  1.0000
  H   H3311     1.0  0.51068  0.56291  0.83198  1.0000
  C   C1930     1.0  0.59193  0.83215  0.95765  1.0000
  C   C1931     1.0  0.59216  0.59873  0.91418  1.0000
  H   H3312     1.0  0.71148  0.93910  0.91443  1.0000
  H   H3313     1.0  0.60882  0.54511  0.71220  1.0000
  H   H3314     1.0  0.58151  0.80286  0.94049  1.0000
  H   H3315     1.0  0.55804  0.56114  0.75053  1.0000
  C   C1932     1.0  0.59559  0.82740  0.90992  1.0000
  C   C1933     1.0  0.50683  0.83975  0.89331  1.0000
  C   C1934     1.0  0.55041  0.91127  0.76555  1.0000
  C   C1935     1.0  0.56693  0.89602  0.76703  1.0000
  C   C1936     1.0  0.57314  0.88358  0.75239  1.0000
  C   C1937     1.0  0.56282  0.88619  0.73631  1.0000
  C   C1938     1.0  0.54609  0.90123  0.73507  1.0000
  C   C1939     1.0  0.54002  0.91382  0.74956  1.0000
  H   H3316     1.0  0.57512  0.89401  0.77922  1.0000
  H   H3317     1.0  0.58612  0.87198  0.75341  1.0000
  H   H3318     1.0  0.53792  0.90328  0.72285  1.0000
  H   H3319     1.0  0.52722  0.92558  0.74832  1.0000
  H   H3320     1.0  0.57098  0.85754  0.94781  1.0000
  H   H3321     1.0  0.50977  0.89544  0.78193  1.0000
  C   C1940     1.0  0.62560  0.94149  0.86010  1.0000
  C   C1941     1.0  0.63470  0.93999  0.84038  1.0000
  C   C1942     1.0  0.65264  0.94741  0.83275  1.0000
  C   C1943     1.0  0.66111  0.95676  0.84453  1.0000
  C   C1944     1.0  0.50796  0.97523  0.85896  1.0000
  H   H3322     1.0  0.61200  0.93553  0.86626  1.0000
  H   H3323     1.0  0.65988  0.94617  0.81756  1.0000
  H   H3324     1.0  0.67472  0.96274  0.83837  1.0000
  C   C1945     1.0  0.55953  0.49810  0.74588  1.0000
  C   C1946     1.0  0.54892  0.51646  0.73787  1.0000
  C   C1947     1.0  0.65163  0.95882  0.86404  1.0000
  C   C1948     1.0  0.57010  0.63004  0.90454  1.0000
  C   C1949     1.0  0.55611  0.57722  0.92468  1.0000
  H   H3325     1.0  0.51755  0.69780  0.96076  1.0000
  H   H3326     1.0  0.55669  0.52886  0.73105  1.0000
  H   H3327     1.0  0.49748  0.91210  0.82910  1.0000
  H   H3328     1.0  0.50424  0.50268  0.79970  1.0000
  C   C1950     1.0  0.52815  0.51906  0.73924  1.0000
  C   C1951     1.0  0.55647  0.59881  0.91313  1.0000
  H   H3329     1.0  0.50498  0.67756  0.97229  1.0000
  N   N142      1.0  0.59583  0.93724  0.69036  1.0000
  Fe  Fe289     1.0  0.54076  0.85270  0.66417  1.0000
  C   C1952     1.0  0.71076  0.91400  0.93872  1.0000
  H   H3330     1.0  0.62019  0.88763  0.69327  1.0000
  H   H3331     1.0  0.59066  0.57819  0.89416  1.0000
  C   C1953     1.0  0.49938  0.97333  0.80599  1.0000
  H   H3332     1.0  0.55146  0.65887  0.89703  1.0000
  H   H3333     1.0  0.60255  0.83526  0.89532  1.0000
  H   H3334     1.0  0.63789  0.58220  0.97421  1.0000
  C   C1954     1.0  0.49013  0.93318  0.65894  1.0000
  H   H3335     1.0  0.63496  0.54010  0.70348  1.0000
  H   H3336     1.0  0.51071  0.77132  0.68547  1.0000
  C   C1955     1.0  0.50526  0.75715  0.69280  1.0000
  C   C1956     1.0  0.72437  0.53626  0.92941  1.0000
  S   S565      1.0  0.72145  0.96492  0.86392  1.0000
  H   H3337     1.0  0.50444  0.82462  0.89964  1.0000
  S   S566      1.0  0.49192  0.50641  0.75155  1.0000
  H   H3338     1.0  0.54379  0.86963  0.91565  1.0000
  H   H3339     1.0  0.51225  0.96612  0.76781  1.0000
  H   H3340     1.0  0.49789  0.72219  0.70910  1.0000
  H   H3341     1.0  0.49933  0.74995  0.97037  1.0000
  H   H3342     1.0  0.59429  0.61503  0.94652  1.0000
  N   N143      1.0  0.53904  0.53354  0.79666  1.0000
  H   H3343     1.0  0.59660  0.81610  0.95678  1.0000
  C   C1957     1.0  0.52836  0.55176  0.80571  1.0000
  C   C1958     1.0  0.52463  0.52402  0.78960  1.0000
  C   C1959     1.0  0.56547  0.61195  0.93965  1.0000
  C   C1960     1.0  0.51904  0.54836  0.82808  1.0000
  H   H3344     1.0  0.51652  0.74472  0.68736  1.0000
  H   H3345     1.0  0.50346  0.82201  0.84874  1.0000
  H   H3346     1.0  0.51624  0.56012  0.79731  1.0000
  H   H3347     1.0  0.51605  0.53516  0.77917  1.0000
  H   H3348     1.0  0.53257  0.51258  0.78032  1.0000
  H   H3349     1.0  0.53950  0.57170  0.76912  1.0000
  H   H3350     1.0  0.60585  0.82587  0.92061  1.0000
  C   C1961     1.0  0.64399  0.49566  0.82636  1.0000
  H   H3351     1.0  0.56134  0.52645  0.81590  1.0000
  H   H3352     1.0  0.54097  0.60688  0.91657  1.0000
  H   H3353     1.0  0.59420  0.49043  0.69541  1.0000
  H   H3354     1.0  0.50455  0.75587  0.70914  1.0000
  C   C1962     1.0  0.52053  0.97877  0.80026  1.0000
  C   C1963     1.0  0.54565  0.55772  0.76293  1.0000
  N   N144      1.0  0.56395  0.83295  0.93709  1.0000
  C   C1964     1.0  0.54207  0.84137  0.93739  1.0000
  C   C1965     1.0  0.56579  0.81044  0.94149  1.0000
  C   C1966     1.0  0.57488  0.83956  0.91632  1.0000
  C   C1967     1.0  0.57098  0.84119  0.95255  1.0000
  C   C1968     1.0  0.73333  0.62777  0.97133  1.0000
  C   C1969     1.0  0.52876  0.48451  0.75540  1.0000
  H   H3355     1.0  0.57291  0.62400  0.96331  1.0000
  C   C1970     1.0  0.57872  0.62316  0.94726  1.0000
  H   H3356     1.0  0.53569  0.83431  0.92755  1.0000
  H   H3357     1.0  0.64921  0.50720  0.81453  1.0000
  H   H3358     1.0  0.50824  0.53791  0.83168  1.0000
  H   H3359     1.0  0.56008  0.80518  0.92986  1.0000
  H   H3360     1.0  0.56595  0.83899  0.90483  1.0000
  C   C1971     1.0  0.50858  0.85194  0.83476  1.0000
  H   H3361     1.0  0.61326  0.52644  0.68514  1.0000
  H   H3362     1.0  0.56634  0.54525  0.78337  1.0000
  H   H3363     1.0  0.62653  0.95439  0.65875  1.0000
  H   H3364     1.0  0.51262  0.73051  0.95774  1.0000
  C   C1972     1.0  0.72099  0.90135  0.95329  1.0000
  H   H3365     1.0  0.56977  0.48988  0.81604  1.0000
  S   S567      1.0  0.54362  0.82202  0.65530  1.0000
  H   H3366     1.0  0.57680  0.93586  0.74188  1.0000
  C   C1973     1.0  0.50414  0.82323  0.65222  1.0000
  H   H3367     1.0  0.52559  0.89424  0.80796  1.0000
  H   H3368     1.0  0.49528  0.52599  0.80887  1.0000
  C   C1974     1.0  0.63087  0.94388  0.67215  1.0000
  C   C1975     1.0  0.63390  0.95106  0.87177  1.0000
  C   C1976     1.0  0.55059  0.64509  0.90844  1.0000
  N   N145      1.0  0.51729  0.86471  0.81591  1.0000
  C   C1977     1.0  0.53864  0.85602  0.80866  1.0000
  H   H3369     1.0  0.56397  0.98249  0.87967  1.0000
  H   H3370     1.0  0.57055  0.56953  0.92903  1.0000
  Fe  Fe290     1.0  0.69086  0.98145  0.87425  1.0000
  C   C1978     1.0  0.55292  0.85219  0.82398  1.0000
  N   N146      1.0  0.57106  0.60984  0.91790  1.0000
  H   H3371     1.0  0.66588  0.87392  0.97226  1.0000
  H   H3372     1.0  0.56595  0.59701  0.94933  1.0000
  H   H3373     1.0  0.53960  0.84179  0.80311  1.0000
  H   H3374     1.0  0.54528  0.86623  0.79552  1.0000
  N   N147      1.0  0.63433  0.50062  0.69548  1.0000
  C   C1979     1.0  0.49816  0.95905  0.86077  1.0000
  H   H3375     1.0  0.59497  0.58599  0.92642  1.0000
  C   C1980     1.0  0.51676  0.88522  0.82047  1.0000
  H   H3376     1.0  0.52407  0.88401  0.83365  1.0000
  H   H3377     1.0  0.59195  0.83296  0.97355  1.0000
  H   H3378     1.0  0.54818  0.84185  0.83783  1.0000
  H   H3379     1.0  0.56791  0.84518  0.81714  1.0000
  H   H3380     1.0  0.55480  0.86635  0.82792  1.0000
  H   H3381     1.0  0.62649  0.95253  0.88686  1.0000
  H   H3382     1.0  0.65764  0.51917  0.68761  1.0000
  C   C1981     1.0  0.58101  0.93936  0.70944  1.0000
  C   C1982     1.0  0.65159  0.50864  0.68134  1.0000
  H   H3383     1.0  0.53061  0.54328  0.83781  1.0000
  H   H3384     1.0  0.57857  0.63872  0.93915  1.0000
  C   C1983     1.0  0.48863  0.63193  0.96487  1.0000
  H   H3385     1.0  0.56103  0.52788  0.77033  1.0000
  H   H3386     1.0  0.52892  0.59478  0.96680  1.0000
  H   H3387     1.0  0.53876  0.56247  0.80441  1.0000
  H   H3388     1.0  0.61473  0.58410  0.89268  1.0000
  H   H3389     1.0  0.57231  0.95484  0.70862  1.0000
  C   C1984     1.0  0.49378  0.87439  0.88175  1.0000
  Fe  Fe291     1.0  0.55159  0.89478  0.64932  1.0000
  H   H3390     1.0  0.54462  0.57713  0.93842  1.0000
  H   H3391     1.0  0.52739  0.67976  0.98054  1.0000
  C   C1985     1.0  0.61270  0.90042  0.70103  1.0000
  H   H3392     1.0  0.53424  0.55370  0.75607  1.0000
  H   H3393     1.0  0.62651  0.48710  0.72651  1.0000
  H   H3394     1.0  0.50130  0.83823  0.65565  1.0000
  C   C1986     1.0  0.53671  0.86427  0.93115  1.0000
  C   C1987     1.0  0.52341  0.81214  0.65126  1.0000
  H   H3395     1.0  0.49141  0.98186  0.81807  1.0000
  H   H3396     1.0  0.59645  0.60243  0.88114  1.0000
  S   S568      1.0  0.70722  0.55730  0.89708  1.0000
  H   H3397     1.0  0.69603  0.91194  0.93760  1.0000
  S   S569      1.0  0.69068  0.50874  0.89156  1.0000
  C   C1988     1.0  0.59046  0.56481  0.96747  1.0000
  S   S570      1.0  0.56865  0.86555  0.66249  1.0000
  H   H3398     1.0  0.60747  0.91459  0.67127  1.0000
  H   H3399     1.0  0.58361  0.96622  0.67469  1.0000
  H   H3400     1.0  0.52033  0.86827  0.93147  1.0000
  H   H3401     1.0  0.49058  0.97453  0.74457  1.0000
  H   H3402     1.0  0.58616  0.90991  0.68844  1.0000
  H   H3403     1.0  0.72086  0.63781  0.96463  1.0000
  H   H3404     1.0  0.54038  0.87248  0.94174  1.0000
  S   S571      1.0  0.50083  0.60458  0.93941  1.0000
  H   H3405     1.0  0.59796  0.94693  0.72983  1.0000
  H   H3406     1.0  0.56902  0.93032  0.66554  1.0000
  H   H3407     1.0  0.62496  0.90604  0.70490  1.0000
  H   H3408     1.0  0.65702  0.51114  0.71931  1.0000
  C   C1989     1.0  0.61777  0.51788  0.69947  1.0000
  C   C1990     1.0  0.50282  0.61563  0.95946  1.0000
  C   C1991     1.0  0.50874  0.51461  0.80557  1.0000
  C   C1992     1.0  0.55069  0.51893  0.81124  1.0000
  H   H3409     1.0  0.50667  0.85066  0.79577  1.0000
  C   C1993     1.0  0.58461  0.98113  0.85102  1.0000
  C   C1994     1.0  0.58942  0.93522  0.72917  1.0000
  H   H3410     1.0  0.62160  0.93758  0.70378  1.0000
  C   C1995     1.0  0.56277  0.49981  0.80366  1.0000
  C   C1996     1.0  0.61438  0.94524  0.69074  1.0000
  C   C1997     1.0  0.62194  0.53292  0.71107  1.0000
  C   C1998     1.0  0.71948  0.92940  0.92561  1.0000
  C   C1999     1.0  0.55391  0.54038  0.77862  1.0000
  H   H3411     1.0  0.52708  0.75260  0.98072  1.0000
  H   H3412     1.0  0.57723  0.55982  0.96570  1.0000
  H   H3413     1.0  0.55926  0.78507  0.96469  1.0000
  Fe  Fe292     1.0  0.67431  0.49645  0.92143  1.0000
  H   H3414     1.0  0.51412  0.50701  0.81959  1.0000
  C   C2000     1.0  0.58639  0.95011  0.67318  1.0000
  H   H3415     1.0  0.55253  0.56792  0.91498  1.0000
  H   H3416     1.0  0.60307  0.60842  0.91440  1.0000
  H   H3417     1.0  0.60308  0.89451  0.71493  1.0000
  H   H3418     1.0  0.57683  0.85548  0.91423  1.0000
  H   H3419     1.0  0.54096  0.51376  0.82535  1.0000
  H   H3420     1.0  0.59867  0.92026  0.73183  1.0000
  C   C2001     1.0  0.72572  0.55112  0.91240  1.0000
  H   H3421     1.0  0.50598  0.94392  0.86396  1.0000
  H   H3422     1.0  0.67029  0.48560  0.72123  1.0000
  H   H3423     1.0  0.63534  0.92846  0.66877  1.0000
  H   H3424     1.0  0.62357  0.52584  0.72669  1.0000
  H   H3425     1.0  0.51995  0.53338  0.73341  1.0000
  H   H3426     1.0  0.56975  0.92941  0.71153  1.0000
  Fe  Fe293     1.0  0.72981  0.97225  0.89100  1.0000
  H   H3427     1.0  0.53727  0.63929  0.90706  1.0000
  C   C2002     1.0  0.56661  0.94506  0.67037  1.0000
  H   H3428     1.0  0.53842  0.80465  0.96270  1.0000
  S   S572      1.0  0.58504  0.49605  0.74631  1.0000
  C   C2003     1.0  0.49828  0.83115  0.97812  1.0000
  H   H3429     1.0  0.59649  0.94915  0.65866  1.0000
  S   S573      1.0  0.53356  0.97125  0.85954  1.0000
  H   H3430     1.0  0.48794  0.75312  0.67183  1.0000
  C   C2004     1.0  0.51813  0.60759  0.97070  1.0000
  H   H3431     1.0  0.59435  0.81238  0.90743  1.0000
  H   H3432     1.0  0.60419  0.51247  0.70848  1.0000
  H   H3433     1.0  0.60333  0.84069  0.94810  1.0000
  H   H3434     1.0  0.55325  0.49113  0.79899  1.0000
  C   C2005     1.0  0.64545  0.49598  0.84624  1.0000
  C   C2006     1.0  0.50520  0.86570  0.79983  1.0000
  C   C2007     1.0  0.49585  0.89777  0.82521  1.0000
  C   C2008     1.0  0.51083  0.87976  0.77994  1.0000
  H   H3435     1.0  0.57519  0.50308  0.79129  1.0000
  C   C2009     1.0  0.65548  0.49524  0.72399  1.0000
  C   C2010     1.0  0.50005  0.73381  0.97005  1.0000
  C   C2011     1.0  0.51347  0.68828  0.97533  1.0000
  H   H3436     1.0  0.65105  0.49296  0.74054  1.0000
  H   H3437     1.0  0.48825  0.71762  0.68884  1.0000
  C   C2012     1.0  0.66937  0.49273  0.67463  1.0000
  C   C2013     1.0  0.58015  0.97840  0.87410  1.0000
  H   H3438     1.0  0.62354  0.49579  0.66974  1.0000
  H   H3439     1.0  0.55501  0.94548  0.68395  1.0000
  H   H3440     1.0  0.56065  0.95623  0.65811  1.0000
  H   H3441     1.0  0.52595  0.87439  0.77207  1.0000
  H   H3442     1.0  0.57412  0.97356  0.84627  1.0000
  H   H3443     1.0  0.49091  0.94801  0.75272  1.0000
  S   S574      1.0  0.66018  0.97246  0.87875  1.0000
  H   H3444     1.0  0.66599  0.48511  0.66335  1.0000
  H   H3445     1.0  0.59926  0.97198  0.84700  1.0000
  H   H3446     1.0  0.58433  0.96232  0.88034  1.0000
  H   H3447     1.0  0.49238  0.85750  0.83909  1.0000
  H   H3448     1.0  0.49808  0.84588  0.96905  1.0000
  H   H3449     1.0  0.53558  0.71503  0.97878  1.0000
  S   S575      1.0  0.48853  0.56441  0.75548  1.0000
  H   H3450     1.0  0.68240  0.50009  0.66727  1.0000
  H   H3451     1.0  0.66896  0.50177  0.97535  1.0000
  H   H3452     1.0  0.52755  0.97508  0.81393  1.0000
  C   C2014     1.0  0.64001  0.48828  0.71481  1.0000
  H   H3453     1.0  0.48899  0.87012  0.80534  1.0000
  H   H3454     1.0  0.48799  0.90172  0.81216  1.0000
  N   N148      1.0  0.48732  0.97724  0.78928  1.0000
  H   H3455     1.0  0.60135  0.51666  0.98090  1.0000
  C   C2015     1.0  0.58902  0.57771  0.98121  1.0000
  S   S576      1.0  0.52475  0.88139  0.64867  1.0000
  C   C2016     1.0  0.48852  0.81493  0.64868  1.0000
  Fe  Fe294     1.0  0.81100  0.22845  0.01802  1.0000
  H   H3456     1.0  0.91861  0.01214  0.29957  1.0000
  S   S577      1.0  0.79525  0.20181  0.01863  1.0000
  Fe  Fe295     1.0  0.84607  0.23632  0.03576  1.0000
  S   S578      1.0  0.84568  0.26746  0.01821  1.0000
  S   S579      1.0  0.86398  0.22263  0.06079  1.0000
  Fe  Fe296     1.0  0.81244  0.27060  0.02691  1.0000
  S   S580      1.0  0.79378  0.29730  0.04043  1.0000
  H   H3457     1.0  0.77619  0.42205  0.01519  1.0000
  S   S581      1.0  0.81286  0.23998  0.04579  1.0000
  S   S582      1.0  0.84453  0.22251  0.00947  1.0000
  S   S583      1.0  0.94706  0.24921  0.12613  1.0000
  H   H3458     1.0  0.78147  0.16431  0.02353  1.0000
  Fe  Fe297     1.0  0.96016  0.23741  0.09748  1.0000
  S   S584      1.0  0.94652  0.24401  0.06899  1.0000
  H   H3459     1.0  0.81027  0.16744  0.98256  1.0000
  Fe  Fe298     1.0  0.96275  0.09983  0.24335  1.0000
  C   C2017     1.0  0.95250  0.47946  0.30000  1.0000
  H   H3460     1.0  0.77861  0.99621  0.19822  1.0000
  Fe  Fe299     1.0  0.92776  0.07843  0.26300  1.0000
  S   S585      1.0  0.93744  0.07065  0.29309  1.0000
  S   S586      1.0  0.89976  0.07041  0.25691  1.0000
  Fe  Fe300     1.0  0.94474  0.10172  0.28707  1.0000
  H   H3461     1.0  0.92897  0.33884  0.20303  1.0000
  Fe  Fe301     1.0  0.96798  0.06231  0.27545  1.0000
  H   H3462     1.0  0.91775  0.36336  0.20803  1.0000
  S   S587      1.0  0.93192  0.11057  0.25846  1.0000
  S   S588      1.0  0.95781  0.06820  0.24570  1.0000
  H   H3463     1.0  0.85922  0.33429  0.08788  1.0000
  Fe  Fe302     1.0  0.81655  0.39358  0.06922  1.0000
  S   S589      1.0  0.80407  0.39246  0.10203  1.0000
  S   S590      1.0  0.83406  0.36726  0.05458  1.0000
  Fe  Fe303     1.0  0.79925  0.43794  0.05941  1.0000
  S   S591      1.0  0.78520  0.43996  0.09123  1.0000
  S   S592      1.0  0.79108  0.46502  0.03675  1.0000
  Fe  Fe304     1.0  0.81441  0.42229  0.09891  1.0000
  S   S593      1.0  0.83383  0.42896  0.11935  1.0000
  Fe  Fe305     1.0  0.77627  0.41046  0.09100  1.0000
  H   H3464     1.0  0.93746  0.34981  0.22081  1.0000
  S   S594      1.0  0.82897  0.42191  0.06670  1.0000
  S   S595      1.0  0.78838  0.40992  0.05865  1.0000
  H   H3465     1.0  0.75958  0.03968  0.13980  1.0000
  H   H3466     1.0  0.87299  0.26468  0.11685  1.0000
  H   H3467     1.0  0.97147  0.17209  0.22083  1.0000
  H   H3468     1.0  0.94785  0.43743  0.20282  1.0000
  H   H3469     1.0  0.95659  0.38226  0.14964  1.0000
  C   C2018     1.0  0.75453  0.05823  0.99280  1.0000
  C   C2019     1.0  0.85357  0.30613  0.08276  1.0000
  Fe  Fe306     1.0  0.84115  0.25407  0.99273  1.0000
  C   C2020     1.0  0.85691  0.46738  0.14275  1.0000
  C   C2021     1.0  0.85405  0.45062  0.13554  1.0000
  C   C2022     1.0  0.83627  0.45044  0.12878  1.0000
  C   C2023     1.0  0.82115  0.46718  0.12978  1.0000
  H   H3470     1.0  0.87078  0.46727  0.14765  1.0000
  H   H3471     1.0  0.86583  0.43774  0.13501  1.0000
  C   C2024     1.0  0.74054  0.31488  0.02170  1.0000
  C   C2025     1.0  0.95213  0.46562  0.15617  1.0000
  C   C2026     1.0  0.94519  0.46015  0.17661  1.0000
  C   C2027     1.0  0.73833  0.29044  0.05307  1.0000
  S   S596      1.0  0.93975  0.12451  0.30780  1.0000
  H   H3472     1.0  0.93422  0.47050  0.18460  1.0000
  H   H3473     1.0  0.97476  0.15141  0.29264  1.0000
  Fe  Fe307     1.0  0.96315  0.22004  0.14139  1.0000
  H   H3474     1.0  0.87217  0.01597  0.24230  1.0000
  H   H3475     1.0  0.84685  0.30486  0.09891  1.0000
  C   C2028     1.0  0.79039  0.99081  0.12092  1.0000
  C   C2029     1.0  0.90317  0.00689  0.24505  1.0000
  C   C2030     1.0  0.88529  0.02050  0.24498  1.0000
  C   C2031     1.0  0.88441  0.04008  0.24840  1.0000
  C   C2032     1.0  0.90130  0.04600  0.25218  1.0000
  C   C2033     1.0  0.91913  0.03236  0.25221  1.0000
  C   C2034     1.0  0.92009  0.01296  0.24848  1.0000
  H   H3476     1.0  0.75604  0.15320  0.00953  1.0000
  H   H3477     1.0  0.87056  0.05058  0.24834  1.0000
  H   H3478     1.0  0.93218  0.03669  0.25523  1.0000
  H   H3479     1.0  0.75480  0.28775  0.05240  1.0000
  C   C2035     1.0  0.95528  0.17888  0.18143  1.0000
  H   H3480     1.0  0.93588  0.17517  0.26960  1.0000
  H   H3481     1.0  0.74063  0.25899  0.05201  1.0000
  C   C2036     1.0  0.96892  0.14025  0.20188  1.0000
  C   C2037     1.0  0.94967  0.15022  0.20797  1.0000
  C   C2038     1.0  0.94292  0.16944  0.19780  1.0000
  C   C2039     1.0  0.88132  0.27678  0.10864  1.0000
  H   H3482     1.0  0.87422  0.98816  0.28065  1.0000
  H   H3483     1.0  0.94003  0.14324  0.22059  1.0000
  H   H3484     1.0  0.89005  0.26377  0.08179  1.0000
  C   C2040     1.0  0.88748  0.22779  0.06241  1.0000
  C   C2041     1.0  0.89483  0.22128  0.08057  1.0000
  C   C2042     1.0  0.91305  0.22583  0.08278  1.0000
  C   C2043     1.0  0.92415  0.23684  0.06674  1.0000
  C   C2044     1.0  0.91702  0.24297  0.04844  1.0000
  C   C2045     1.0  0.89873  0.23854  0.04628  1.0000
  H   H3485     1.0  0.88626  0.21285  0.09308  1.0000
  H   H3486     1.0  0.91843  0.22097  0.09691  1.0000
  H   H3487     1.0  0.92559  0.25138  0.03594  1.0000
  H   H3488     1.0  0.89332  0.24348  0.03218  1.0000
  C   C2046     1.0  0.80498  0.31695  0.04400  1.0000
  C   C2047     1.0  0.79475  0.32975  0.05754  1.0000
  C   C2048     1.0  0.80323  0.34555  0.06054  1.0000
  C   C2049     1.0  0.82217  0.34857  0.05018  1.0000
  C   C2050     1.0  0.83239  0.33579  0.03666  1.0000
  C   C2051     1.0  0.82378  0.32018  0.03345  1.0000
  H   H3489     1.0  0.78036  0.32730  0.06606  1.0000
  H   H3490     1.0  0.79528  0.35516  0.07114  1.0000
  H   H3491     1.0  0.84702  0.33803  0.02855  1.0000
  H   H3492     1.0  0.83169  0.31072  0.02273  1.0000
  C   C2052     1.0  0.75834  0.16860  0.00557  1.0000
  C   C2053     1.0  0.77278  0.17499  0.01353  1.0000
  C   C2054     1.0  0.77612  0.19497  0.00866  1.0000
  H   H3493     1.0  0.76212  0.02295  0.12267  1.0000
  H   H3494     1.0  0.74317  0.39356  0.15110  1.0000
  H   H3495     1.0  0.88506  0.23726  0.98145  1.0000
  H   H3496     1.0  0.75758  0.44296  0.14271  1.0000
  H   H3497     1.0  0.93917  0.35155  0.15597  1.0000
  H   H3498     1.0  0.85175  0.48086  0.28365  1.0000
  H   H3499     1.0  0.74070  0.33667  0.99407  1.0000
  H   H3500     1.0  0.77678  0.04283  0.11694  1.0000
  C   C2055     1.0  0.97441  0.16879  0.17518  1.0000
  C   C2056     1.0  0.97030  0.16785  0.28994  1.0000
  H   H3501     1.0  0.83746  0.99037  0.16027  1.0000
  H   H3502     1.0  0.79433  0.02801  0.14531  1.0000
  H   H3503     1.0  0.93458  0.12350  0.19301  1.0000
  C   C2057     1.0  0.76471  0.20852  0.99564  1.0000
  S   S597      1.0  0.97583  0.29369  0.12424  1.0000
  H   H3504     1.0  0.86494  0.45874  0.27456  1.0000
  H   H3505     1.0  0.73777  0.33578  0.08131  1.0000
  C   C2058     1.0  0.84551  0.47390  0.00537  1.0000
  C   C2059     1.0  0.85009  0.46845  0.27654  1.0000
  H   H3506     1.0  0.80726  0.46721  0.12499  1.0000
  C   C2060     1.0  0.94449  0.33567  0.16159  1.0000
  H   H3507     1.0  0.77715  0.98741  0.13235  1.0000
  S   S598      1.0  0.97607  0.09282  0.27157  1.0000
  H   H3508     1.0  0.83979  0.45913  0.28684  1.0000
  C   C2061     1.0  0.86519  0.46294  0.05623  1.0000
  C   C2062     1.0  0.88317  0.27869  0.08577  1.0000
  H   H3509     1.0  0.77161  0.40769  0.99861  1.0000
  S   S599      1.0  0.80758  0.25957  0.99992  1.0000
  H   H3510     1.0  0.90073  0.28419  0.04631  1.0000
  H   H3511     1.0  0.77911  0.00923  0.15388  1.0000
  H   H3512     1.0  0.96237  0.14161  0.27073  1.0000
  N   N149      1.0  0.86405  0.28612  0.07741  1.0000
  C   C2063     1.0  0.85035  0.27103  0.08648  1.0000
  C   C2064     1.0  0.86810  0.28687  0.05500  1.0000
  C   C2065     1.0  0.83084  0.27421  0.07788  1.0000
  C   C2066     1.0  0.88703  0.29481  0.04311  1.0000
  H   H3513     1.0  0.85823  0.25559  0.08478  1.0000
  H   H3514     1.0  0.86945  0.27163  0.05137  1.0000
  H   H3515     1.0  0.85535  0.29602  0.04816  1.0000
  H   H3516     1.0  0.84040  0.31173  0.07511  1.0000
  H   H3517     1.0  0.82228  0.26210  0.08566  1.0000
  H   H3518     1.0  0.82109  0.28860  0.08034  1.0000
  H   H3519     1.0  0.83365  0.27316  0.06175  1.0000
  H   H3520     1.0  0.88691  0.29615  0.02685  1.0000
  H   H3521     1.0  0.88798  0.30974  0.04579  1.0000
  H   H3522     1.0  0.81832  0.48235  0.22971  1.0000
  H   H3523     1.0  0.74404  0.41746  0.16847  1.0000
  H   H3524     1.0  0.97988  0.35339  0.20539  1.0000
  H   H3525     1.0  0.83730  0.99300  0.29540  1.0000
  H   H3526     1.0  0.76714  0.45997  0.00648  1.0000
  C   C2067     1.0  0.83035  0.46505  0.01876  1.0000
  H   H3527     1.0  0.86305  0.45000  0.05013  1.0000
  H   H3528     1.0  0.76498  0.06230  0.00092  1.0000
  C   C2068     1.0  0.76641  0.42205  0.00437  1.0000
  H   H3529     1.0  0.89465  0.28821  0.07899  1.0000
  C   C2069     1.0  0.74380  0.38639  0.07049  1.0000
  H   H3530     1.0  0.88141  0.31880  0.07955  1.0000
  H   H3531     1.0  0.75144  0.06078  0.05877  1.0000
  H   H3532     1.0  0.98679  0.46722  0.16917  1.0000
  H   H3533     1.0  0.73970  0.27417  0.02816  1.0000
  H   H3534     1.0  0.86098  0.46724  0.00556  1.0000
  H   H3535     1.0  0.83413  0.45150  0.02913  1.0000
  H   H3536     1.0  0.95420  0.17173  0.29606  1.0000
  H   H3537     1.0  0.87449  0.29111  0.11391  1.0000
  C   C2070     1.0  0.96035  0.15277  0.25710  1.0000
  H   H3538     1.0  0.75707  0.31024  0.02003  1.0000
  C   C2071     1.0  0.74564  0.44016  0.04140  1.0000
  H   H3539     1.0  0.75902  0.02741  0.00588  1.0000
  C   C2072     1.0  0.96144  0.33149  0.17417  1.0000
  H   H3540     1.0  0.95762  0.31945  0.18695  1.0000
  H   H3541     1.0  0.89652  0.27256  0.11262  1.0000
  S   S600      1.0  0.94644  0.20346  0.16978  1.0000
  H   H3542     1.0  0.74099  0.04272  0.02099  1.0000
  H   H3543     1.0  0.92809  0.17715  0.20270  1.0000
  C   C2073     1.0  0.74426  0.42315  0.01388  1.0000
  C   C2074     1.0  0.97462  0.43374  0.15639  1.0000
  H   H3544     1.0  0.94978  0.32821  0.14820  1.0000
  H   H3545     1.0  0.75124  0.48202  0.01428  1.0000
  H   H3546     1.0  0.95101  0.37521  0.19477  1.0000
  C   C2075     1.0  0.84465  0.47378  0.06515  1.0000
  H   H3547     1.0  0.98291  0.37282  0.17232  1.0000
  H   H3548     1.0  0.76128  0.44224  0.03599  1.0000
  H   H3549     1.0  0.75443  0.47814  0.98929  1.0000
  C   C2076     1.0  0.96655  0.45223  0.14600  1.0000
  H   H3550     1.0  0.86491  0.33145  0.06203  1.0000
  H   H3551     1.0  0.74286  0.07151  0.99036  1.0000
  H   H3552     1.0  0.75987  0.38372  0.06856  1.0000
  S   S601      1.0  0.74414  0.40581  0.10165  1.0000
  H   H3553     1.0  0.80283  0.02459  0.10039  1.0000
  H   H3554     1.0  0.74575  0.34610  0.01434  1.0000
  H   H3555     1.0  0.98152  0.38008  0.13688  1.0000
  C   C2077     1.0  0.94698  0.36270  0.18927  1.0000
  C   C2078     1.0  0.97505  0.17839  0.26791  1.0000
  H   H3556     1.0  0.87468  0.45670  0.06791  1.0000
  C   C2079     1.0  0.88675  0.01106  0.30139  1.0000
  C   C2080     1.0  0.93212  0.35282  0.20624  1.0000
  C   C2081     1.0  0.81523  0.99063  0.14217  1.0000
  C   C2082     1.0  0.90391  0.01764  0.30819  1.0000
  N   N150      1.0  0.80182  0.00359  0.12819  1.0000
  H   H3557     1.0  0.96745  0.33228  0.21179  1.0000
  H   H3558     1.0  0.89643  0.12038  0.20075  1.0000
  H   H3559     1.0  0.74926  0.00026  0.02496  1.0000
  C   C2083     1.0  0.83055  0.00491  0.09749  1.0000
  H   H3560     1.0  0.93158  0.32870  0.17016  1.0000
  C   C2084     1.0  0.77055  0.03142  0.12899  1.0000
  H   H3561     1.0  0.74285  0.40880  0.02438  1.0000
  H   H3562     1.0  0.74466  0.42994  0.13122  1.0000
  H   H3563     1.0  0.95676  0.19009  0.23512  1.0000
  H   H3564     1.0  0.97824  0.17372  0.29933  1.0000
  C   C2085     1.0  0.93843  0.16338  0.26026  1.0000
  C   C2086     1.0  0.86568  0.32340  0.07753  1.0000
  H   H3565     1.0  0.88892  0.01508  0.28485  1.0000
  C   C2087     1.0  0.97877  0.36102  0.16600  1.0000
  H   H3566     1.0  0.84864  0.01456  0.29245  1.0000
  H   H3567     1.0  0.90613  0.13281  0.21606  1.0000
  C   C2088     1.0  0.75029  0.20213  0.98767  1.0000
  H   H3568     1.0  0.74489  0.99160  0.00330  1.0000
  C   C2089     1.0  0.96546  0.10084  0.17051  1.0000
  C   C2090     1.0  0.74693  0.18214  0.99256  1.0000
  C   C2091     1.0  0.80815  0.48336  0.26884  1.0000
  C   C2092     1.0  0.97171  0.18056  0.23277  1.0000
  C   C2093     1.0  0.98117  0.14956  0.18536  1.0000
  H   H3569     1.0  0.81856  0.02801  0.11572  1.0000
  H   H3570     1.0  0.93848  0.37035  0.17719  1.0000
  H   H3571     1.0  0.83865  0.46344  0.07864  1.0000
  C   C2094     1.0  0.82687  0.00165  0.15197  1.0000
  H   H3572     1.0  0.87291  0.02108  0.30690  1.0000
  S   S602      1.0  0.74545  0.02369  0.08508  1.0000
  H   H3573     1.0  0.96210  0.14346  0.24531  1.0000
  H   H3574     1.0  0.82518  0.99991  0.08555  1.0000
  H   H3575     1.0  0.75561  0.32347  0.04968  1.0000
  H   H3576     1.0  0.90167  0.10787  0.22525  1.0000
  H   H3577     1.0  0.93397  0.00256  0.24855  1.0000
  S   S603      1.0  0.97436  0.20747  0.11274  1.0000
  H   H3578     1.0  0.78429  0.99900  0.10724  1.0000
  C   C2095     1.0  0.97045  0.37136  0.14677  1.0000
  S   S604      1.0  0.97888  0.40604  0.19038  1.0000
  H   H3579     1.0  0.81118  0.47897  0.28442  1.0000
  H   H3580     1.0  0.74902  0.42012  0.30655  1.0000
  C   C2096     1.0  0.78686  0.01773  0.14008  1.0000
  N   N151      1.0  0.97579  0.16635  0.25176  1.0000
  H   H3581     1.0  0.95057  0.46370  0.30530  1.0000
  H   H3582     1.0  0.84126  0.01524  0.09027  1.0000
  H   H3583     1.0  0.92874  0.15224  0.26809  1.0000
  Fe  Fe308     1.0  0.97575  0.26095  0.12304  1.0000
  H   H3584     1.0  0.74327  0.37279  0.04530  1.0000
  C   C2097     1.0  0.73907  0.32536  0.05342  1.0000
  H   H3585     1.0  0.86870  0.17986  0.99193  1.0000
  H   H3586     1.0  0.90691  0.13016  0.16537  1.0000
  H   H3587     1.0  0.97791  0.43326  0.30945  1.0000
  N   N152      1.0  0.93137  0.09332  0.19108  1.0000
  C   C2098     1.0  0.92264  0.07644  0.20540  1.0000
  C   C2099     1.0  0.92855  0.11043  0.20240  1.0000
  C   C2100     1.0  0.95341  0.08607  0.18532  1.0000
  C   C2101     1.0  0.92105  0.09872  0.17299  1.0000
  C   C2102     1.0  0.92567  0.05643  0.19769  1.0000
  H   H3588     1.0  0.98154  0.09421  0.16906  1.0000
  C   C2103     1.0  0.74602  0.03976  0.00535  1.0000
  C   C2104     1.0  0.92109  0.12017  0.16086  1.0000
  H   H3589     1.0  0.92881  0.07314  0.21958  1.0000
  H   H3590     1.0  0.90624  0.08072  0.20986  1.0000
  H   H3591     1.0  0.76856  0.43410  0.99125  1.0000
  H   H3592     1.0  0.93728  0.10606  0.21492  1.0000
  H   H3593     1.0  0.96061  0.08143  0.19896  1.0000
  H   H3594     1.0  0.95613  0.07261  0.17810  1.0000
  H   H3595     1.0  0.92752  0.08800  0.16241  1.0000
  H   H3596     1.0  0.90503  0.09721  0.17768  1.0000
  H   H3597     1.0  0.94115  0.04825  0.19779  1.0000
  H   H3598     1.0  0.91582  0.04660  0.20803  1.0000
  H   H3599     1.0  0.74731  0.45615  0.06483  1.0000
  H   H3600     1.0  0.74669  0.42516  0.05107  1.0000
  H   H3601     1.0  0.90208  0.03426  0.30493  1.0000
  C   C2105     1.0  0.84363  0.47598  0.25583  1.0000
  H   H3602     1.0  0.83575  0.01173  0.14079  1.0000
  H   H3603     1.0  0.85328  0.47837  0.09873  1.0000
  H   H3604     1.0  0.92154  0.11969  0.14482  1.0000
  H   H3605     1.0  0.93381  0.12727  0.16139  1.0000
  H   H3606     1.0  0.97859  0.22746  0.01163  1.0000
  H   H3607     1.0  0.92168  0.05838  0.18262  1.0000
  C   C2106     1.0  0.96798  0.42846  0.17691  1.0000
  C   C2107     1.0  0.81307  0.01605  0.11082  1.0000
  C   C2108     1.0  0.95300  0.44149  0.18693  1.0000
  N   N153      1.0  0.96559  0.34892  0.18182  1.0000
  H   H3608     1.0  0.84570  0.27079  0.10286  1.0000
  H   H3609     1.0  0.93338  0.16989  0.24571  1.0000
  C   C2109     1.0  0.81038  0.47409  0.01895  1.0000
  C   C2110     1.0  0.90686  0.11816  0.21148  1.0000
  H   H3610     1.0  0.83401  0.19206  0.99061  1.0000
  H   H3611     1.0  0.96404  0.11526  0.17566  1.0000
  C   C2111     1.0  0.84837  0.99914  0.30093  1.0000
  H   H3612     1.0  0.96331  0.19196  0.26634  1.0000
  H   H3613     1.0  0.96842  0.36033  0.13810  1.0000
  C   C2112     1.0  0.86897  0.98579  0.29716  1.0000
  C   C2113     1.0  0.98433  0.22925  0.99525  1.0000
  H   H3614     1.0  0.87312  0.47270  0.04375  1.0000
  C   C2114     1.0  0.97667  0.34086  0.19926  1.0000
  N   N154      1.0  0.88452  0.98930  0.30787  1.0000
  H   H3615     1.0  0.98405  0.17588  0.16259  1.0000
  C   C2115     1.0  0.75289  0.47020  0.00505  1.0000
  H   H3616     1.0  0.83460  0.47466  0.05441  1.0000
  H   H3617     1.0  0.97519  0.32449  0.16502  1.0000
  H   H3618     1.0  0.80626  0.46937  0.26433  1.0000
  H   H3619     1.0  0.96151  0.10337  0.15534  1.0000
  H   H3620     1.0  0.81690  0.00996  0.16334  1.0000
  S   S605      1.0  0.97836  0.11627  0.21445  1.0000
  H   H3621     1.0  0.98027  0.20642  0.21157  1.0000
  H   H3622     1.0  0.97132  0.23127  0.98761  1.0000
  H   H3623     1.0  0.97174  0.45634  0.13013  1.0000
  H   H3624     1.0  0.84173  0.46265  0.25011  1.0000
  H   H3625     1.0  0.76703  0.22392  0.99167  1.0000
  H   H3626     1.0  0.83949  0.99207  0.10579  1.0000
  H   H3627     1.0  0.98004  0.45525  0.28163  1.0000
  C   C2116     1.0  0.74252  0.44012  0.14220  1.0000
  S   S606      1.0  0.98535  0.03282  0.28826  1.0000
  C   C2117     1.0  0.82394  0.48388  0.13717  1.0000
  C   C2118     1.0  0.84186  0.48419  0.14363  1.0000
  H   H3628     1.0  0.85682  0.48143  0.24588  1.0000
  C   C2119     1.0  0.98651  0.19521  0.22368  1.0000
  H   H3629     1.0  0.98605  0.42366  0.14854  1.0000
  H   H3630     1.0  0.98530  0.33316  0.11682  1.0000
  C   C2120     1.0  0.73778  0.99775  0.01711  1.0000
  H   H3631     1.0  0.74164  0.30922  0.08400  1.0000
  H   H3632     1.0  0.95260  0.48319  0.28363  1.0000
  H   H3633     1.0  0.75940  0.98452  0.17739  1.0000
  H   H3634     1.0  0.96603  0.24868  0.47485  1.0000
  H   H3635     1.0  0.75616  0.36911  0.42860  1.0000
  Fe  Fe309     1.0  0.75601  0.45295  0.35641  1.0000
  C   C2121     1.0  0.78277  0.46275  0.41960  1.0000
  H   H3636     1.0  0.95432  0.12701  0.49668  1.0000
  Fe  Fe310     1.0  0.76282  0.31849  0.48192  1.0000
  S   S607      1.0  0.75757  0.34927  0.48978  1.0000
  S   S608      1.0  0.79367  0.29989  0.47741  1.0000
  H   H3637     1.0  0.94050  0.19453  0.45358  1.0000
  C   C2122     1.0  0.90452  0.37000  0.38801  1.0000
  H   H3638     1.0  0.82391  0.45855  0.63414  1.0000
  C   C2123     1.0  0.91267  0.38486  0.39684  1.0000
  H   H3639     1.0  0.81773  0.00778  0.62497  1.0000
  H   H3640     1.0  0.98135  0.38947  0.40287  1.0000
  S   S609      1.0  0.77211  0.44199  0.59596  1.0000
  C   C2124     1.0  0.73961  0.01746  0.58044  1.0000
  H   H3641     1.0  0.96448  0.32676  0.47280  1.0000
  H   H3642     1.0  0.97613  0.24298  0.51556  1.0000
  C   C2125     1.0  0.97739  0.38385  0.60752  1.0000
  C   C2126     1.0  0.87389  0.05532  0.43218  1.0000
  S   S610      1.0  0.83694  0.01379  0.57983  1.0000
  S   S611      1.0  0.74426  0.45400  0.63800  1.0000
  Fe  Fe311     1.0  0.80972  0.00637  0.57147  1.0000
  Fe  Fe312     1.0  0.85265  0.00509  0.55014  1.0000
  S   S612      1.0  0.87851  0.01699  0.52853  1.0000
  C   C2127     1.0  0.96206  0.28928  0.50850  1.0000
  C   C2128     1.0  0.74993  0.38359  0.42097  1.0000
  H   H3643     1.0  0.86345  0.02366  0.46378  1.0000
  Fe  Fe313     1.0  0.94830  0.13036  0.45292  1.0000
  S   S613      1.0  0.92084  0.14569  0.47054  1.0000
  N   N155      1.0  0.96407  0.20075  0.46652  1.0000
  Fe  Fe314     1.0  0.92537  0.11895  0.42506  1.0000
  S   S614      1.0  0.89606  0.13386  0.44023  1.0000
  S   S615      1.0  0.92649  0.09866  0.40267  1.0000
  Fe  Fe315     1.0  0.91207  0.15885  0.44056  1.0000
  S   S616      1.0  0.89600  0.19094  0.43696  1.0000
  Fe  Fe316     1.0  0.90686  0.11953  0.46907  1.0000
  S   S617      1.0  0.88324  0.10853  0.49442  1.0000
  S   S618      1.0  0.94060  0.14533  0.42271  1.0000
  S   S619      1.0  0.93528  0.10286  0.45410  1.0000
  Fe  Fe317     1.0  0.90176  0.32153  0.44476  1.0000
  S   S620      1.0  0.91147  0.29010  0.45997  1.0000
  S   S621      1.0  0.87103  0.33838  0.44024  1.0000
  Fe  Fe318     1.0  0.94442  0.33046  0.43229  1.0000
  S   S622      1.0  0.95799  0.29973  0.44589  1.0000
  C   C2129     1.0  0.94774  0.34152  0.61610  1.0000
  Fe  Fe319     1.0  0.93572  0.28864  0.43311  1.0000
  S   S623      1.0  0.94586  0.26164  0.41761  1.0000
  Fe  Fe320     1.0  0.93298  0.30320  0.47177  1.0000
  S   S624      1.0  0.93733  0.29561  0.50408  1.0000
  S   S625      1.0  0.92452  0.31921  0.41682  1.0000
  S   S626      1.0  0.92089  0.33477  0.45921  1.0000
  C   C2130     1.0  0.93225  0.09185  0.36408  1.0000
  H   H3644     1.0  0.84052  0.30153  0.42735  1.0000
  H   H3645     1.0  0.82719  0.26677  0.41570  1.0000
  C   C2131     1.0  0.86656  0.03094  0.47540  1.0000
  C   C2132     1.0  0.93638  0.11707  0.33415  1.0000
  C   C2133     1.0  0.91059  0.20988  0.43210  1.0000
  C   C2134     1.0  0.90531  0.22522  0.44361  1.0000
  C   C2135     1.0  0.91597  0.24121  0.43929  1.0000
  C   C2136     1.0  0.93188  0.24204  0.42329  1.0000
  C   C2137     1.0  0.93723  0.22659  0.41187  1.0000
  C   C2138     1.0  0.92672  0.21046  0.41635  1.0000
  H   H3646     1.0  0.89305  0.22456  0.45602  1.0000
  H   H3647     1.0  0.91186  0.25285  0.44835  1.0000
  H   H3648     1.0  0.74812  0.41913  0.45181  1.0000
  H   H3649     1.0  0.93081  0.19869  0.40735  1.0000
  H   H3650     1.0  0.90396  0.01294  0.32448  1.0000
  H   H3651     1.0  0.76717  0.46688  0.54881  1.0000
  H   H3652     1.0  0.85043  0.09351  0.46066  1.0000
  C   C2139     1.0  0.96878  0.12953  0.49818  1.0000
  H   H3653     1.0  0.98535  0.46535  0.61661  1.0000
  H   H3654     1.0  0.93653  0.08603  0.33381  1.0000
  H   H3655     1.0  0.85519  0.09433  0.43362  1.0000
  Fe  Fe321     1.0  0.75153  0.46882  0.60591  1.0000
  H   H3656     1.0  0.79887  0.01994  0.61155  1.0000
  C   C2140     1.0  0.86646  0.05364  0.46844  1.0000
  C   C2141     1.0  0.95724  0.33340  0.59892  1.0000
  H   H3657     1.0  0.95158  0.33886  0.58499  1.0000
  H   H3658     1.0  0.73838  0.05425  0.55212  1.0000
  C   C2142     1.0  0.93467  0.13145  0.34640  1.0000
  H   H3659     1.0  0.91512  0.44282  0.36930  1.0000
  H   H3660     1.0  0.77058  0.04440  0.61536  1.0000
  H   H3661     1.0  0.92527  0.43253  0.41305  1.0000
  C   C2143     1.0  0.88001  0.04261  0.52057  1.0000
  C   C2144     1.0  0.86387  0.05761  0.52511  1.0000
  C   C2145     1.0  0.86525  0.07781  0.51731  1.0000
  C   C2146     1.0  0.88268  0.08312  0.50482  1.0000
  C   C2147     1.0  0.89892  0.06813  0.50053  1.0000
  C   C2148     1.0  0.89760  0.04795  0.50847  1.0000
  H   H3662     1.0  0.85027  0.05365  0.53442  1.0000
  H   H3663     1.0  0.85267  0.08937  0.52074  1.0000
  H   H3664     1.0  0.91246  0.07208  0.49107  1.0000
  H   H3665     1.0  0.91017  0.03638  0.50504  1.0000
  Fe  Fe322     1.0  0.89078  0.41846  0.64792  1.0000
  H   H3666     1.0  0.95586  0.39942  0.58827  1.0000
  H   H3667     1.0  0.77648  0.99885  0.62495  1.0000
  H   H3668     1.0  0.84355  0.27905  0.39615  1.0000
  Fe  Fe323     1.0  0.92082  0.38205  0.63663  1.0000
  H   H3669     1.0  0.82610  0.30699  0.40793  1.0000
  S   S627      1.0  0.78429  0.40493  0.64498  1.0000
  C   C2149     1.0  0.93052  0.10621  0.37635  1.0000
  C   C2150     1.0  0.93181  0.12605  0.36743  1.0000
  C   C2151     1.0  0.87647  0.26998  0.41109  1.0000
  C   C2152     1.0  0.96642  0.29109  0.52693  1.0000
  H   H3670     1.0  0.93046  0.13723  0.37673  1.0000
  H   H3671     1.0  0.78130  0.47689  0.40847  1.0000
  S   S628      1.0  0.95759  0.43864  0.62434  1.0000
  N   N156      1.0  0.76326  0.46122  0.43367  1.0000
  C   C2153     1.0  0.98020  0.43936  0.32227  1.0000
  H   H3672     1.0  0.93551  0.14684  0.33962  1.0000
  H   H3673     1.0  0.89343  0.36287  0.39978  1.0000
  S   S629      1.0  0.74193  0.30572  0.50862  1.0000
  H   H3674     1.0  0.89689  0.37750  0.37519  1.0000
  H   H3675     1.0  0.95131  0.17379  0.46973  1.0000
  C   C2154     1.0  0.83967  0.27543  0.41275  1.0000
  H   H3676     1.0  0.76603  0.42170  0.42894  1.0000
  C   C2155     1.0  0.81461  0.31187  0.46875  1.0000
  C   C2156     1.0  0.83306  0.30219  0.47404  1.0000
  C   C2157     1.0  0.85043  0.31045  0.46584  1.0000
  C   C2158     1.0  0.84941  0.32842  0.45224  1.0000
  C   C2159     1.0  0.83082  0.33846  0.44751  1.0000
  C   C2160     1.0  0.81344  0.33023  0.45575  1.0000
  H   H3677     1.0  0.83398  0.28808  0.48426  1.0000
  H   H3678     1.0  0.86466  0.30273  0.46973  1.0000
  H   H3679     1.0  0.82995  0.35242  0.43704  1.0000
  H   H3680     1.0  0.79928  0.33776  0.45156  1.0000
  C   C2161     1.0  0.74309  0.40308  0.55530  1.0000
  C   C2162     1.0  0.73840  0.42409  0.32004  1.0000
  H   H3681     1.0  0.75370  0.02645  0.62427  1.0000
  H   H3682     1.0  0.80487  0.44931  0.39701  1.0000
  S   S630      1.0  0.76374  0.46443  0.32346  1.0000
  C   C2163     1.0  0.85895  0.24149  0.41830  1.0000
  S   S631      1.0  0.76366  0.41987  0.36811  1.0000
  H   H3683     1.0  0.96594  0.40393  0.36461  1.0000
  H   H3684     1.0  0.94832  0.22147  0.48671  1.0000
  C   C2164     1.0  0.74997  0.99627  0.54852  1.0000
  C   C2165     1.0  0.80597  0.41461  0.64465  1.0000
  N   N157      1.0  0.88105  0.05966  0.44979  1.0000
  C   C2166     1.0  0.79152  0.44538  0.40786  1.0000
  C   C2167     1.0  0.88150  0.08162  0.44835  1.0000
  C   C2168     1.0  0.90131  0.04742  0.45226  1.0000
  H   H3685     1.0  0.85086  0.06038  0.46655  1.0000
  C   C2169     1.0  0.95691  0.22159  0.47135  1.0000
  C   C2170     1.0  0.86143  0.09575  0.44669  1.0000
  C   C2171     1.0  0.91970  0.05536  0.43910  1.0000
  H   H3686     1.0  0.96608  0.21397  0.43512  1.0000
  H   H3687     1.0  0.73995  0.39072  0.58672  1.0000
  C   C2172     1.0  0.92830  0.19471  0.48422  1.0000
  H   H3688     1.0  0.89243  0.08729  0.43552  1.0000
  H   H3689     1.0  0.88679  0.08415  0.46166  1.0000
  H   H3690     1.0  0.90381  0.04594  0.46793  1.0000
  H   H3691     1.0  0.90221  0.03187  0.44967  1.0000
  C   C2173     1.0  0.93524  0.09722  0.34308  1.0000
  S   S632      1.0  0.77811  0.02229  0.57985  1.0000
  C   C2174     1.0  0.87887  0.98522  0.33040  1.0000
  C   C2175     1.0  0.74330  0.39931  0.53607  1.0000
  C   C2176     1.0  0.97751  0.28250  0.49382  1.0000
  C   C2177     1.0  0.80417  0.01944  0.62579  1.0000
  H   H3692     1.0  0.96785  0.17668  0.43550  1.0000
  H   H3693     1.0  0.79342  0.44514  0.63412  1.0000
  H   H3694     1.0  0.91929  0.05776  0.42293  1.0000
  H   H3695     1.0  0.93325  0.04421  0.44172  1.0000
  C   C2178     1.0  0.97544  0.44064  0.63805  1.0000
  H   H3696     1.0  0.89586  0.46955  0.62934  1.0000
  H   H3697     1.0  0.79670  0.43145  0.41790  1.0000
  H   H3698     1.0  0.97106  0.38336  0.35172  1.0000
  H   H3699     1.0  0.74369  0.47888  0.45482  1.0000
  H   H3700     1.0  0.75371  0.44549  0.46337  1.0000
  S   S633      1.0  0.73976  0.32614  0.46163  1.0000
  H   H3701     1.0  0.92053  0.21041  0.48112  1.0000
  H   H3702     1.0  0.87415  0.06627  0.40030  1.0000
  H   H3703     1.0  0.74620  0.41797  0.33300  1.0000
  H   H3704     1.0  0.97210  0.43478  0.37382  1.0000
  H   H3705     1.0  0.94958  0.22709  0.39951  1.0000
  C   C2179     1.0  0.97833  0.18838  0.47981  1.0000
  C   C2180     1.0  0.75740  0.47975  0.44336  1.0000
  C   C2181     1.0  0.82372  0.44267  0.63868  1.0000
  C   C2182     1.0  0.98111  0.19930  0.56682  1.0000
  H   H3706     1.0  0.82590  0.03680  0.62972  1.0000
  H   H3707     1.0  0.85593  0.00616  0.62071  1.0000
  C   C2183     1.0  0.95497  0.33436  0.63411  1.0000
  C   C2184     1.0  0.75972  0.01323  0.57157  1.0000
  S   S634      1.0  0.92707  0.36079  0.61458  1.0000
  H   H3708     1.0  0.81389  0.04675  0.60833  1.0000
  C   C2185     1.0  0.95892  0.39522  0.35704  1.0000
  S   S635      1.0  0.76895  0.47588  0.36610  1.0000
  C   C2186     1.0  0.98366  0.13166  0.48132  1.0000
  C   C2187     1.0  0.75155  0.41036  0.39198  1.0000
  C   C2188     1.0  0.91127  0.47294  0.62628  1.0000
  C   C2189     1.0  0.98093  0.18340  0.43594  1.0000
  H   H3709     1.0  0.98345  0.18022  0.51050  1.0000
  H   H3710     1.0  0.86911  0.05950  0.48133  1.0000
  H   H3711     1.0  0.85465  0.02873  0.48866  1.0000
  Fe  Fe324     1.0  0.74496  0.43401  0.58880  1.0000
  N   N158      1.0  0.85727  0.26278  0.42155  1.0000
  C   C2190     1.0  0.85499  0.26213  0.44381  1.0000
  C   C2191     1.0  0.83696  0.25320  0.45666  1.0000
  C   C2192     1.0  0.88001  0.28997  0.41510  1.0000
  C   C2193     1.0  0.83059  0.29533  0.42056  1.0000
  H   H3712     1.0  0.85373  0.27709  0.44761  1.0000
  H   H3713     1.0  0.86861  0.25342  0.44949  1.0000
  H   H3714     1.0  0.88947  0.25854  0.41496  1.0000
  H   H3715     1.0  0.83920  0.23673  0.45745  1.0000
  H   H3716     1.0  0.83529  0.25585  0.47226  1.0000
  H   H3717     1.0  0.82279  0.26028  0.45125  1.0000
  H   H3718     1.0  0.86979  0.30289  0.40840  1.0000
  H   H3719     1.0  0.89532  0.29225  0.40761  1.0000
  H   H3720     1.0  0.87950  0.29018  0.43116  1.0000
  H   H3721     1.0  0.81663  0.29370  0.43146  1.0000
  H   H3722     1.0  0.91649  0.35768  0.38351  1.0000
  H   H3723     1.0  0.93127  0.07648  0.37086  1.0000
  H   H3724     1.0  0.75401  0.98823  0.53605  1.0000
  H   H3725     1.0  0.77988  0.44092  0.45510  1.0000
  C   C2194     1.0  0.96967  0.38803  0.58739  1.0000
  C   C2195     1.0  0.84079  0.42979  0.64422  1.0000
  C   C2196     1.0  0.81146  0.03943  0.62429  1.0000
  H   H3726     1.0  0.96921  0.22358  0.53505  1.0000
  C   C2197     1.0  0.77103  0.02951  0.64677  1.0000
  H   H3727     1.0  0.74704  0.47480  0.40938  1.0000
  H   H3728     1.0  0.85768  0.06110  0.43252  1.0000
  H   H3729     1.0  0.74483  0.47119  0.50150  1.0000
  S   S636      1.0  0.91496  0.41405  0.62171  1.0000
  H   H3730     1.0  0.96129  0.12839  0.53020  1.0000
  H   H3731     1.0  0.93203  0.19149  0.49945  1.0000
  C   C2198     1.0  0.96629  0.33975  0.47896  1.0000
  H   H3732     1.0  0.91810  0.46587  0.63971  1.0000
  H   H3733     1.0  0.79471  0.46350  0.42782  1.0000
  H   H3734     1.0  0.98475  0.22706  0.47862  1.0000
  N   N159      1.0  0.79997  0.33422  0.53363  1.0000
  C   C2199     1.0  0.79003  0.32062  0.52577  1.0000
  C   C2200     1.0  0.79635  0.35467  0.52092  1.0000
  C   C2201     1.0  0.79023  0.33499  0.55517  1.0000
  C   C2202     1.0  0.82183  0.32548  0.53222  1.0000
  C   C2203     1.0  0.78993  0.29927  0.53787  1.0000
  C   C2204     1.0  0.80640  0.35625  0.49874  1.0000
  C   C2205     1.0  0.79143  0.35341  0.56396  1.0000
  C   C2206     1.0  0.83554  0.33816  0.53707  1.0000
  H   H3735     1.0  0.77417  0.32731  0.52497  1.0000
  H   H3736     1.0  0.79722  0.31865  0.51028  1.0000
  H   H3737     1.0  0.80140  0.36620  0.52677  1.0000
  H   H3738     1.0  0.78004  0.35996  0.52134  1.0000
  H   H3739     1.0  0.77398  0.33461  0.55714  1.0000
  H   H3740     1.0  0.79639  0.32150  0.56530  1.0000
  H   H3741     1.0  0.82397  0.31101  0.54267  1.0000
  H   H3742     1.0  0.82824  0.32116  0.51725  1.0000
  H   H3743     1.0  0.80518  0.29057  0.53797  1.0000
  H   H3744     1.0  0.78173  0.29931  0.55339  1.0000
  H   H3745     1.0  0.78200  0.29112  0.53052  1.0000
  H   H3746     1.0  0.80313  0.37203  0.49119  1.0000
  H   H3747     1.0  0.82285  0.35201  0.49701  1.0000
  H   H3748     1.0  0.80047  0.34721  0.49058  1.0000
  H   H3749     1.0  0.80681  0.35622  0.56233  1.0000
  H   H3750     1.0  0.78537  0.35092  0.58025  1.0000
  H   H3751     1.0  0.78194  0.36706  0.55727  1.0000
  H   H3752     1.0  0.83640  0.33493  0.55330  1.0000
  H   H3753     1.0  0.83124  0.35444  0.53235  1.0000
  H   H3754     1.0  0.85080  0.33440  0.52856  1.0000
  N   N160      1.0  0.92541  0.39837  0.38203  1.0000
  C   C2207     1.0  0.93383  0.40979  0.39384  1.0000
  C   C2208     1.0  0.94230  0.38507  0.37109  1.0000
  C   C2209     1.0  0.91273  0.41191  0.36762  1.0000
  C   C2210     1.0  0.91838  0.42119  0.40877  1.0000
  H   H3755     1.0  0.98298  0.17317  0.47594  1.0000
  C   C2211     1.0  0.91861  0.43257  0.35819  1.0000
  H   H3756     1.0  0.89936  0.39377  0.40480  1.0000
  H   H3757     1.0  0.94242  0.42092  0.38391  1.0000
  H   H3758     1.0  0.94475  0.39947  0.40257  1.0000
  H   H3759     1.0  0.91225  0.40429  0.35504  1.0000
  H   H3760     1.0  0.89687  0.41517  0.37497  1.0000
  H   H3761     1.0  0.78119  0.44254  0.39888  1.0000
  H   H3762     1.0  0.90497  0.42913  0.40235  1.0000
  H   H3763     1.0  0.94967  0.37321  0.38198  1.0000
  C   C2212     1.0  0.76195  0.47352  0.53434  1.0000
  H   H3764     1.0  0.87011  0.23118  0.42675  1.0000
  H   H3765     1.0  0.80089  0.05058  0.63220  1.0000
  C   C2213     1.0  0.97414  0.31835  0.59965  1.0000
  H   H3766     1.0  0.93447  0.43180  0.35129  1.0000
  H   H3767     1.0  0.84464  0.23581  0.42425  1.0000
  S   S637      1.0  0.94310  0.47048  0.36813  1.0000
  H   H3768     1.0  0.92103  0.37590  0.40877  1.0000
  H   H3769     1.0  0.93665  0.37696  0.36166  1.0000
  C   C2214     1.0  0.76528  0.44307  0.44996  1.0000
  H   H3770     1.0  0.95361  0.40443  0.34347  1.0000
  C   C2215     1.0  0.75922  0.39137  0.40175  1.0000
  H   H3771     1.0  0.77259  0.38279  0.39456  1.0000
  H   H3772     1.0  0.98244  0.18986  0.58169  1.0000
  H   H3773     1.0  0.75049  0.44870  0.41362  1.0000
  S   S638      1.0  0.82487  0.00044  0.54074  1.0000
  H   H3774     1.0  0.95449  0.29625  0.53839  1.0000
  Fe  Fe325     1.0  0.76269  0.42645  0.62714  1.0000
  C   C2216     1.0  0.96832  0.46690  0.37013  1.0000
  H   H3775     1.0  0.91732  0.18511  0.48412  1.0000
  H   H3776     1.0  0.87778  0.27179  0.39454  1.0000
  C   C2217     1.0  0.97276  0.13026  0.51714  1.0000
  C   C2218     1.0  0.94654  0.19036  0.46783  1.0000
  C   C2219     1.0  0.78142  0.99558  0.63981  1.0000
  H   H3777     1.0  0.90968  0.43974  0.34620  1.0000
  H   H3778     1.0  0.86873  0.99848  0.33569  1.0000
  H   H3779     1.0  0.97429  0.28059  0.47981  1.0000
  C   C2220     1.0  0.86475  0.23797  0.39640  1.0000
  C   C2221     1.0  0.76311  0.42286  0.44499  1.0000
  C   C2222     1.0  0.88484  0.06265  0.41101  1.0000
  C   C2223     1.0  0.76042  0.03789  0.62850  1.0000
  H   H3780     1.0  0.89076  0.07663  0.40948  1.0000
  S   S639      1.0  0.95894  0.35802  0.42057  1.0000
  H   H3781     1.0  0.84292  0.99964  0.31703  1.0000
  H   H3782     1.0  0.86325  0.22239  0.39591  1.0000
  H   H3783     1.0  0.85496  0.24821  0.38653  1.0000
  H   H3784     1.0  0.91380  0.41082  0.42271  1.0000
  H   H3785     1.0  0.94627  0.23013  0.46136  1.0000
  H   H3786     1.0  0.88073  0.02311  0.48048  1.0000
  H   H3787     1.0  0.88062  0.23921  0.39043  1.0000
  N   N161      1.0  0.78891  0.01329  0.64366  1.0000
  C   C2224     1.0  0.97507  0.20277  0.44519  1.0000
  C   C2225     1.0  0.77303  0.48449  0.45392  1.0000
  H   H3788     1.0  0.94780  0.47897  0.60396  1.0000
  H   H3789     1.0  0.76345  0.46100  0.52609  1.0000
  H   H3790     1.0  0.86382  0.11147  0.44454  1.0000
  S   S640      1.0  0.74675  0.42679  0.55792  1.0000
  S   S641      1.0  0.97967  0.13023  0.45742  1.0000
  H   H3791     1.0  0.74563  0.41093  0.52321  1.0000
  H   H3792     1.0  0.92180  0.06934  0.44327  1.0000
  H   H3793     1.0  0.96207  0.19854  0.50811  1.0000
  H   H3794     1.0  0.89715  0.05086  0.40593  1.0000
  H   H3795     1.0  0.77380  0.41066  0.45215  1.0000
  C   C2226     1.0  0.97053  0.18491  0.50248  1.0000
  H   H3796     1.0  0.98055  0.35764  0.64485  1.0000
  C   C2227     1.0  0.97931  0.44752  0.37245  1.0000
  C   C2228     1.0  0.97315  0.23443  0.46942  1.0000
  H   H3797     1.0  0.87490  0.03891  0.43323  1.0000
  H   H3798     1.0  0.98003  0.23868  0.45356  1.0000
  H   H3799     1.0  0.74801  0.05013  0.63230  1.0000
  S   S642      1.0  0.86208  0.43991  0.64440  1.0000
  H   H3800     1.0  0.96648  0.19802  0.56346  1.0000
  C   C2229     1.0  0.97153  0.31896  0.63497  1.0000
  H   H3801     1.0  0.98269  0.37935  0.46146  1.0000
  H   H3802     1.0  0.97192  0.39721  0.61500  1.0000
  H   H3803     1.0  0.98049  0.21499  0.56840  1.0000
  C   C2230     1.0  0.76487  0.00234  0.55580  1.0000
  H   H3804     1.0  0.78029  0.99895  0.54892  1.0000
  H   H3805     1.0  0.74026  0.37795  0.51856  1.0000
  C   C2231     1.0  0.98205  0.35790  0.40431  1.0000
  H   H3806     1.0  0.96584  0.44629  0.33039  1.0000
  C   C2232     1.0  0.98121  0.31104  0.61774  1.0000
  C   C2233     1.0  0.85489  0.99852  0.63608  1.0000
  H   H3807     1.0  0.77900  0.47141  0.46448  1.0000
  H   H3808     1.0  0.96614  0.37418  0.58414  1.0000
  H   H3809     1.0  0.91937  0.46571  0.61336  1.0000
  H   H3810     1.0  0.96139  0.17280  0.50669  1.0000
  H   H3811     1.0  0.96902  0.37238  0.61723  1.0000
  H   H3812     1.0  0.95408  0.34121  0.49199  1.0000
  H   H3813     1.0  0.96392  0.35352  0.46782  1.0000
  C   C2234     1.0  0.74008  0.38796  0.57186  1.0000
  Fe  Fe326     1.0  0.93550  0.41890  0.64052  1.0000
  H   H3814     1.0  0.98394  0.06685  0.49898  1.0000
  C   C2235     1.0  0.74034  0.38061  0.53340  1.0000
  C   C2236     1.0  0.74735  0.46156  0.42160  1.0000
  H   H3815     1.0  0.94788  0.47925  0.63679  1.0000
  H   H3816     1.0  0.98171  0.24259  0.53953  1.0000
  C   C2237     1.0  0.98103  0.23282  0.52893  1.0000
  H   H3817     1.0  0.94757  0.34045  0.64744  1.0000
  H   H3818     1.0  0.98150  0.31223  0.58634  1.0000
  C   C2238     1.0  0.98652  0.33604  0.48625  1.0000
  H   H3819     1.0  0.98013  0.39434  0.57454  1.0000
  C   C2239     1.0  0.80643  0.43509  0.63868  1.0000
  C   C2240     1.0  0.98622  0.28672  0.53042  1.0000
  H   H3820     1.0  0.74600  0.05756  0.52589  1.0000
  S   S643      1.0  0.73714  0.41592  0.61920  1.0000
  C   C2241     1.0  0.73737  0.36547  0.54994  1.0000
  C   C2242     1.0  0.73728  0.36918  0.56917  1.0000
  H   H3821     1.0  0.98568  0.34732  0.49594  1.0000
  C   C2243     1.0  0.97774  0.48329  0.36865  1.0000
  C   C2244     1.0  0.74013  0.48400  0.53885  1.0000
  H   H3822     1.0  0.96784  0.48427  0.32231  1.0000
  H   H3823     1.0  0.77203  0.48418  0.52633  1.0000
  H   H3824     1.0  0.85593  0.02478  0.64786  1.0000
  H   H3825     1.0  0.98691  0.32139  0.49652  1.0000
  H   H3826     1.0  0.98626  0.42638  0.33298  1.0000
  C   C2245     1.0  0.93627  0.32929  0.89215  1.0000
  H   H3827     1.0  0.92415  0.32622  0.78961  1.0000
  H   H3828     1.0  0.98478  0.19279  0.96854  1.0000
  C   C2246     1.0  0.96093  0.46947  0.74770  1.0000
  N   N162      1.0  0.90920  0.30766  0.90880  1.0000
  H   H3829     1.0  0.91435  0.06421  0.70894  1.0000
  C   C2247     1.0  0.87846  0.31117  0.89159  1.0000
  H   H3830     1.0  0.98033  0.32355  0.84044  1.0000
  Fe  Fe327     1.0  0.88321  0.01615  0.74772  1.0000
  S   S644      1.0  0.89564  0.00491  0.71891  1.0000
  S   S645      1.0  0.88851  0.04559  0.75354  1.0000
  H   H3831     1.0  0.97919  0.32209  0.79515  1.0000
  H   H3832     1.0  0.96243  0.45738  0.77985  1.0000
  C   C2248     1.0  0.82255  0.43758  0.69529  1.0000
  H   H3833     1.0  0.98185  0.04548  0.72768  1.0000
  H   H3834     1.0  0.91366  0.46862  0.89243  1.0000
  H   H3835     1.0  0.79600  0.02007  0.82732  1.0000
  C   C2249     1.0  0.82987  0.43008  0.71559  1.0000
  S   S646      1.0  0.85173  0.01373  0.74646  1.0000
  Fe  Fe328     1.0  0.96581  0.20980  0.85639  1.0000
  H   H3836     1.0  0.96818  0.46995  0.85860  1.0000
  S   S647      1.0  0.95449  0.18991  0.84010  1.0000
  C   C2250     1.0  0.85408  0.99918  0.67136  1.0000
  H   H3837     1.0  0.74661  0.33425  0.70554  1.0000
  H   H3838     1.0  0.88405  0.29654  0.88651  1.0000
  Fe  Fe329     1.0  0.95646  0.22321  0.89748  1.0000
  S   S648      1.0  0.94159  0.21895  0.92998  1.0000
  S   S649      1.0  0.94608  0.23679  0.86808  1.0000
  S   S650      1.0  0.85470  0.26256  0.96019  1.0000
  Fe  Fe330     1.0  0.90809  0.42819  0.84459  1.0000
  S   S651      1.0  0.92800  0.44371  0.81892  1.0000
  S   S652      1.0  0.89059  0.44006  0.87242  1.0000
  Fe  Fe331     1.0  0.91937  0.38832  0.82944  1.0000
  S   S653      1.0  0.94017  0.40027  0.80245  1.0000
  S   S654      1.0  0.91170  0.35711  0.83527  1.0000
  Fe  Fe332     1.0  0.95033  0.41556  0.82324  1.0000
  H   H3839     1.0  0.95250  0.28250  0.89376  1.0000
  Fe  Fe333     1.0  0.91657  0.42746  0.79972  1.0000
  S   S655      1.0  0.91236  0.44274  0.76847  1.0000
  S   S656      1.0  0.93172  0.40112  0.85071  1.0000
  S   S657      1.0  0.89450  0.41441  0.82494  1.0000
  H   H3840     1.0  0.97660  0.42669  0.77119  1.0000
  C   C2251     1.0  0.97853  0.14287  0.86916  1.0000
  H   H3841     1.0  0.93882  0.34489  0.74396  1.0000
  H   H3842     1.0  0.80589  0.20324  0.94856  1.0000
  H   H3843     1.0  0.75976  0.02397  0.65951  1.0000
  S   S658      1.0  0.89466  0.38591  0.66151  1.0000
  H   H3844     1.0  0.93870  0.06624  0.72548  1.0000
  H   H3845     1.0  0.91475  0.27365  0.94160  1.0000
  Fe  Fe334     1.0  0.91652  0.39360  0.67760  1.0000
  S   S659      1.0  0.91543  0.38164  0.71071  1.0000
  C   C2252     1.0  0.82292  0.40175  0.65056  1.0000
  S   S660      1.0  0.91092  0.42648  0.66553  1.0000
  H   H3846     1.0  0.93934  0.47231  0.77493  1.0000
  C   C2253     1.0  0.98501  0.47209  0.71653  1.0000
  C   C2254     1.0  0.87812  0.46478  0.87367  1.0000
  H   H3847     1.0  0.78716  0.03168  0.67948  1.0000
  H   H3848     1.0  0.87290  0.45923  0.90594  1.0000
  C   C2255     1.0  0.91285  0.42591  0.75243  1.0000
  C   C2256     1.0  0.91814  0.43158  0.73169  1.0000
  C   C2257     1.0  0.91897  0.41812  0.71873  1.0000
  C   C2258     1.0  0.91401  0.39913  0.72643  1.0000
  C   C2259     1.0  0.90827  0.39366  0.74714  1.0000
  C   C2260     1.0  0.90796  0.40690  0.76015  1.0000
  H   H3849     1.0  0.92199  0.44627  0.72568  1.0000
  H   H3850     1.0  0.92384  0.42233  0.70287  1.0000
  H   H3851     1.0  0.90418  0.37910  0.75315  1.0000
  H   H3852     1.0  0.90367  0.40253  0.77615  1.0000
  C   C2261     1.0  0.86609  0.42228  0.70034  1.0000
  Fe  Fe335     1.0  0.86476  0.00002  0.71887  1.0000
  C   C2262     1.0  0.97812  0.42770  0.65603  1.0000
  S   S661      1.0  0.97289  0.05401  0.76984  1.0000
  H   H3853     1.0  0.94708  0.05235  0.67371  1.0000
  H   H3854     1.0  0.97467  0.47152  0.68904  1.0000
  S   S662      1.0  0.94313  0.38661  0.65393  1.0000
  C   C2263     1.0  0.91690  0.23005  0.93794  1.0000
  C   C2264     1.0  0.90964  0.22859  0.95854  1.0000
  C   C2265     1.0  0.89037  0.23813  0.96552  1.0000
  C   C2266     1.0  0.87831  0.24927  0.95188  1.0000
  C   C2267     1.0  0.88532  0.25027  0.93125  1.0000
  C   C2268     1.0  0.90457  0.24060  0.92427  1.0000
  H   H3855     1.0  0.82004  0.45923  0.87811  1.0000
  C   C2269     1.0  0.84037  0.40928  0.65013  1.0000
  H   H3856     1.0  0.87590  0.25868  0.92065  1.0000
  H   H3857     1.0  0.90997  0.24143  0.90837  1.0000
  C   C2270     1.0  0.93068  0.33625  0.83869  1.0000
  C   C2271     1.0  0.92606  0.31691  0.84171  1.0000
  C   C2272     1.0  0.94095  0.29996  0.84441  1.0000
  C   C2273     1.0  0.96053  0.30232  0.84407  1.0000
  C   C2274     1.0  0.96516  0.32167  0.84085  1.0000
  C   C2275     1.0  0.95027  0.33861  0.83824  1.0000
  H   H3858     1.0  0.91094  0.31504  0.84187  1.0000
  H   H3859     1.0  0.93735  0.28509  0.84654  1.0000
  H   H3860     1.0  0.86661  0.45309  0.68439  1.0000
  H   H3861     1.0  0.95396  0.35347  0.83588  1.0000
  H   H3862     1.0  0.77476  0.04257  0.65127  1.0000
  H   H3863     1.0  0.81291  0.99699  0.65938  1.0000
  C   C2276     1.0  0.96416  0.04034  0.70664  1.0000
  C   C2277     1.0  0.92042  0.34240  0.78369  1.0000
  H   H3864     1.0  0.92745  0.34185  0.88319  1.0000
  H   H3865     1.0  0.79493  0.47331  0.92437  1.0000
  C   C2278     1.0  0.96159  0.16239  0.81471  1.0000
  C   C2279     1.0  0.96802  0.17864  0.81941  1.0000
  H   H3866     1.0  0.96015  0.48433  0.77325  1.0000
  H   H3867     1.0  0.94833  0.15719  0.82357  1.0000
  C   C2280     1.0  0.91183  0.04756  0.75866  1.0000
  C   C2281     1.0  0.92725  0.03110  0.75969  1.0000
  C   C2282     1.0  0.94585  0.03327  0.76330  1.0000
  C   C2283     1.0  0.94932  0.05197  0.76541  1.0000
  C   C2284     1.0  0.93385  0.06842  0.76452  1.0000
  C   C2285     1.0  0.91510  0.06616  0.76134  1.0000
  H   H3868     1.0  0.92483  0.01668  0.75780  1.0000
  H   H3869     1.0  0.95767  0.02043  0.76429  1.0000
  H   H3870     1.0  0.93630  0.08281  0.76644  1.0000
  H   H3871     1.0  0.90319  0.07893  0.76063  1.0000
  H   H3872     1.0  0.95248  0.03498  0.71901  1.0000
  H   H3873     1.0  0.91481  0.33332  0.91887  1.0000
  H   H3874     1.0  0.96182  0.35496  0.71349  1.0000
  C   C2286     1.0  0.79812  0.00668  0.66245  1.0000
  H   H3875     1.0  0.97949  0.43463  0.73667  1.0000
  H   H3876     1.0  0.86831  0.20275  0.97481  1.0000
  N   N163      1.0  0.95732  0.06170  0.69731  1.0000
  H   H3877     1.0  0.96921  0.13639  0.88305  1.0000
  H   H3878     1.0  0.89644  0.28559  0.95917  1.0000
  H   H3879     1.0  0.92923  0.45547  0.87389  1.0000
  H   H3880     1.0  0.77273  0.00799  0.78025  1.0000
  H   H3881     1.0  0.97387  0.15930  0.86749  1.0000
  H   H3882     1.0  0.93223  0.36965  0.77729  1.0000
  H   H3883     1.0  0.87577  0.38103  0.70367  1.0000
  H   H3884     1.0  0.92301  0.29413  0.88282  1.0000
  H   H3885     1.0  0.81754  0.42374  0.72636  1.0000
  S   S663      1.0  0.97554  0.11243  0.74340  1.0000
  H   H3886     1.0  0.80417  0.20392  0.97433  1.0000
  H   H3887     1.0  0.90378  0.32552  0.88009  1.0000
  C   C2287     1.0  0.91972  0.28968  0.89933  1.0000
  H   H3888     1.0  0.96856  0.08624  0.67639  1.0000
  H   H3889     1.0  0.93427  0.10249  0.72159  1.0000
  H   H3890     1.0  0.83412  0.44374  0.68350  1.0000
  H   H3891     1.0  0.81729  0.42572  0.69009  1.0000
  H   H3892     1.0  0.80960  0.44987  0.69699  1.0000
  N   N164      1.0  0.83450  0.19819  0.95859  1.0000
  H   H3893     1.0  0.74161  0.21279  0.97765  1.0000
  C   C2288     1.0  0.97183  0.46457  0.70508  1.0000
  C   C2289     1.0  0.81280  0.19600  0.96199  1.0000
  C   C2290     1.0  0.84517  0.18981  0.94000  1.0000
  H   H3894     1.0  0.76315  0.05510  0.97810  1.0000
  H   H3895     1.0  0.96128  0.44038  0.84778  1.0000
  H   H3896     1.0  0.98471  0.19859  0.93269  1.0000
  H   H3897     1.0  0.84225  0.17059  0.97892  1.0000
  H   H3898     1.0  0.80834  0.23623  0.94424  1.0000
  H   H3899     1.0  0.93702  0.07726  0.67691  1.0000
  H   H3900     1.0  0.90817  0.34875  0.79486  1.0000
  C   C2291     1.0  0.83497  0.22017  0.95687  1.0000
  C   C2292     1.0  0.97413  0.07076  0.68355  1.0000
  H   H3901     1.0  0.87529  0.18516  0.92291  1.0000
  C   C2293     1.0  0.86465  0.19759  0.92912  1.0000
  C   C2294     1.0  0.93981  0.27874  0.90568  1.0000
  H   H3902     1.0  0.91150  0.05561  0.68727  1.0000
  C   C2295     1.0  0.82482  0.23415  0.94007  1.0000
  H   H3903     1.0  0.87267  0.20328  0.93846  1.0000
  H   H3904     1.0  0.88567  0.29234  0.92708  1.0000
  C   C2296     1.0  0.87112  0.47029  0.89261  1.0000
  C   C2297     1.0  0.95063  0.35300  0.74533  1.0000
  H   H3905     1.0  0.82904  0.00008  0.82103  1.0000
  H   H3906     1.0  0.87112  0.32126  0.87952  1.0000
  H   H3907     1.0  0.94931  0.10480  0.69745  1.0000
  H   H3908     1.0  0.92555  0.09625  0.70153  1.0000
  H   H3909     1.0  0.88443  0.44439  0.70072  1.0000
  H   H3910     1.0  0.94052  0.26236  0.90699  1.0000
  H   H3911     1.0  0.96171  0.07470  0.72178  1.0000
  H   H3912     1.0  0.74244  0.04105  0.96665  1.0000
  H   H3913     1.0  0.82599  0.06640  0.78066  1.0000
  H   H3914     1.0  0.82900  0.24921  0.93791  1.0000
  H   H3915     1.0  0.84225  0.39997  0.69311  1.0000
  H   H3916     1.0  0.86177  0.20928  0.91594  1.0000
  H   H3917     1.0  0.75221  0.36209  0.67569  1.0000
  H   H3918     1.0  0.78666  0.47287  0.89415  1.0000
  C   C2298     1.0  0.92329  0.32048  0.91153  1.0000
  H   H3919     1.0  0.86120  0.41857  0.76110  1.0000
  H   H3920     1.0  0.87212  0.43094  0.73773  1.0000
  H   H3921     1.0  0.85345  0.39921  0.65435  1.0000
  H   H3922     1.0  0.83045  0.39223  0.71798  1.0000
  H   H3923     1.0  0.97620  0.38762  0.76972  1.0000
  H   H3924     1.0  0.82946  0.22876  0.92555  1.0000
  C   C2299     1.0  0.80833  0.17442  0.96699  1.0000
  H   H3925     1.0  0.91847  0.29611  0.94936  1.0000
  S   S664      1.0  0.97978  0.28160  0.84672  1.0000
  H   H3926     1.0  0.86490  0.42085  0.68490  1.0000
  H   H3927     1.0  0.94407  0.36907  0.74232  1.0000
  H   H3928     1.0  0.84563  0.43767  0.74731  1.0000
  H   H3929     1.0  0.80453  0.03581  0.84079  1.0000
  H   H3930     1.0  0.95433  0.38786  0.75997  1.0000
  H   H3931     1.0  0.95569  0.46888  0.71054  1.0000
  C   C2300     1.0  0.97226  0.15270  0.79871  1.0000
  C   C2301     1.0  0.80695  0.02069  0.83677  1.0000
  H   H3932     1.0  0.83091  0.44353  0.72134  1.0000
  H   H3933     1.0  0.81745  0.16487  0.95628  1.0000
  Fe  Fe336     1.0  0.97432  0.25010  0.86027  1.0000
  H   H3934     1.0  0.83516  0.19321  0.92860  1.0000
  H   H3935     1.0  0.94820  0.33555  0.89608  1.0000
  C   C2302     1.0  0.74036  0.36447  0.68895  1.0000
  C   C2303     1.0  0.97404  0.44725  0.84010  1.0000
  H   H3936     1.0  0.90973  0.27841  0.90190  1.0000
  H   H3937     1.0  0.88038  0.41249  0.70321  1.0000
  H   H3938     1.0  0.78870  0.99728  0.67406  1.0000
  H   H3939     1.0  0.74821  0.36850  0.69957  1.0000
  S   S665      1.0  0.85256  0.01332  0.69022  1.0000
  C   C2304     1.0  0.86883  0.44418  0.69931  1.0000
  H   H3940     1.0  0.80365  0.00994  0.85081  1.0000
  H   H3941     1.0  0.94364  0.31785  0.88272  1.0000
  C   C2305     1.0  0.78136  0.99862  0.79110  1.0000
  H   H3942     1.0  0.95366  0.31794  0.80269  1.0000
  H   H3943     1.0  0.91435  0.34444  0.76966  1.0000
  C   C2306     1.0  0.87567  0.47914  0.85652  1.0000
  C   C2307     1.0  0.82870  0.05138  0.77634  1.0000
  H   H3944     1.0  0.80930  0.01581  0.68566  1.0000
  C   C2308     1.0  0.90759  0.28854  0.94539  1.0000
  H   H3945     1.0  0.84202  0.40168  0.74634  1.0000
  N   N165      1.0  0.83712  0.02946  0.80970  1.0000
  C   C2309     1.0  0.82855  0.01426  0.82646  1.0000
  C   C2310     1.0  0.85689  0.01915  0.79997  1.0000
  C   C2311     1.0  0.82319  0.03539  0.79454  1.0000
  C   C2312     1.0  0.83895  0.04733  0.81825  1.0000
  C   C2313     1.0  0.77194  0.99328  0.81093  1.0000
  C   C2314     1.0  0.87183  0.00894  0.81422  1.0000
  H   H3946     1.0  0.81884  0.05229  0.76527  1.0000
  C   C2315     1.0  0.85555  0.05946  0.80715  1.0000
  S   S666      1.0  0.97385  0.19543  0.88653  1.0000
  H   H3947     1.0  0.83772  0.01008  0.83861  1.0000
  H   H3948     1.0  0.86453  0.02955  0.78800  1.0000
  H   H3949     1.0  0.85461  0.00738  0.79222  1.0000
  H   H3950     1.0  0.82168  0.02196  0.78876  1.0000
  H   H3951     1.0  0.80791  0.04163  0.80142  1.0000
  H   H3952     1.0  0.82459  0.05801  0.81924  1.0000
  H   H3953     1.0  0.84175  0.04278  0.83398  1.0000
  C   C2316     1.0  0.74256  0.40894  0.68531  1.0000
  C   C2317     1.0  0.89657  0.30139  0.92872  1.0000
  C   C2318     1.0  0.80142  0.02312  0.67290  1.0000
  H   H3954     1.0  0.94244  0.28111  0.92016  1.0000
  S   S667      1.0  0.98293  0.23877  0.89065  1.0000
  H   H3955     1.0  0.88705  0.00619  0.80531  1.0000
  H   H3956     1.0  0.88091  0.47499  0.84186  1.0000
  C   C2319     1.0  0.86505  0.18737  0.97700  1.0000
  H   H3957     1.0  0.81103  0.03333  0.66311  1.0000
  H   H3958     1.0  0.87063  0.05095  0.80884  1.0000
  H   H3959     1.0  0.85381  0.07315  0.81381  1.0000
  H   H3960     1.0  0.85512  0.06442  0.79100  1.0000
  N   N166      1.0  0.95615  0.34720  0.76598  1.0000
  C   C2320     1.0  0.96302  0.32487  0.76994  1.0000
  H   H3961     1.0  0.86820  0.99412  0.82210  1.0000
  C   C2321     1.0  0.93820  0.35347  0.78112  1.0000
  H   H3962     1.0  0.87226  0.01818  0.82541  1.0000
  H   H3963     1.0  0.91908  0.22032  0.96918  1.0000
  H   H3964     1.0  0.75192  0.05230  0.92548  1.0000
  H   H3965     1.0  0.82765  0.22547  0.97120  1.0000
  H   H3966     1.0  0.84872  0.17318  0.94347  1.0000
  S   S668      1.0  0.74606  0.00180  0.81761  1.0000
  H   H3967     1.0  0.85745  0.36675  0.70265  1.0000
  H   H3968     1.0  0.96720  0.14018  0.79530  1.0000
  H   H3969     1.0  0.85921  0.45220  0.71091  1.0000
  H   H3970     1.0  0.94232  0.35185  0.79617  1.0000
  C   C2322     1.0  0.97279  0.35750  0.76762  1.0000
  C   C2323     1.0  0.92211  0.05476  0.69759  1.0000
  H   H3971     1.0  0.93365  0.31236  0.92184  1.0000
  H   H3972     1.0  0.86786  0.39726  0.73595  1.0000
  H   H3973     1.0  0.86087  0.37041  0.72645  1.0000
  H   H3974     1.0  0.74369  0.39603  0.65933  1.0000
  H   H3975     1.0  0.85031  0.22328  0.95457  1.0000
  C   C2324     1.0  0.97779  0.46411  0.84609  1.0000
  C   C2325     1.0  0.96722  0.31590  0.79128  1.0000
  H   H3976     1.0  0.96624  0.02990  0.69582  1.0000
  H   H3977     1.0  0.88754  0.31480  0.93473  1.0000
  C   C2326     1.0  0.98485  0.05980  0.66599  1.0000
  H   H3978     1.0  0.98030  0.35673  0.72726  1.0000
  H   H3979     1.0  0.96900  0.41618  0.66181  1.0000
  H   H3980     1.0  0.92500  0.03892  0.70503  1.0000
  H   H3981     1.0  0.98542  0.07295  0.69192  1.0000
  H   H3982     1.0  0.97565  0.44817  0.70546  1.0000
  N   N167      1.0  0.84888  0.41494  0.71515  1.0000
  C   C2327     1.0  0.84458  0.39669  0.70899  1.0000
  H   H3983     1.0  0.95205  0.31677  0.76667  1.0000
  C   C2328     1.0  0.85410  0.40876  0.73592  1.0000
  C   C2329     1.0  0.86074  0.37779  0.71064  1.0000
  H   H3984     1.0  0.97308  0.33278  0.72794  1.0000
  C   C2330     1.0  0.85834  0.42523  0.74570  1.0000
  H   H3985     1.0  0.75540  0.39869  0.69099  1.0000
  C   C2331     1.0  0.94951  0.07378  0.71392  1.0000
  H   H3986     1.0  0.86671  0.30954  0.90504  1.0000
  H   H3987     1.0  0.84419  0.04788  0.76849  1.0000
  H   H3988     1.0  0.88829  0.33483  0.90108  1.0000
  N   N168      1.0  0.98274  0.46449  0.73883  1.0000
  H   H3989     1.0  0.74872  0.42190  0.67559  1.0000
  H   H3990     1.0  0.98596  0.04336  0.66977  1.0000
  C   C2332     1.0  0.89538  0.32072  0.89523  1.0000
  C   C2333     1.0  0.94133  0.06200  0.68539  1.0000
  H   H3991     1.0  0.82295  0.47169  0.89716  1.0000
  C   C2334     1.0  0.85502  0.00899  0.65143  1.0000
  C   C2335     1.0  0.93913  0.09550  0.70790  1.0000
  S   S669      1.0  0.88930  0.98590  0.76663  1.0000
  C   C2336     1.0  0.95578  0.47080  0.77022  1.0000
  H   H3992     1.0  0.90375  0.98932  0.67425  1.0000
  H   H3993     1.0  0.80890  0.99606  0.76984  1.0000
  C   C2337     1.0  0.80184  0.99185  0.78516  1.0000
  H   H3994     1.0  0.95236  0.45843  0.74528  1.0000
  H   H3995     1.0  0.97485  0.13735  0.85661  1.0000
  H   H3996     1.0  0.87518  0.17887  0.96589  1.0000
  C   C2338     1.0  0.98509  0.18531  0.80776  1.0000
  H   H3997     1.0  0.79239  0.17488  0.96626  1.0000
  H   H3998     1.0  0.76808  0.99222  0.65108  1.0000
  H   H3999     1.0  0.98633  0.02056  0.72285  1.0000
  H   H4000     1.0  0.94032  0.46747  0.88816  1.0000
  C   C2339     1.0  0.98337  0.03652  0.71573  1.0000
  H   H4001     1.0  0.75120  0.01650  0.97821  1.0000
  S   S670      1.0  0.73950  0.00147  0.87582  1.0000
  C   C2340     1.0  0.81778  0.47418  0.88257  1.0000
  C   C2341     1.0  0.79551  0.48365  0.88376  1.0000
  H   H4002     1.0  0.97234  0.29948  0.79234  1.0000
  H   H4003     1.0  0.97724  0.06530  0.65276  1.0000
  C   C2342     1.0  0.92728  0.46901  0.88087  1.0000
  H   H4004     1.0  0.97882  0.38376  0.74475  1.0000
  H   H4005     1.0  0.97697  0.31327  0.64899  1.0000
  C   C2343     1.0  0.84305  0.18677  0.97683  1.0000
  S   S671      1.0  0.98304  0.41731  0.81770  1.0000
  H   H4006     1.0  0.82267  0.38588  0.65508  1.0000
  C   C2344     1.0  0.96768  0.34902  0.72775  1.0000
  C   C2345     1.0  0.97001  0.38038  0.75995  1.0000
  H   H4007     1.0  0.97712  0.32053  0.75971  1.0000
  H   H4008     1.0  0.97907  0.21857  0.95913  1.0000
  H   H4009     1.0  0.97505  0.35516  0.78349  1.0000
  H   H4010     1.0  0.95412  0.48430  0.73997  1.0000
  H   H4011     1.0  0.82754  0.48311  0.87105  1.0000
  H   H4012     1.0  0.79180  0.48407  0.86875  1.0000
  S   S672      1.0  0.73783  0.08549  0.94678  1.0000
  C   C2346     1.0  0.73756  0.02808  0.97760  1.0000
  S   S673      1.0  0.88299  0.71068  0.01725  1.0000
  S   S674      1.0  0.75917  0.88060  0.04514  1.0000
  H   H4013     1.0  0.97167  0.68517  0.03636  1.0000
  H   H4014     1.0  0.93195  0.94704  0.26170  1.0000
  C   C2347     1.0  0.74781  0.77470  0.06921  1.0000
  C   C2348     1.0  0.74091  0.77349  0.02720  1.0000
  C   C2349     1.0  0.80555  0.49131  0.00515  1.0000
  S   S675      1.0  0.85939  0.67355  0.04000  1.0000
  C   C2350     1.0  0.87068  0.62119  0.06607  1.0000
  Fe  Fe337     1.0  0.89105  0.67881  0.03176  1.0000
  S   S676      1.0  0.91352  0.66584  0.05265  1.0000
  Fe  Fe338     1.0  0.95730  0.69747  0.13373  1.0000
  H   H4015     1.0  0.86896  0.50589  0.05034  1.0000
  S   S677      1.0  0.94199  0.71427  0.10764  1.0000
  Fe  Fe339     1.0  0.96826  0.69987  0.17402  1.0000
  Fe  Fe340     1.0  0.85144  0.70481  0.02335  1.0000
  C   C2351     1.0  0.86446  0.76437  0.00866  1.0000
  S   S678      1.0  0.82762  0.72694  0.03891  1.0000
  Fe  Fe341     1.0  0.96051  0.65975  0.16511  1.0000
  S   S679      1.0  0.95279  0.62863  0.17851  1.0000
  H   H4016     1.0  0.92995  0.90835  0.21915  1.0000
  S   S680      1.0  0.94188  0.69046  0.16576  1.0000
  Fe  Fe342     1.0  0.83920  0.96223  0.23150  1.0000
  S   S681      1.0  0.87183  0.95450  0.21894  1.0000
  H   H4017     1.0  0.91127  0.61271  0.99239  1.0000
  Fe  Fe343     1.0  0.84673  0.94759  0.27475  1.0000
  S   S682      1.0  0.87958  0.93825  0.26541  1.0000
  H   H4018     1.0  0.78768  0.50984  0.27805  1.0000
  Fe  Fe344     1.0  0.87102  0.92604  0.24135  1.0000
  S   S683      1.0  0.88901  0.89837  0.22981  1.0000
  H   H4019     1.0  0.80547  0.49201  0.06190  1.0000
  S   S684      1.0  0.83788  0.93278  0.25242  1.0000
  H   H4020     1.0  0.76604  0.91513  0.05811  1.0000
  H   H4021     1.0  0.77560  0.90411  0.09782  1.0000
  S   S685      1.0  0.94270  0.83539  0.28548  1.0000
  Fe  Fe345     1.0  0.89427  0.54781  0.16330  1.0000
  S   S686      1.0  0.86792  0.53575  0.18301  1.0000
  S   S687      1.0  0.89318  0.58163  0.15505  1.0000
  Fe  Fe346     1.0  0.91657  0.50596  0.15996  1.0000
  H   H4022     1.0  0.93849  0.88670  0.28245  1.0000
  Fe  Fe347     1.0  0.87174  0.51305  0.16252  1.0000
  C   C2352     1.0  0.75687  0.91233  0.12599  1.0000
  Fe  Fe348     1.0  0.89082  0.51425  0.19900  1.0000
  S   S688      1.0  0.88446  0.50907  0.23300  1.0000
  S   S689      1.0  0.89598  0.52741  0.14118  1.0000
  S   S690      1.0  0.91691  0.52741  0.18028  1.0000
  N   N169      1.0  0.89156  0.61504  0.09486  1.0000
  H   H4023     1.0  0.95961  0.89881  0.27748  1.0000
  S   S691      1.0  0.93743  0.53498  0.28526  1.0000
  Fe  Fe349     1.0  0.88543  0.69818  0.98922  1.0000
  H   H4024     1.0  0.75659  0.76984  0.02939  1.0000
  S   S692      1.0  0.76747  0.94852  0.15887  1.0000
  H   H4025     1.0  0.76565  0.84820  0.15127  1.0000
  C   C2353     1.0  0.89973  0.51575  0.24733  1.0000
  C   C2354     1.0  0.91854  0.52069  0.23884  1.0000
  C   C2355     1.0  0.93018  0.52607  0.25074  1.0000
  C   C2356     1.0  0.92303  0.52679  0.27112  1.0000
  C   C2357     1.0  0.90427  0.52176  0.27960  1.0000
  C   C2358     1.0  0.89273  0.51617  0.26778  1.0000
  H   H4026     1.0  0.92417  0.52024  0.22316  1.0000
  H   H4027     1.0  0.94469  0.52991  0.24406  1.0000
  H   H4028     1.0  0.89844  0.52249  0.29519  1.0000
  H   H4029     1.0  0.87821  0.51238  0.27450  1.0000
  C   C2359     1.0  0.90392  0.88120  0.24550  1.0000
  C   C2360     1.0  0.89836  0.87833  0.26632  1.0000
  C   C2361     1.0  0.91030  0.86408  0.27843  1.0000
  C   C2362     1.0  0.92829  0.85333  0.26986  1.0000
  C   C2363     1.0  0.93413  0.85668  0.24907  1.0000
  C   C2364     1.0  0.92169  0.87014  0.23690  1.0000
  H   H4030     1.0  0.88462  0.88671  0.27306  1.0000
  H   H4031     1.0  0.90568  0.86153  0.29452  1.0000
  H   H4032     1.0  0.94807  0.84874  0.24233  1.0000
  H   H4033     1.0  0.92604  0.87231  0.22079  1.0000
  H   H4034     1.0  0.86255  0.52146  0.08411  1.0000
  Fe  Fe350     1.0  0.86380  0.66366  0.01010  1.0000
  H   H4035     1.0  0.80913  0.51802  0.05425  1.0000
  S   S693      1.0  0.84477  0.50607  0.15210  1.0000
  H   H4036     1.0  0.78796  0.57907  0.99009  1.0000
  C   C2365     1.0  0.93739  0.61600  0.16961  1.0000
  C   C2366     1.0  0.94087  0.59494  0.17293  1.0000
  C   C2367     1.0  0.92768  0.58421  0.16826  1.0000
  C   C2368     1.0  0.91074  0.59445  0.16032  1.0000
  C   C2369     1.0  0.90739  0.61551  0.15672  1.0000
  C   C2370     1.0  0.92071  0.62625  0.16118  1.0000
  H   H4037     1.0  0.95373  0.58687  0.17942  1.0000
  H   H4038     1.0  0.93055  0.56803  0.17102  1.0000
  H   H4039     1.0  0.89417  0.62359  0.15093  1.0000
  H   H4040     1.0  0.91769  0.64244  0.15879  1.0000
  C   C2371     1.0  0.92066  0.67978  0.06800  1.0000
  C   C2372     1.0  0.91494  0.70056  0.06631  1.0000
  C   C2373     1.0  0.92144  0.71100  0.07863  1.0000
  C   C2374     1.0  0.93332  0.70072  0.09296  1.0000
  C   C2375     1.0  0.93873  0.67993  0.09478  1.0000
  C   C2376     1.0  0.93269  0.66960  0.08217  1.0000
  H   H4041     1.0  0.90570  0.70858  0.05542  1.0000
  H   H4042     1.0  0.91718  0.72709  0.07711  1.0000
  H   H4043     1.0  0.94778  0.67178  0.10571  1.0000
  H   H4044     1.0  0.93747  0.65362  0.08337  1.0000
  C   C2377     1.0  0.79033  0.78136  0.00603  1.0000
  C   C2378     1.0  0.79855  0.76460  0.99672  1.0000
  C   C2379     1.0  0.81002  0.74778  0.00662  1.0000
  C   C2380     1.0  0.81320  0.74759  0.02597  1.0000
  C   C2381     1.0  0.80470  0.76422  0.03541  1.0000
  C   C2382     1.0  0.79348  0.78116  0.02540  1.0000
  H   H4045     1.0  0.84370  0.77837  0.03230  1.0000
  H   H4046     1.0  0.81626  0.73492  0.99936  1.0000
  C   C2383     1.0  0.76543  0.88051  0.14778  1.0000
  H   H4047     1.0  0.78735  0.79408  0.03260  1.0000
  C   C2384     1.0  0.77943  0.95661  0.17549  1.0000
  C   C2385     1.0  0.79663  0.94444  0.18177  1.0000
  C   C2386     1.0  0.80737  0.95088  0.19386  1.0000
  C   C2387     1.0  0.80107  0.96967  0.19971  1.0000
  C   C2388     1.0  0.74005  0.76551  0.00817  1.0000
  C   C2389     1.0  0.74873  0.88206  0.11882  1.0000
  H   H4048     1.0  0.82074  0.94148  0.19834  1.0000
  H   H4049     1.0  0.76103  0.60950  0.99153  1.0000
  H   H4050     1.0  0.94837  0.92045  0.20099  1.0000
  C   C2390     1.0  0.87407  0.65171  0.09647  1.0000
  N   N170      1.0  0.82527  0.49196  0.25504  1.0000
  H   H4051     1.0  0.85965  0.61545  0.10447  1.0000
  H   H4052     1.0  0.75929  0.92032  0.13743  1.0000
  H   H4053     1.0  0.78237  0.50240  0.25606  1.0000
  H   H4054     1.0  0.80466  0.95971  0.13010  1.0000
  H   H4055     1.0  0.75980  0.77906  0.05688  1.0000
  H   H4056     1.0  0.84505  0.50449  0.30792  1.0000
  H   H4057     1.0  0.79385  0.59852  0.00019  1.0000
  H   H4058     1.0  0.94993  0.96938  0.23346  1.0000
  S   S694      1.0  0.89255  0.49057  0.18027  1.0000
  C   C2391     1.0  0.93425  0.92290  0.21171  1.0000
  C   C2392     1.0  0.77277  0.97514  0.18183  1.0000
  C   C2393     1.0  0.85234  0.50880  0.05302  1.0000
  C   C2394     1.0  0.75087  0.91308  0.06440  1.0000
  H   H4059     1.0  0.95328  0.58650  0.23257  1.0000
  H   H4060     1.0  0.74487  0.93792  0.08055  1.0000
  C   C2395     1.0  0.82122  0.49614  0.23381  1.0000
  H   H4061     1.0  0.93498  0.91190  0.28627  1.0000
  H   H4062     1.0  0.74384  0.89306  0.10595  1.0000
  S   S695      1.0  0.98558  0.66842  0.17586  1.0000
  H   H4063     1.0  0.97481  0.93158  0.22027  1.0000
  H   H4064     1.0  0.81211  0.49670  0.13786  1.0000
  H   H4065     1.0  0.75217  0.75928  0.07713  1.0000
  C   C2396     1.0  0.84063  0.49159  0.99201  1.0000
  H   H4066     1.0  0.98067  0.49351  0.26409  1.0000
  H   H4067     1.0  0.74463  0.86087  0.16671  1.0000
  C   C2397     1.0  0.77638  0.91123  0.11057  1.0000
  H   H4068     1.0  0.85959  0.64735  0.10405  1.0000
  H   H4069     1.0  0.94117  0.94951  0.21756  1.0000
  H   H4070     1.0  0.93537  0.76695  0.27509  1.0000
  H   H4071     1.0  0.90752  0.55939  0.20852  1.0000
  C   C2398     1.0  0.75375  0.73387  0.05009  1.0000
  H   H4072     1.0  0.87868  0.75365  0.00933  1.0000
  H   H4073     1.0  0.96388  0.70030  0.05548  1.0000
  H   H4074     1.0  0.83933  0.80795  0.00977  1.0000
  H   H4075     1.0  0.98326  0.75291  0.24700  1.0000
  H   H4076     1.0  0.84797  0.52424  0.05658  1.0000
  H   H4077     1.0  0.88393  0.55829  0.22540  1.0000
  C   C2399     1.0  0.95772  0.95977  0.24538  1.0000
  S   S696      1.0  0.85319  0.69457  0.99403  1.0000
  C   C2400     1.0  0.79114  0.59459  0.98629  1.0000
  H   H4078     1.0  0.92831  0.78399  0.29251  1.0000
  H   H4079     1.0  0.81228  0.53912  0.26752  1.0000
  H   H4080     1.0  0.84409  0.51332  0.10528  1.0000
  H   H4081     1.0  0.82639  0.97936  0.13482  1.0000
  H   H4082     1.0  0.77646  0.48846  0.28040  1.0000
  H   H4083     1.0  0.76837  0.85670  0.17344  1.0000
  H   H4084     1.0  0.81573  0.97115  0.10553  1.0000
  C   C2401     1.0  0.85134  0.62553  0.98828  1.0000
  C   C2402     1.0  0.94363  0.90125  0.27637  1.0000
  H   H4085     1.0  0.77903  0.92672  0.10414  1.0000
  H   H4086     1.0  0.74629  0.78481  0.08022  1.0000
  S   S697      1.0  0.97435  0.66643  0.13284  1.0000
  H   H4087     1.0  0.96715  0.72766  0.23807  1.0000
  H   H4088     1.0  0.91235  0.57750  0.27437  1.0000
  C   C2403     1.0  0.94776  0.94141  0.25553  1.0000
  H   H4089     1.0  0.74665  0.58443  0.99338  1.0000
  C   C2404     1.0  0.96934  0.91943  0.23205  1.0000
  H   H4090     1.0  0.75566  0.72087  0.06237  1.0000
  H   H4091     1.0  0.85848  0.58105  0.11412  1.0000
  Fe  Fe351     1.0  0.75478  0.82655  0.00750  1.0000
  S   S698      1.0  0.85683  0.63314  0.00922  1.0000
  H   H4092     1.0  0.80749  0.50714  0.23194  1.0000
  C   C2405     1.0  0.76059  0.86043  0.16028  1.0000
  Fe  Fe352     1.0  0.87808  0.96733  0.24391  1.0000
  H   H4093     1.0  0.79012  0.49822  0.00506  1.0000
  H   H4094     1.0  0.95685  0.80626  0.20336  1.0000
  C   C2406     1.0  0.91035  0.60122  0.09991  1.0000
  C   C2407     1.0  0.89198  0.63507  0.10006  1.0000
  C   C2408     1.0  0.93018  0.60847  0.08988  1.0000
  H   H4095     1.0  0.91025  0.59833  0.11635  1.0000
  H   H4096     1.0  0.91137  0.58631  0.09570  1.0000
  H   H4097     1.0  0.87369  0.60764  0.12399  1.0000
  H   H4098     1.0  0.89359  0.63335  0.11605  1.0000
  H   H4099     1.0  0.90514  0.64141  0.09127  1.0000
  H   H4100     1.0  0.94265  0.59565  0.09118  1.0000
  H   H4101     1.0  0.93053  0.61471  0.07374  1.0000
  H   H4102     1.0  0.93315  0.61974  0.09775  1.0000
  H   H4103     1.0  0.87412  0.65704  0.08023  1.0000
  N   N171      1.0  0.90266  0.58918  0.23422  1.0000
  C   C2409     1.0  0.89240  0.58857  0.21709  1.0000
  C   C2410     1.0  0.89868  0.61063  0.23748  1.0000
  C   C2411     1.0  0.89345  0.57602  0.25252  1.0000
  C   C2412     1.0  0.92457  0.58141  0.22844  1.0000
  C   C2413     1.0  0.89227  0.56755  0.21275  1.0000
  C   C2414     1.0  0.90800  0.62562  0.22015  1.0000
  C   C2415     1.0  0.89652  0.57888  0.27316  1.0000
  C   C2416     1.0  0.93884  0.58358  0.24201  1.0000
  H   H4104     1.0  0.87654  0.59610  0.21967  1.0000
  H   H4105     1.0  0.89941  0.59695  0.20282  1.0000
  H   H4106     1.0  0.90403  0.61225  0.25100  1.0000
  H   H4107     1.0  0.88231  0.61614  0.24046  1.0000
  H   H4108     1.0  0.87698  0.57813  0.25332  1.0000
  H   H4109     1.0  0.89898  0.55998  0.25151  1.0000
  H   H4110     1.0  0.92703  0.56522  0.22761  1.0000
  H   H4111     1.0  0.93034  0.58836  0.21296  1.0000
  H   H4112     1.0  0.82525  0.53968  0.24265  1.0000
  C   C2417     1.0  0.73890  0.92600  0.07709  1.0000
  H   H4113     1.0  0.92246  0.93078  0.20279  1.0000
  H   H4114     1.0  0.92447  0.62160  0.21693  1.0000
  H   H4115     1.0  0.90179  0.62719  0.20626  1.0000
  H   H4116     1.0  0.90464  0.64068  0.22453  1.0000
  S   S699      1.0  0.74660  0.96734  0.10975  1.0000
  H   H4117     1.0  0.89061  0.56689  0.28476  1.0000
  H   H4118     1.0  0.88803  0.59331  0.27721  1.0000
  S   S700      1.0  0.84573  0.97765  0.25476  1.0000
  H   H4119     1.0  0.85316  0.75441  0.01160  1.0000
  Fe  Fe353     1.0  0.74537  0.86184  0.03008  1.0000
  H   H4120     1.0  0.74508  0.92252  0.11828  1.0000
  N   N172      1.0  0.92981  0.79898  0.24055  1.0000
  C   C2418     1.0  0.92214  0.79775  0.26275  1.0000
  C   C2419     1.0  0.91625  0.81589  0.22996  1.0000
  C   C2420     1.0  0.95081  0.80351  0.23654  1.0000
  C   C2421     1.0  0.92971  0.77904  0.23498  1.0000
  C   C2422     1.0  0.93498  0.78263  0.27672  1.0000
  C   C2423     1.0  0.89429  0.81324  0.23268  1.0000
  C   C2424     1.0  0.95856  0.81395  0.21526  1.0000
  C   C2425     1.0  0.93471  0.77752  0.21254  1.0000
  H   H4121     1.0  0.92044  0.81268  0.26726  1.0000
  H   H4122     1.0  0.90707  0.79348  0.26677  1.0000
  H   H4123     1.0  0.92151  0.81883  0.21359  1.0000
  H   H4124     1.0  0.91629  0.83015  0.23505  1.0000
  H   H4125     1.0  0.80218  0.52983  0.25037  1.0000
  H   H4126     1.0  0.96175  0.78963  0.23991  1.0000
  H   H4127     1.0  0.94083  0.76726  0.24207  1.0000
  H   H4128     1.0  0.91537  0.77353  0.24133  1.0000
  C   C2426     1.0  0.97551  0.73712  0.22635  1.0000
  H   H4129     1.0  0.73794  0.79015  0.02358  1.0000
  H   H4130     1.0  0.89422  0.94877  0.29945  1.0000
  H   H4131     1.0  0.88634  0.82592  0.22303  1.0000
  H   H4132     1.0  0.89283  0.79928  0.22801  1.0000
  H   H4133     1.0  0.88647  0.81384  0.24825  1.0000
  C   C2427     1.0  0.81632  0.53053  0.25492  1.0000
  H   H4134     1.0  0.95495  0.93488  0.26883  1.0000
  H   H4135     1.0  0.94185  0.56957  0.25285  1.0000
  H   H4136     1.0  0.95107  0.77441  0.20750  1.0000
  H   H4137     1.0  0.92809  0.79083  0.20275  1.0000
  H   H4138     1.0  0.92823  0.76499  0.21003  1.0000
  H   H4139     1.0  0.85413  0.59453  0.00232  1.0000
  H   H4140     1.0  0.95692  0.96927  0.25677  1.0000
  H   H4141     1.0  0.79256  0.51048  0.07638  1.0000
  H   H4142     1.0  0.86010  0.91103  0.30840  1.0000
  H   H4143     1.0  0.93376  0.59627  0.25024  1.0000
  C   C2428     1.0  0.93573  0.93596  0.22679  1.0000
  H   H4144     1.0  0.80708  0.76413  0.05041  1.0000
  H   H4145     1.0  0.92025  0.94682  0.29866  1.0000
  C   C2429     1.0  0.86002  0.77499  0.02698  1.0000
  C   C2430     1.0  0.90110  0.78146  0.98510  1.0000
  H   H4146     1.0  0.86659  0.78873  0.02439  1.0000
  C   C2431     1.0  0.78767  0.49709  0.27058  1.0000
  H   H4147     1.0  0.76365  0.87412  0.11272  1.0000
  H   H4148     1.0  0.92302  0.91125  0.25602  1.0000
  H   H4149     1.0  0.76914  0.88944  0.15784  1.0000
  N   N173      1.0  0.84446  0.49391  0.07051  1.0000
  C   C2432     1.0  0.74334  0.89745  0.05988  1.0000
  C   C2433     1.0  0.93959  0.90827  0.25469  1.0000
  H   H4150     1.0  0.78949  0.90353  0.11761  1.0000
  H   H4151     1.0  0.87721  0.58117  0.09196  1.0000
  H   H4152     1.0  0.88413  0.57426  0.11655  1.0000
  S   S701      1.0  0.94446  0.48975  0.14355  1.0000
  S   S702      1.0  0.74524  0.82873  0.04018  1.0000
  H   H4153     1.0  0.90884  0.98101  0.28449  1.0000
  C   C2434     1.0  0.87406  0.60659  0.10804  1.0000
  H   H4154     1.0  0.89978  0.62850  0.06384  1.0000
  C   C2435     1.0  0.82905  0.51010  0.26179  1.0000
  H   H4155     1.0  0.95034  0.78574  0.27449  1.0000
  H   H4156     1.0  0.95123  0.82984  0.21253  1.0000
  C   C2436     1.0  0.82060  0.49994  0.99165  1.0000
  H   H4157     1.0  0.80188  0.93004  0.17705  1.0000
  H   H4158     1.0  0.89914  0.60272  0.06716  1.0000
  H   H4159     1.0  0.87565  0.66485  0.10262  1.0000
  H   H4160     1.0  0.98550  0.89434  0.25076  1.0000
  H   H4161     1.0  0.88456  0.56927  0.19977  1.0000
  C   C2437     1.0  0.87359  0.58451  0.10741  1.0000
  S   S703      1.0  0.89606  0.66663  0.00312  1.0000
  C   C2438     1.0  0.89128  0.61673  0.07276  1.0000
  H   H4162     1.0  0.95237  0.81339  0.24680  1.0000
  N   N174      1.0  0.94853  0.92611  0.24253  1.0000
  C   C2439     1.0  0.85834  0.50862  0.09554  1.0000
  H   H4163     1.0  0.84214  0.52514  0.02539  1.0000
  S   S704      1.0  0.77640  0.80223  0.99288  1.0000
  H   H4164     1.0  0.84487  0.51208  0.25639  1.0000
  Fe  Fe354     1.0  0.97538  0.82500  0.27462  1.0000
  N   N175      1.0  0.86435  0.77734  0.98833  1.0000
  H   H4165     1.0  0.84338  0.51627  0.22140  1.0000
  H   H4166     1.0  0.86699  0.76492  0.03931  1.0000
  Fe  Fe355     1.0  0.74219  0.96691  0.14302  1.0000
  H   H4167     1.0  0.77992  0.87664  0.13795  1.0000
  H   H4168     1.0  0.86286  0.60812  0.07079  1.0000
  H   H4169     1.0  0.86080  0.63433  0.07146  1.0000
  H   H4170     1.0  0.87286  0.62445  0.04944  1.0000
  H   H4171     1.0  0.94472  0.89504  0.24702  1.0000
  H   H4172     1.0  0.82301  0.51665  0.08444  1.0000
  S   S705      1.0  0.81516  0.97944  0.21311  1.0000
  H   H4173     1.0  0.90275  0.77284  0.00022  1.0000
  H   H4174     1.0  0.75835  0.72748  0.03604  1.0000
  S   S706      1.0  0.75740  0.85910  0.99774  1.0000
  H   H4175     1.0  0.92019  0.94125  0.23398  1.0000
  H   H4176     1.0  0.97374  0.95545  0.23937  1.0000
  C   C2440     1.0  0.90426  0.97681  0.30098  1.0000
  N   N176      1.0  0.75012  0.89261  0.13550  1.0000
  H   H4177     1.0  0.82714  0.50775  0.27842  1.0000
  H   H4178     1.0  0.85074  0.49161  0.21462  1.0000
  C   C2441     1.0  0.90539  0.95393  0.30567  1.0000
  C   C2442     1.0  0.84618  0.50934  0.03263  1.0000
  H   H4179     1.0  0.76441  0.74348  0.05077  1.0000
  C   C2443     1.0  0.83797  0.50379  0.21755  1.0000
  C   C2444     1.0  0.82359  0.50200  0.07993  1.0000
  S   S707      1.0  0.96555  0.71610  0.20084  1.0000
  H   H4180     1.0  0.75319  0.76871  0.99664  1.0000
  H   H4181     1.0  0.97576  0.71959  0.07092  1.0000
  H   H4182     1.0  0.83225  0.50935  0.20318  1.0000
  S   S708      1.0  0.83226  0.94879  0.30708  1.0000
  H   H4183     1.0  0.98168  0.52133  0.17422  1.0000
  H   H4184     1.0  0.97129  0.50057  0.29912  1.0000
  H   H4185     1.0  0.74036  0.74913  0.01099  1.0000
  C   C2445     1.0  0.80709  0.50565  0.06705  1.0000
  H   H4186     1.0  0.81878  0.49172  0.09388  1.0000
  H   H4187     1.0  0.75062  0.56198  0.98400  1.0000
  H   H4188     1.0  0.86981  0.50432  0.10547  1.0000
  C   C2446     1.0  0.85097  0.60516  0.98907  1.0000
  C   C2447     1.0  0.84373  0.78896  0.98635  1.0000
  H   H4189     1.0  0.87548  0.80260  0.99397  1.0000
  H   H4190     1.0  0.79206  0.96346  0.10934  1.0000
  C   C2448     1.0  0.80167  0.97023  0.11619  1.0000
  H   H4191     1.0  0.83336  0.50199  0.03321  1.0000
  H   H4192     1.0  0.82153  0.81467  0.99334  1.0000
  H   H4193     1.0  0.98170  0.68621  0.08793  1.0000
  H   H4194     1.0  0.91626  0.97967  0.30795  1.0000
  H   H4195     1.0  0.86638  0.97012  0.30082  1.0000
  H   H4196     1.0  0.97410  0.67398  0.06152  1.0000
  C   C2449     1.0  0.97532  0.68787  0.05040  1.0000
  H   H4197     1.0  0.96943  0.90746  0.22342  1.0000
  H   H4198     1.0  0.79611  0.76466  0.98174  1.0000
  C   C2450     1.0  0.78367  0.98170  0.19369  1.0000
  C   C2451     1.0  0.85768  0.49035  0.08621  1.0000
  S   S709      1.0  0.98205  0.70937  0.14192  1.0000
  C   C2452     1.0  0.98539  0.91062  0.24537  1.0000
  H   H4199     1.0  0.80638  0.98154  0.15450  1.0000
  S   S710      1.0  0.90504  0.98201  0.24151  1.0000
  C   C2453     1.0  0.83761  0.80912  0.99404  1.0000
  H   H4200     1.0  0.83229  0.77968  0.99415  1.0000
  H   H4201     1.0  0.97475  0.81404  0.21380  1.0000
  H   H4202     1.0  0.97729  0.49619  0.18143  1.0000
  H   H4203     1.0  0.97589  0.50930  0.15618  1.0000
  C   C2454     1.0  0.97735  0.73464  0.20629  1.0000
  H   H4204     1.0  0.84589  0.82067  0.98435  1.0000
  H   H4205     1.0  0.93900  0.48886  0.30685  1.0000
  H   H4206     1.0  0.85907  0.50277  0.02222  1.0000
  C   C2455     1.0  0.98456  0.75153  0.23147  1.0000
  C   C2456     1.0  0.98410  0.50679  0.16890  1.0000
  H   H4207     1.0  0.98393  0.91830  0.25824  1.0000
  C   C2457     1.0  0.87929  0.79138  0.98384  1.0000
  H   H4208     1.0  0.85306  0.73930  0.98667  1.0000
  H   H4209     1.0  0.91044  0.79335  0.98216  1.0000
  H   H4210     1.0  0.73749  0.89502  0.17821  1.0000
  C   C2458     1.0  0.97103  0.48452  0.30581  1.0000
  H   H4211     1.0  0.87343  0.48479  0.07997  1.0000
  Fe  Fe356     1.0  0.77272  0.59229  0.48738  1.0000
  S   S711      1.0  0.80427  0.59450  0.49052  1.0000
  S   S712      1.0  0.76679  0.56079  0.49184  1.0000
  H   H4212     1.0  0.89101  0.94511  0.64085  1.0000
  C   C2459     1.0  0.86965  0.91492  0.57601  1.0000
  H   H4213     1.0  0.81239  0.54999  0.45329  1.0000
  C   C2460     1.0  0.85243  0.95320  0.48773  1.0000
  Fe  Fe357     1.0  0.85038  0.86312  0.45396  1.0000
  S   S713      1.0  0.83073  0.88760  0.46890  1.0000
  S   S714      1.0  0.86268  0.83351  0.47164  1.0000
  Fe  Fe358     1.0  0.84919  0.88758  0.41214  1.0000
  S   S715      1.0  0.82977  0.91426  0.42374  1.0000
  S   S716      1.0  0.86125  0.88491  0.37962  1.0000
  Fe  Fe359     1.0  0.84941  0.90793  0.44715  1.0000
  S   S717      1.0  0.85950  0.93361  0.45564  1.0000
  Fe  Fe360     1.0  0.81261  0.89187  0.44458  1.0000
  S   S718      1.0  0.77953  0.90129  0.45370  1.0000
  S   S719      1.0  0.87054  0.88310  0.43381  1.0000
  S   S720      1.0  0.83048  0.86542  0.43129  1.0000
  H   H4214     1.0  0.87400  0.89894  0.52975  1.0000
  Fe  Fe361     1.0  0.93540  0.79464  0.60051  1.0000
  S   S721      1.0  0.90572  0.79562  0.59164  1.0000
  H   H4215     1.0  0.78696  0.88843  0.51709  1.0000
  Fe  Fe362     1.0  0.95754  0.77859  0.56289  1.0000
  S   S722      1.0  0.92994  0.77850  0.55090  1.0000
  C   C2461     1.0  0.79079  0.90360  0.51530  1.0000
  Fe  Fe363     1.0  0.91976  0.80842  0.56077  1.0000
  S   S723      1.0  0.90589  0.83701  0.54282  1.0000
  Fe  Fe364     1.0  0.91860  0.76551  0.58270  1.0000
  S   S724      1.0  0.90267  0.73877  0.59346  1.0000
  S   S725      1.0  0.94859  0.80963  0.57022  1.0000
  S   S726      1.0  0.94713  0.76354  0.59399  1.0000
  Fe  Fe365     1.0  0.87260  0.61848  0.55537  1.0000
  S   S727      1.0  0.88453  0.63343  0.57549  1.0000
  S   S728      1.0  0.83905  0.62261  0.55660  1.0000
  Fe  Fe366     1.0  0.91418  0.60261  0.53518  1.0000
  S   S729      1.0  0.92957  0.61660  0.55299  1.0000
  S   S730      1.0  0.92987  0.58582  0.51026  1.0000
  Fe  Fe367     1.0  0.90733  0.60522  0.57896  1.0000
  S   S731      1.0  0.91630  0.59097  0.60905  1.0000
  Fe  Fe368     1.0  0.90585  0.64349  0.54805  1.0000
  S   S732      1.0  0.91349  0.67454  0.53654  1.0000
  S   S733      1.0  0.89338  0.58928  0.56148  1.0000
  S   S734      1.0  0.89243  0.63052  0.52768  1.0000
  H   H4216     1.0  0.97834  0.55254  0.57841  1.0000
  Fe  Fe369     1.0  0.93133  0.50265  0.35656  1.0000
  Fe  Fe370     1.0  0.89236  0.53156  0.35300  1.0000
  S   S735      1.0  0.90839  0.55670  0.33570  1.0000
  S   S736      1.0  0.85871  0.53335  0.36241  1.0000
  Fe  Fe371     1.0  0.93037  0.54685  0.35759  1.0000
  S   S737      1.0  0.93982  0.56640  0.37641  1.0000
  S   S738      1.0  0.90995  0.50854  0.33501  1.0000
  S   S739      1.0  0.91245  0.52362  0.37627  1.0000
  C   C2462     1.0  0.96203  0.57409  0.37961  1.0000
  H   H4217     1.0  0.84273  0.57323  0.59171  1.0000
  C   C2463     1.0  0.96171  0.58232  0.39677  1.0000
  H   H4218     1.0  0.90342  0.50099  0.60793  1.0000
  H   H4219     1.0  0.94803  0.58415  0.40744  1.0000
  C   C2464     1.0  0.95556  0.58612  0.50520  1.0000
  C   C2465     1.0  0.96606  0.58571  0.48569  1.0000
  H   H4220     1.0  0.85706  0.91064  0.60849  1.0000
  S   S740      1.0  0.93343  0.80463  0.63031  1.0000
  H   H4221     1.0  0.90472  0.84354  0.45881  1.0000
  C   C2466     1.0  0.96549  0.58756  0.52037  1.0000
  H   H4222     1.0  0.95841  0.58450  0.47394  1.0000
  H   H4223     1.0  0.89969  0.90096  0.52314  1.0000
  H   H4224     1.0  0.95766  0.58713  0.53556  1.0000
  H   H4225     1.0  0.85195  0.85735  0.57443  1.0000
  C   C2467     1.0  0.84153  0.93148  0.32689  1.0000
  H   H4226     1.0  0.89230  0.98310  0.33758  1.0000
  H   H4227     1.0  0.76430  0.51407  0.38611  1.0000
  H   H4228     1.0  0.79055  0.91308  0.40952  1.0000
  H   H4229     1.0  0.88365  0.91925  0.57800  1.0000
  H   H4230     1.0  0.81230  0.90537  0.34813  1.0000
  C   C2468     1.0  0.90689  0.72054  0.57781  1.0000
  C   C2469     1.0  0.90185  0.70151  0.58579  1.0000
  C   C2470     1.0  0.90442  0.68699  0.57345  1.0000
  C   C2471     1.0  0.91161  0.69160  0.55295  1.0000
  C   C2472     1.0  0.91669  0.71058  0.54501  1.0000
  C   C2473     1.0  0.91450  0.72493  0.55740  1.0000
  H   H4231     1.0  0.89600  0.69797  0.60158  1.0000
  H   H4232     1.0  0.90068  0.67233  0.57979  1.0000
  H   H4233     1.0  0.92218  0.71432  0.52918  1.0000
  H   H4234     1.0  0.91831  0.73954  0.55105  1.0000
  C   C2474     1.0  0.85362  0.91988  0.59414  1.0000
  C   C2475     1.0  0.96550  0.55537  0.62793  1.0000
  C   C2476     1.0  0.94706  0.56830  0.62739  1.0000
  C   C2477     1.0  0.94001  0.57577  0.60918  1.0000
  C   C2478     1.0  0.95154  0.57023  0.59150  1.0000
  N   N177      1.0  0.77933  0.93997  0.49829  1.0000
  C   C2479     1.0  0.85490  0.91400  0.32352  1.0000
  H   H4235     1.0  0.80530  0.96840  0.50012  1.0000
  H   H4236     1.0  0.94616  0.57569  0.57743  1.0000
  H   H4237     1.0  0.96519  0.70233  0.48609  1.0000
  C   C2480     1.0  0.87277  0.83481  0.49267  1.0000
  C   C2481     1.0  0.87916  0.81709  0.50536  1.0000
  C   C2482     1.0  0.88891  0.81759  0.52115  1.0000
  C   C2483     1.0  0.89218  0.83587  0.52439  1.0000
  C   C2484     1.0  0.88529  0.85364  0.51204  1.0000
  C   C2485     1.0  0.87564  0.85313  0.49620  1.0000
  H   H4238     1.0  0.87691  0.80289  0.50271  1.0000
  H   H4239     1.0  0.89412  0.80383  0.53062  1.0000
  H   H4240     1.0  0.88794  0.86781  0.51433  1.0000
  H   H4241     1.0  0.87086  0.86685  0.48644  1.0000
  C   C2486     1.0  0.76201  0.89007  0.44666  1.0000
  H   H4242     1.0  0.84253  0.88963  0.58150  1.0000
  C   C2487     1.0  0.75670  0.53854  0.42602  1.0000
  C   C2488     1.0  0.83083  0.54750  0.53155  1.0000
  C   C2489     1.0  0.75636  0.52115  0.39868  1.0000
  C   C2490     1.0  0.76771  0.87355  0.43676  1.0000
  C   C2491     1.0  0.97358  0.80284  0.63114  1.0000
  C   C2492     1.0  0.82813  0.57081  0.58925  1.0000
  H   H4243     1.0  0.79195  0.90590  0.53041  1.0000
  H   H4244     1.0  0.78321  0.86669  0.43410  1.0000
  C   C2493     1.0  0.91455  0.83132  0.43163  1.0000
  C   C2494     1.0  0.84783  0.91860  0.49523  1.0000
  C   C2495     1.0  0.85315  0.93509  0.48127  1.0000
  C   C2496     1.0  0.76059  0.52492  0.56072  1.0000
  H   H4245     1.0  0.84936  0.90434  0.49065  1.0000
  H   H4246     1.0  0.97088  0.49728  0.57975  1.0000
  S   S741      1.0  0.77060  0.54733  0.44016  1.0000
  C   C2497     1.0  0.86109  0.90000  0.33983  1.0000
  C   C2498     1.0  0.85414  0.90347  0.35955  1.0000
  C   C2499     1.0  0.84127  0.92126  0.36286  1.0000
  C   C2500     1.0  0.83486  0.93513  0.34658  1.0000
  C   C2501     1.0  0.85441  0.88930  0.56807  1.0000
  H   H4247     1.0  0.87110  0.88627  0.33716  1.0000
  H   H4248     1.0  0.83603  0.92419  0.37797  1.0000
  H   H4249     1.0  0.82459  0.94869  0.34925  1.0000
  C   C2502     1.0  0.81942  0.50718  0.33133  1.0000
  N   N178      1.0  0.78880  0.89935  0.37307  1.0000
  C   C2503     1.0  0.85147  0.51660  0.33182  1.0000
  C   C2504     1.0  0.84404  0.52281  0.35033  1.0000
  C   C2505     1.0  0.82426  0.52108  0.35933  1.0000
  C   C2506     1.0  0.81205  0.51317  0.34997  1.0000
  C   C2507     1.0  0.84563  0.95498  0.50796  1.0000
  H   H4250     1.0  0.81829  0.52593  0.37357  1.0000
  H   H4251     1.0  0.87070  0.95523  0.33054  1.0000
  C   C2508     1.0  0.85527  0.86919  0.56136  1.0000
  H   H4252     1.0  0.80058  0.88582  0.34627  1.0000
  C   C2509     1.0  0.95385  0.80760  0.64056  1.0000
  C   C2510     1.0  0.81343  0.60415  0.50806  1.0000
  C   C2511     1.0  0.80094  0.61526  0.52196  1.0000
  C   C2512     1.0  0.80901  0.62131  0.53649  1.0000
  C   C2513     1.0  0.82957  0.61638  0.53716  1.0000
  C   C2514     1.0  0.84207  0.60580  0.52291  1.0000
  C   C2515     1.0  0.83403  0.59978  0.50843  1.0000
  H   H4253     1.0  0.78509  0.61885  0.52172  1.0000
  H   H4254     1.0  0.79924  0.62952  0.54745  1.0000
  H   H4255     1.0  0.85792  0.60199  0.52319  1.0000
  H   H4256     1.0  0.84382  0.59135  0.49764  1.0000
  C   C2516     1.0  0.96192  0.83741  0.43445  1.0000
  H   H4257     1.0  0.76353  0.96873  0.48551  1.0000
  H   H4258     1.0  0.96924  0.49821  0.36756  1.0000
  H   H4259     1.0  0.79215  0.91329  0.32087  1.0000
  H   H4260     1.0  0.79734  0.97108  0.47032  1.0000
  H   H4261     1.0  0.81088  0.93458  0.48639  1.0000
  S   S742      1.0  0.85283  0.96469  0.62185  1.0000
  H   H4262     1.0  0.94188  0.52882  0.40833  1.0000
  C   C2517     1.0  0.79084  0.96823  0.51040  1.0000
  H   H4263     1.0  0.79826  0.93715  0.52051  1.0000
  H   H4264     1.0  0.96541  0.54081  0.42072  1.0000
  H   H4265     1.0  0.88236  0.76326  0.62840  1.0000
  H   H4266     1.0  0.79316  0.97211  0.52450  1.0000
  H   H4267     1.0  0.80551  0.90356  0.50546  1.0000
  H   H4268     1.0  0.97812  0.83285  0.42920  1.0000
  H   H4269     1.0  0.74001  0.49591  0.54752  1.0000
  S   S743      1.0  0.74189  0.60456  0.50227  1.0000
  H   H4270     1.0  0.82455  0.85819  0.38909  1.0000
  C   C2518     1.0  0.78486  0.91493  0.33644  1.0000
  H   H4271     1.0  0.82631  0.59072  0.38858  1.0000
  C   C2519     1.0  0.74177  0.50815  0.50783  1.0000
  Fe  Fe372     1.0  0.83242  0.96882  0.55625  1.0000
  H   H4272     1.0  0.76067  0.91994  0.51812  1.0000
  H   H4273     1.0  0.83542  0.53546  0.52228  1.0000
  H   H4274     1.0  0.76145  0.94042  0.46555  1.0000
  H   H4275     1.0  0.94245  0.62933  0.49393  1.0000
  H   H4276     1.0  0.93506  0.49844  0.58804  1.0000
  H   H4277     1.0  0.84487  0.96904  0.51284  1.0000
  C   C2520     1.0  0.97684  0.54961  0.61026  1.0000
  C   C2521     1.0  0.89044  0.89180  0.55511  1.0000
  C   C2522     1.0  0.87915  0.88009  0.59126  1.0000
  C   C2523     1.0  0.89109  0.85899  0.58922  1.0000
  H   H4278     1.0  0.89558  0.87616  0.55266  1.0000
  H   H4279     1.0  0.90375  0.89638  0.55843  1.0000
  H   H4280     1.0  0.88852  0.88719  0.59817  1.0000
  H   H4281     1.0  0.86566  0.87794  0.60276  1.0000
  H   H4282     1.0  0.88289  0.92023  0.53434  1.0000
  H   H4283     1.0  0.88390  0.85040  0.58176  1.0000
  H   H4284     1.0  0.89242  0.85024  0.60439  1.0000
  H   H4285     1.0  0.90656  0.85968  0.58120  1.0000
  H   H4286     1.0  0.76453  0.91761  0.40689  1.0000
  H   H4287     1.0  0.95997  0.52045  0.58782  1.0000
  C   C2524     1.0  0.78302  0.56988  0.55040  1.0000
  H   H4288     1.0  0.77354  0.93025  0.37042  1.0000
  C   C2525     1.0  0.85340  0.97822  0.64066  1.0000
  H   H4289     1.0  0.98048  0.56601  0.35254  1.0000
  H   H4290     1.0  0.84460  0.53468  0.44067  1.0000
  H   H4291     1.0  0.91544  0.76797  0.62978  1.0000
  C   C2526     1.0  0.75320  0.86580  0.43046  1.0000
  Fe  Fe373     1.0  0.75679  0.56901  0.46196  1.0000
  H   H4292     1.0  0.84805  0.90141  0.55677  1.0000
  C   C2527     1.0  0.74996  0.51433  0.57749  1.0000
  H   H4293     1.0  0.85163  0.97240  0.34326  1.0000
  C   C2528     1.0  0.80350  0.88606  0.38556  1.0000
  H   H4294     1.0  0.79888  0.57320  0.42561  1.0000
  H   H4295     1.0  0.75711  0.90345  0.37145  1.0000
  H   H4296     1.0  0.97079  0.54966  0.64203  1.0000
  C   C2529     1.0  0.96277  0.50406  0.59297  1.0000
  H   H4297     1.0  0.77911  0.98004  0.50457  1.0000
  H   H4298     1.0  0.88159  0.56149  0.40158  1.0000
  H   H4299     1.0  0.97292  0.50021  0.60407  1.0000
  H   H4300     1.0  0.81472  0.59052  0.42492  1.0000
  H   H4301     1.0  0.81078  0.58061  0.54646  1.0000
  H   H4302     1.0  0.76592  0.49670  0.46259  1.0000
  C   C2530     1.0  0.81556  0.56550  0.44924  1.0000
  C   C2531     1.0  0.84033  0.92057  0.51521  1.0000
  H   H4303     1.0  0.82432  0.52756  0.60383  1.0000
  Fe  Fe374     1.0  0.92720  0.53276  0.31882  1.0000
  H   H4304     1.0  0.93656  0.85774  0.49265  1.0000
  H   H4305     1.0  0.82087  0.55959  0.52340  1.0000
  H   H4306     1.0  0.90337  0.82116  0.43708  1.0000
  N   N179      1.0  0.81360  0.55303  0.56735  1.0000
  C   C2532     1.0  0.83188  0.55813  0.57248  1.0000
  C   C2533     1.0  0.82026  0.53883  0.55246  1.0000
  C   C2534     1.0  0.80106  0.54313  0.58565  1.0000
  C   C2535     1.0  0.77932  0.92192  0.40043  1.0000
  H   H4307     1.0  0.84267  0.54436  0.57662  1.0000
  H   H4308     1.0  0.80749  0.53261  0.55022  1.0000
  H   H4309     1.0  0.83084  0.52560  0.55827  1.0000
  H   H4310     1.0  0.79390  0.55391  0.59600  1.0000
  H   H4311     1.0  0.78841  0.53819  0.58148  1.0000
  H   H4312     1.0  0.82070  0.56331  0.60372  1.0000
  H   H4313     1.0  0.77280  0.85948  0.38560  1.0000
  H   H4314     1.0  0.78600  0.95979  0.45515  1.0000
  H   H4315     1.0  0.89441  0.91907  0.64027  1.0000
  N   N180      1.0  0.82950  0.56439  0.41172  1.0000
  N   N181      1.0  0.93329  0.82455  0.46162  1.0000
  H   H4316     1.0  0.78422  0.93084  0.33752  1.0000
  H   H4317     1.0  0.75276  0.87110  0.37197  1.0000
  H   H4318     1.0  0.75664  0.50085  0.50093  1.0000
  H   H4319     1.0  0.81265  0.54010  0.41789  1.0000
  H   H4320     1.0  0.83565  0.56792  0.37927  1.0000
  C   C2536     1.0  0.83918  0.50897  0.32233  1.0000
  C   C2537     1.0  0.86732  0.55966  0.39780  1.0000
  C   C2538     1.0  0.98568  0.58932  0.51595  1.0000
  H   H4321     1.0  0.96753  0.80460  0.52766  1.0000
  H   H4322     1.0  0.95578  0.85205  0.47241  1.0000
  H   H4323     1.0  0.81232  0.95473  0.45421  1.0000
  C   C2539     1.0  0.81421  0.57420  0.42715  1.0000
  C   C2540     1.0  0.82481  0.57461  0.39130  1.0000
  H   H4324     1.0  0.80662  0.85755  0.37417  1.0000
  H   H4325     1.0  0.90775  0.84415  0.42124  1.0000
  C   C2541     1.0  0.96878  0.52427  0.42139  1.0000
  H   H4326     1.0  0.95709  0.66344  0.53601  1.0000
  C   C2542     1.0  0.83916  0.93876  0.52160  1.0000
  H   H4327     1.0  0.97663  0.79731  0.61711  1.0000
  N   N182      1.0  0.93008  0.50303  0.61886  1.0000
  C   C2543     1.0  0.91929  0.83908  0.44924  1.0000
  C   C2544     1.0  0.78512  0.94723  0.51514  1.0000
  Fe  Fe375     1.0  0.77429  0.48906  0.33348  1.0000
  H   H4328     1.0  0.86798  0.54349  0.39821  1.0000
  H   H4329     1.0  0.77810  0.93777  0.40207  1.0000
  H   H4330     1.0  0.85384  0.56287  0.42792  1.0000
  H   H4331     1.0  0.78721  0.56138  0.53780  1.0000
  H   H4332     1.0  0.77538  0.58497  0.54438  1.0000
  H   H4333     1.0  0.75349  0.49320  0.43216  1.0000
  H   H4334     1.0  0.98183  0.66612  0.52282  1.0000
  H   H4335     1.0  0.95003  0.68043  0.47233  1.0000
  H   H4336     1.0  0.93738  0.67091  0.49635  1.0000
  H   H4337     1.0  0.77196  0.56291  0.56221  1.0000
  H   H4338     1.0  0.86684  0.56775  0.38228  1.0000
  H   H4339     1.0  0.79586  0.88095  0.40095  1.0000
  C   C2545     1.0  0.98408  0.80992  0.49775  1.0000
  H   H4340     1.0  0.95562  0.69159  0.51160  1.0000
  C   C2546     1.0  0.82847  0.54242  0.41414  1.0000
  H   H4341     1.0  0.92414  0.53210  0.58356  1.0000
  C   C2547     1.0  0.79641  0.93860  0.48089  1.0000
  H   H4342     1.0  0.91788  0.83370  0.48939  1.0000
  C   C2548     1.0  0.79647  0.97580  0.63997  1.0000
  H   H4343     1.0  0.95122  0.64291  0.51645  1.0000
  H   H4344     1.0  0.93819  0.57251  0.64113  1.0000
  H   H4345     1.0  0.76962  0.91145  0.33848  1.0000
  C   C2549     1.0  0.79747  0.90061  0.35110  1.0000
  H   H4346     1.0  0.80070  0.55823  0.39038  1.0000
  H   H4347     1.0  0.96019  0.85150  0.44024  1.0000
  C   C2550     1.0  0.79782  0.95728  0.46444  1.0000
  C   C2551     1.0  0.97107  0.65567  0.52797  1.0000
  H   H4348     1.0  0.73724  0.91092  0.45873  1.0000
  C   C2552     1.0  0.97912  0.79834  0.51658  1.0000
  C   C2553     1.0  0.76829  0.87166  0.37338  1.0000
  H   H4349     1.0  0.87272  0.96009  0.35416  1.0000
  S   S744      1.0  0.80436  0.49793  0.31853  1.0000
  H   H4350     1.0  0.89959  0.50231  0.63389  1.0000
  N   N183      1.0  0.84842  0.69388  0.54699  1.0000
  C   C2554     1.0  0.85597  0.67581  0.53675  1.0000
  C   C2555     1.0  0.85101  0.68722  0.56862  1.0000
  C   C2556     1.0  0.86106  0.70969  0.53685  1.0000
  C   C2557     1.0  0.82690  0.70111  0.54466  1.0000
  C   C2558     1.0  0.85745  0.67964  0.51374  1.0000
  C   C2559     1.0  0.83819  0.67173  0.58099  1.0000
  C   C2560     1.0  0.86185  0.72603  0.54876  1.0000
  C   C2561     1.0  0.81521  0.71793  0.55615  1.0000
  H   H4351     1.0  0.87110  0.66861  0.53998  1.0000
  H   H4352     1.0  0.84634  0.66417  0.54253  1.0000
  H   H4353     1.0  0.84773  0.69988  0.57698  1.0000
  H   H4354     1.0  0.86690  0.68074  0.56953  1.0000
  H   H4355     1.0  0.87690  0.70264  0.53277  1.0000
  H   H4356     1.0  0.85628  0.71754  0.52244  1.0000
  H   H4357     1.0  0.82571  0.70697  0.52867  1.0000
  H   H4358     1.0  0.81829  0.68850  0.54847  1.0000
  H   H4359     1.0  0.86850  0.68946  0.50614  1.0000
  H   H4360     1.0  0.86272  0.66512  0.50829  1.0000
  H   H4361     1.0  0.84282  0.68577  0.50897  1.0000
  H   H4362     1.0  0.84120  0.66834  0.59661  1.0000
  H   H4363     1.0  0.82202  0.67749  0.58171  1.0000
  H   H4364     1.0  0.84198  0.65731  0.57537  1.0000
  H   H4365     1.0  0.87006  0.71979  0.56145  1.0000
  H   H4366     1.0  0.84702  0.73415  0.55425  1.0000
  H   H4367     1.0  0.87040  0.73727  0.53882  1.0000
  H   H4368     1.0  0.81634  0.73288  0.54681  1.0000
  H   H4369     1.0  0.81976  0.71739  0.57067  1.0000
  H   H4370     1.0  0.79923  0.71631  0.55997  1.0000
  C   C2562     1.0  0.83988  0.52776  0.42977  1.0000
  C   C2563     1.0  0.77428  0.91929  0.50636  1.0000
  H   H4371     1.0  0.77285  0.94699  0.52833  1.0000
  H   H4372     1.0  0.79617  0.92623  0.47291  1.0000
  S   S745      1.0  0.86121  0.97265  0.56338  1.0000
  Fe  Fe376     1.0  0.84355  0.98094  0.59228  1.0000
  C   C2564     1.0  0.76681  0.52924  0.40968  1.0000
  H   H4373     1.0  0.92612  0.79778  0.45484  1.0000
  S   S746      1.0  0.76463  0.59981  0.45648  1.0000
  H   H4374     1.0  0.95199  0.78699  0.47937  1.0000
  C   C2565     1.0  0.95337  0.69449  0.49586  1.0000
  C   C2566     1.0  0.95239  0.50676  0.64382  1.0000
  H   H4375     1.0  0.95623  0.80745  0.44226  1.0000
  C   C2567     1.0  0.96979  0.55712  0.59208  1.0000
  H   H4376     1.0  0.84971  0.58482  0.41054  1.0000
  H   H4377     1.0  0.83435  0.53702  0.39964  1.0000
  H   H4378     1.0  0.90895  0.80802  0.47431  1.0000
  H   H4379     1.0  0.93910  0.70509  0.49516  1.0000
  C   C2568     1.0  0.96664  0.64619  0.51132  1.0000
  H   H4380     1.0  0.92804  0.82345  0.42303  1.0000
  H   H4381     1.0  0.84455  0.55300  0.53222  1.0000
  C   C2569     1.0  0.95180  0.67545  0.48835  1.0000
  H   H4382     1.0  0.96514  0.81534  0.46095  1.0000
  H   H4383     1.0  0.74265  0.53171  0.48168  1.0000
  H   H4384     1.0  0.82984  0.56651  0.45343  1.0000
  H   H4385     1.0  0.93074  0.77466  0.48426  1.0000
  H   H4386     1.0  0.79551  0.58214  0.57003  1.0000
  H   H4387     1.0  0.83851  0.91876  0.59200  1.0000
  S   S747      1.0  0.95037  0.52503  0.33900  1.0000
  C   C2570     1.0  0.88621  0.90384  0.53461  1.0000
  C   C2571     1.0  0.80130  0.57214  0.55869  1.0000
  N   N184      1.0  0.87340  0.89354  0.57243  1.0000
  H   H4388     1.0  0.86956  0.86403  0.55220  1.0000
  H   H4389     1.0  0.84012  0.56688  0.55918  1.0000
  H   H4390     1.0  0.81952  0.58592  0.58498  1.0000
  H   H4391     1.0  0.93094  0.79314  0.49871  1.0000
  C   C2572     1.0  0.95431  0.82028  0.45034  1.0000
  H   H4392     1.0  0.86480  0.92556  0.56287  1.0000
  H   H4393     1.0  0.79684  0.51206  0.35700  1.0000
  H   H4394     1.0  0.85677  0.96595  0.47702  1.0000
  H   H4395     1.0  0.84406  0.87102  0.55143  1.0000
  H   H4396     1.0  0.85300  0.93570  0.59553  1.0000
  H   H4397     1.0  0.97648  0.82515  0.49445  1.0000
  C   C2573     1.0  0.95216  0.72951  0.64095  1.0000
  H   H4398     1.0  0.78280  0.52826  0.40550  1.0000
  C   C2574     1.0  0.76069  0.95345  0.49250  1.0000
  C   C2575     1.0  0.93550  0.78923  0.48344  1.0000
  C   C2576     1.0  0.78545  0.92019  0.37801  1.0000
  C   C2577     1.0  0.92513  0.80515  0.46798  1.0000
  H   H4399     1.0  0.85311  0.51854  0.42212  1.0000
  H   H4400     1.0  0.80373  0.57439  0.45871  1.0000
  C   C2578     1.0  0.94712  0.63742  0.47867  1.0000
  H   H4401     1.0  0.79197  0.58359  0.39532  1.0000
  C   C2579     1.0  0.80403  0.57367  0.38709  1.0000
  C   C2580     1.0  0.93951  0.85305  0.47772  1.0000
  H   H4402     1.0  0.94847  0.62680  0.46821  1.0000
  C   C2581     1.0  0.91566  0.53633  0.59789  1.0000
  H   H4403     1.0  0.95557  0.50414  0.40864  1.0000
  C   C2582     1.0  0.76894  0.89227  0.37815  1.0000
  S   S748      1.0  0.82878  0.94091  0.54651  1.0000
  H   H4404     1.0  0.93095  0.86498  0.46798  1.0000
  H   H4405     1.0  0.92493  0.85333  0.44297  1.0000
  C   C2583     1.0  0.92585  0.52560  0.61598  1.0000
  C   C2584     1.0  0.95723  0.52010  0.40621  1.0000
  C   C2585     1.0  0.88729  0.75892  0.64324  1.0000
  H   H4406     1.0  0.95451  0.84037  0.42112  1.0000
  H   H4407     1.0  0.94293  0.82215  0.49016  1.0000
  H   H4408     1.0  0.80361  0.57913  0.37090  1.0000
  C   C2586     1.0  0.93307  0.83256  0.48039  1.0000
  H   H4409     1.0  0.91488  0.55272  0.59649  1.0000
  H   H4410     1.0  0.97599  0.63106  0.51179  1.0000
  H   H4411     1.0  0.78537  0.49037  0.44288  1.0000
  H   H4412     1.0  0.83014  0.51703  0.43860  1.0000
  C   C2587     1.0  0.84978  0.56838  0.41288  1.0000
  H   H4413     1.0  0.77665  0.52241  0.55857  1.0000
  H   H4414     1.0  0.82696  0.87139  0.36409  1.0000
  H   H4415     1.0  0.93518  0.65006  0.47468  1.0000
  S   S749      1.0  0.81531  0.97436  0.58614  1.0000
  H   H4416     1.0  0.83543  0.90794  0.52568  1.0000
  C   C2588     1.0  0.81191  0.52435  0.59781  1.0000
  H   H4417     1.0  0.76325  0.89117  0.39447  1.0000
  H   H4418     1.0  0.81736  0.51203  0.58899  1.0000
  H   H4419     1.0  0.75760  0.85310  0.42272  1.0000
  H   H4420     1.0  0.79913  0.92703  0.37239  1.0000
  C   C2589     1.0  0.91040  0.49587  0.62161  1.0000
  H   H4421     1.0  0.81480  0.89456  0.38751  1.0000
  C   C2590     1.0  0.97989  0.57211  0.36590  1.0000
  H   H4422     1.0  0.97858  0.63030  0.47821  1.0000
  S   S750      1.0  0.76297  0.49804  0.59528  1.0000
  H   H4423     1.0  0.97791  0.64364  0.53906  1.0000
  H   H4424     1.0  0.91471  0.74226  0.63085  1.0000
  C   C2591     1.0  0.91031  0.75456  0.63980  1.0000
  H   H4425     1.0  0.80109  0.51864  0.61086  1.0000
  C   C2592     1.0  0.75053  0.53840  0.54651  1.0000
  C   C2593     1.0  0.81585  0.86727  0.37754  1.0000
  H   H4426     1.0  0.96410  0.52490  0.39048  1.0000
  N   N185      1.0  0.96869  0.65797  0.49032  1.0000
  H   H4427     1.0  0.96826  0.73031  0.63587  1.0000
  H   H4428     1.0  0.77732  0.86871  0.35888  1.0000
  H   H4429     1.0  0.90003  0.53392  0.59995  1.0000
  H   H4430     1.0  0.96175  0.51773  0.43664  1.0000
  H   H4431     1.0  0.93972  0.53183  0.61419  1.0000
  C   C2594     1.0  0.96744  0.64425  0.47632  1.0000
  H   H4432     1.0  0.86658  0.51797  0.32463  1.0000
  C   C2595     1.0  0.94333  0.49550  0.60083  1.0000
  H   H4433     1.0  0.97832  0.59417  0.41379  1.0000
  H   H4434     1.0  0.75884  0.54648  0.53363  1.0000
  S   S751      1.0  0.74425  0.50907  0.33389  1.0000
  H   H4435     1.0  0.94601  0.72929  0.62746  1.0000
  C   C2596     1.0  0.93907  0.49447  0.63767  1.0000
  H   H4436     1.0  0.77065  0.91276  0.49435  1.0000
  H   H4437     1.0  0.92546  0.93073  0.64434  1.0000
  C   C2597     1.0  0.97892  0.58809  0.40042  1.0000
  H   H4438     1.0  0.91625  0.53070  0.62960  1.0000
  H   H4439     1.0  0.96458  0.51104  0.63178  1.0000
  H   H4440     1.0  0.81030  0.97758  0.62913  1.0000
  H   H4441     1.0  0.97116  0.65143  0.46037  1.0000
  C   C2598     1.0  0.86794  0.96722  0.33960  1.0000
  H   H4442     1.0  0.94583  0.76148  0.64091  1.0000
  H   H4443     1.0  0.97837  0.54599  0.44718  1.0000
  C   C2599     1.0  0.74180  0.89833  0.45082  1.0000
  Fe  Fe377     1.0  0.73844  0.49438  0.36618  1.0000
  H   H4444     1.0  0.74481  0.51840  0.51694  1.0000
  C   C2600     1.0  0.75059  0.94605  0.47809  1.0000
  H   H4445     1.0  0.90422  0.94828  0.32198  1.0000
  H   H4446     1.0  0.78973  0.96450  0.63546  1.0000
  H   H4447     1.0  0.74925  0.95563  0.50610  1.0000
  H   H4448     1.0  0.73971  0.95855  0.47163  1.0000
  H   H4449     1.0  0.74207  0.93400  0.48616  1.0000
  H   H4450     1.0  0.98664  0.48706  0.43269  1.0000
  S   S752      1.0  0.98698  0.76639  0.54608  1.0000
  C   C2601     1.0  0.98628  0.58764  0.48122  1.0000
  H   H4451     1.0  0.77111  0.62336  0.91699  1.0000
  C   C2602     1.0  0.78526  0.89712  0.85715  1.0000
  H   H4452     1.0  0.87295  0.77255  0.95744  1.0000
  H   H4453     1.0  0.74804  0.89436  0.96579  1.0000
  H   H4454     1.0  0.94371  0.52957  0.86601  1.0000
  H   H4455     1.0  0.84729  0.65489  0.97037  1.0000
  H   H4456     1.0  0.98142  0.77761  0.82537  1.0000
  H   H4457     1.0  0.89600  0.53901  0.89137  1.0000
  H   H4458     1.0  0.93487  0.81836  0.66628  1.0000
  H   H4459     1.0  0.77529  0.89466  0.84747  1.0000
  H   H4460     1.0  0.76845  0.92440  0.82699  1.0000
  H   H4461     1.0  0.76291  0.89190  0.90812  1.0000
  C   C2603     1.0  0.89308  0.66905  0.94197  1.0000
  H   H4462     1.0  0.91124  0.53621  0.82493  1.0000
  H   H4463     1.0  0.88132  0.92812  0.66257  1.0000
  H   H4464     1.0  0.88941  0.68374  0.93226  1.0000
  C   C2604     1.0  0.75492  0.89101  0.89606  1.0000
  C   C2605     1.0  0.95668  0.50389  0.88473  1.0000
  N   N186      1.0  0.91444  0.93739  0.67425  1.0000
  C   C2606     1.0  0.91379  0.62192  0.93247  1.0000
  H   H4465     1.0  0.81271  0.92826  0.86434  1.0000
  C   C2607     1.0  0.78145  0.60959  0.92189  1.0000
  S   S753      1.0  0.94710  0.86056  0.74470  1.0000
  H   H4466     1.0  0.87905  0.80036  0.96852  1.0000
  S   S754      1.0  0.92955  0.95559  0.72897  1.0000
  Fe  Fe378     1.0  0.83470  0.57143  0.93576  1.0000
  S   S755      1.0  0.81643  0.56417  0.91542  1.0000
  S   S756      1.0  0.83724  0.60393  0.93482  1.0000
  Fe  Fe379     1.0  0.84494  0.52792  0.95436  1.0000
  S   S757      1.0  0.82789  0.51718  0.93578  1.0000
  C   C2608     1.0  0.91403  0.73027  0.67035  1.0000
  Fe  Fe380     1.0  0.84140  0.53839  0.91034  1.0000
  S   S758      1.0  0.85149  0.53006  0.87936  1.0000
  Fe  Fe381     1.0  0.80433  0.54332  0.94231  1.0000
  S   S759      1.0  0.77323  0.53617  0.95280  1.0000
  S   S760      1.0  0.86076  0.54730  0.92837  1.0000
  S   S761      1.0  0.82037  0.55266  0.96314  1.0000
  H   H4467     1.0  0.94993  0.65328  0.91054  1.0000
  H   H4468     1.0  0.76426  0.94572  0.86341  1.0000
  H   H4469     1.0  0.92029  0.49735  0.90241  1.0000
  C   C2609     1.0  0.86693  0.49905  0.85842  1.0000
  H   H4470     1.0  0.88446  0.75333  0.97485  1.0000
  C   C2610     1.0  0.75547  0.54188  0.93671  1.0000
  C   C2611     1.0  0.75752  0.51345  0.87411  1.0000
  H   H4471     1.0  0.96977  0.63394  0.91712  1.0000
  H   H4472     1.0  0.76981  0.56411  0.91546  1.0000
  H   H4473     1.0  0.89579  0.90553  0.71561  1.0000
  H   H4474     1.0  0.74612  0.90699  0.86860  1.0000
  C   C2612     1.0  0.86063  0.50467  0.87742  1.0000
  C   C2613     1.0  0.91251  0.50835  0.89121  1.0000
  H   H4475     1.0  0.78795  0.88273  0.86760  1.0000
  H   H4476     1.0  0.86546  0.51021  0.84512  1.0000
  H   H4477     1.0  0.96543  0.70750  0.79936  1.0000
  C   C2614     1.0  0.94250  0.88697  0.74142  1.0000
  C   C2615     1.0  0.92300  0.89713  0.74650  1.0000
  C   C2616     1.0  0.91884  0.91820  0.74326  1.0000
  C   C2617     1.0  0.93420  0.92921  0.73488  1.0000
  C   C2618     1.0  0.95373  0.91906  0.73010  1.0000
  C   C2619     1.0  0.95789  0.89802  0.73337  1.0000
  H   H4478     1.0  0.91107  0.88864  0.75284  1.0000
  H   H4479     1.0  0.90376  0.92589  0.74707  1.0000
  H   H4480     1.0  0.96568  0.92749  0.72362  1.0000
  H   H4481     1.0  0.97297  0.89034  0.72951  1.0000
  H   H4482     1.0  0.79933  0.54367  0.88874  1.0000
  H   H4483     1.0  0.90738  0.77177  0.97361  1.0000
  C   C2620     1.0  0.92490  0.48775  0.86450  1.0000
  H   H4484     1.0  0.95123  0.71515  0.65139  1.0000
  H   H4485     1.0  0.97128  0.50918  0.88068  1.0000
  C   C2621     1.0  0.96586  0.81695  0.66774  1.0000
  H   H4486     1.0  0.91827  0.91009  0.66167  1.0000
  H   H4487     1.0  0.88458  0.94076  0.69133  1.0000
  S   S762      1.0  0.83892  0.97076  0.79239  1.0000
  H   H4488     1.0  0.96276  0.82241  0.68183  1.0000
  H   H4489     1.0  0.76097  0.87685  0.89019  1.0000
  C   C2622     1.0  0.92450  0.70218  0.95138  1.0000
  C   C2623     1.0  0.93375  0.70729  0.93148  1.0000
  C   C2624     1.0  0.95280  0.69711  0.92453  1.0000
  C   C2625     1.0  0.96254  0.68176  0.93750  1.0000
  C   C2626     1.0  0.95349  0.67709  0.95748  1.0000
  H   H4490     1.0  0.79657  0.49037  0.93988  1.0000
  H   H4491     1.0  0.92603  0.71885  0.92133  1.0000
  H   H4492     1.0  0.95973  0.70081  0.90907  1.0000
  H   H4493     1.0  0.85094  0.95275  0.66428  1.0000
  C   C2627     1.0  0.90996  0.97379  0.68072  1.0000
  H   H4494     1.0  0.89741  0.76488  0.67936  1.0000
  C   C2628     1.0  0.94475  0.91162  0.68516  1.0000
  H   H4495     1.0  0.93903  0.77575  0.67538  1.0000
  C   C2629     1.0  0.84248  0.61195  0.95566  1.0000
  C   C2630     1.0  0.84264  0.63238  0.95491  1.0000
  Fe  Fe382     1.0  0.89932  0.97417  0.73757  1.0000
  H   H4496     1.0  0.85181  0.97122  0.69133  1.0000
  C   C2631     1.0  0.80552  0.89969  0.84388  1.0000
  H   H4497     1.0  0.83940  0.64300  0.94169  1.0000
  H   H4498     1.0  0.85783  0.49423  0.90920  1.0000
  H   H4499     1.0  0.81123  0.92770  0.89054  1.0000
  H   H4500     1.0  0.90908  0.89879  0.69261  1.0000
  H   H4501     1.0  0.96110  0.66541  0.96763  1.0000
  H   H4502     1.0  0.73922  0.89020  0.90331  1.0000
  H   H4503     1.0  0.79625  0.51767  0.85832  1.0000
  C   C2632     1.0  0.87023  0.76370  0.97282  1.0000
  S   S763      1.0  0.89997  0.71367  0.95951  1.0000
  H   H4504     1.0  0.79409  0.94568  0.87735  1.0000
  H   H4505     1.0  0.76176  0.52664  0.86323  1.0000
  H   H4506     1.0  0.90312  0.52653  0.91473  1.0000
  H   H4507     1.0  0.79177  0.51921  0.91352  1.0000
  H   H4508     1.0  0.81598  0.51522  0.87171  1.0000
  H   H4509     1.0  0.76036  0.49783  0.90368  1.0000
  C   C2633     1.0  0.94268  0.63280  0.93918  1.0000
  C   C2634     1.0  0.92551  0.76993  0.68410  1.0000
  Fe  Fe383     1.0  0.85844  0.98262  0.76344  1.0000
  C   C2635     1.0  0.76740  0.50972  0.89290  1.0000
  N   N187      1.0  0.92016  0.63662  0.94229  1.0000
  H   H4510     1.0  0.91808  0.62524  0.91591  1.0000
  H   H4511     1.0  0.75889  0.94996  0.82881  1.0000
  C   C2636     1.0  0.84668  0.59836  0.97282  1.0000
  H   H4512     1.0  0.89616  0.63708  0.96806  1.0000
  C   C2637     1.0  0.97688  0.70553  0.80908  1.0000
  H   H4513     1.0  0.90967  0.78114  0.65982  1.0000
  H   H4514     1.0  0.93519  0.60971  0.97702  1.0000
  C   C2638     1.0  0.79696  0.50436  0.90872  1.0000
  H   H4515     1.0  0.90071  0.97021  0.69559  1.0000
  H   H4516     1.0  0.77588  0.59626  0.92015  1.0000
  H   H4517     1.0  0.80132  0.55021  0.86231  1.0000
  H   H4518     1.0  0.88062  0.66085  0.94364  1.0000
  H   H4519     1.0  0.86105  0.74123  0.96038  1.0000
  C   C2639     1.0  0.75713  0.55644  0.91946  1.0000
  H   H4520     1.0  0.88258  0.90782  0.69569  1.0000
  H   H4521     1.0  0.77754  0.91950  0.89785  1.0000
  H   H4522     1.0  0.93605  0.52640  0.82954  1.0000
  H   H4523     1.0  0.80448  0.91324  0.83215  1.0000
  N   N188      1.0  0.77536  0.91390  0.86852  1.0000
  C   C2640     1.0  0.90926  0.95953  0.66648  1.0000
  C   C2641     1.0  0.76316  0.58535  0.96204  1.0000
  C   C2642     1.0  0.78323  0.98120  0.82486  1.0000
  C   C2643     1.0  0.74214  0.56122  0.90747  1.0000
  C   C2644     1.0  0.85243  0.96838  0.66061  1.0000
  H   H4524     1.0  0.88567  0.61672  0.95264  1.0000
  H   H4525     1.0  0.88075  0.74546  0.65091  1.0000
  H   H4526     1.0  0.79150  0.62210  0.94334  1.0000
  H   H4527     1.0  0.89783  0.50363  0.89262  1.0000
  C   C2645     1.0  0.92377  0.72130  0.68906  1.0000
  H   H4528     1.0  0.90363  0.93654  0.70602  1.0000
  H   H4529     1.0  0.76252  0.52330  0.89998  1.0000
  H   H4530     1.0  0.89381  0.67243  0.95680  1.0000
  H   H4531     1.0  0.79583  0.90004  0.88947  1.0000
  H   H4532     1.0  0.91442  0.60098  0.97103  1.0000
  C   C2646     1.0  0.98559  0.81231  0.65829  1.0000
  H   H4533     1.0  0.98406  0.72888  0.75974  1.0000
  C   C2647     1.0  0.76044  0.93454  0.83762  1.0000
  H   H4534     1.0  0.96773  0.73863  0.78089  1.0000
  S   S764      1.0  0.74997  0.95090  0.91032  1.0000
  Fe  Fe384     1.0  0.97835  0.84546  0.73353  1.0000
  C   C2648     1.0  0.74887  0.91932  0.94136  1.0000
  H   H4535     1.0  0.78643  0.93852  0.84699  1.0000
  H   H4536     1.0  0.73775  0.52055  0.95497  1.0000
  H   H4537     1.0  0.93605  0.94131  0.69116  1.0000
  H   H4538     1.0  0.88258  0.63504  0.93007  1.0000
  S   S765      1.0  0.98438  0.81337  0.72836  1.0000
  N   N189      1.0  0.76766  0.60616  0.96003  1.0000
  H   H4539     1.0  0.92420  0.66770  0.93319  1.0000
  C   C2649     1.0  0.90825  0.52879  0.89826  1.0000
  C   C2650     1.0  0.77212  0.93372  0.85463  1.0000
  N   N190      1.0  0.78982  0.50414  0.88962  1.0000
  C   C2651     1.0  0.80363  0.97411  0.81885  1.0000
  H   H4540     1.0  0.91319  0.65897  0.91642  1.0000
  N   N191      1.0  0.92392  0.50793  0.87027  1.0000
  H   H4541     1.0  0.95043  0.74652  0.66376  1.0000
  H   H4542     1.0  0.89388  0.96338  0.66298  1.0000
  H   H4543     1.0  0.95948  0.49761  0.65649  1.0000
  H   H4544     1.0  0.94942  0.50878  0.89914  1.0000
  H   H4545     1.0  0.96020  0.91120  0.68752  1.0000
  C   C2652     1.0  0.89695  0.90979  0.69908  1.0000
  H   H4546     1.0  0.81353  0.50228  0.90634  1.0000
  S   S766      1.0  0.85935  0.50408  0.97669  1.0000
  S   S767      1.0  0.86909  0.96833  0.73558  1.0000
  C   C2653     1.0  0.80223  0.93001  0.87844  1.0000
  H   H4547     1.0  0.75812  0.58356  0.94834  1.0000
  C   C2654     1.0  0.85513  0.75017  0.97259  1.0000
  H   H4548     1.0  0.91714  0.78164  0.69292  1.0000
  H   H4549     1.0  0.92988  0.75638  0.69487  1.0000
  H   H4550     1.0  0.91640  0.71851  0.66082  1.0000
  H   H4551     1.0  0.92161  0.53607  0.89509  1.0000
  H   H4552     1.0  0.77688  0.57386  0.96267  1.0000
  C   C2655     1.0  0.91897  0.61300  0.97662  1.0000
  C   C2656     1.0  0.91226  0.76656  0.67009  1.0000
  C   C2657     1.0  0.89969  0.93200  0.69294  1.0000
  H   H4553     1.0  0.94569  0.93993  0.66558  1.0000
  H   H4554     1.0  0.81689  0.89993  0.85293  1.0000
  H   H4555     1.0  0.77763  0.54662  0.87694  1.0000
  H   H4556     1.0  0.74106  0.51677  0.87873  1.0000
  C   C2658     1.0  0.75507  0.90951  0.87920  1.0000
  H   H4557     1.0  0.98183  0.48880  0.71344  1.0000
  C   C2659     1.0  0.85292  0.97878  0.67594  1.0000
  H   H4558     1.0  0.84171  0.79262  0.97034  1.0000
  H   H4559     1.0  0.75552  0.63615  0.94671  1.0000
  C   C2660     1.0  0.94452  0.51308  0.86776  1.0000
  H   H4560     1.0  0.79767  0.59565  0.94560  1.0000
  C   C2661     1.0  0.74007  0.90403  0.95460  1.0000
  H   H4561     1.0  0.97909  0.71791  0.83541  1.0000
  H   H4562     1.0  0.92168  0.60648  0.93709  1.0000
  H   H4563     1.0  0.74331  0.61714  0.94322  1.0000
  H   H4564     1.0  0.93686  0.48528  0.85145  1.0000
  H   H4565     1.0  0.94857  0.61691  0.94481  1.0000
  H   H4566     1.0  0.88889  0.60908  0.92903  1.0000
  C   C2662     1.0  0.91341  0.65800  0.93265  1.0000
  H   H4567     1.0  0.95022  0.62769  0.90769  1.0000
  H   H4568     1.0  0.77357  0.49193  0.93172  1.0000
  H   H4569     1.0  0.91498  0.72755  0.70236  1.0000
  H   H4570     1.0  0.79582  0.61017  0.91139  1.0000
  H   H4571     1.0  0.89649  0.52150  0.85889  1.0000
  H   H4572     1.0  0.91922  0.96395  0.65211  1.0000
  H   H4573     1.0  0.81100  0.88665  0.83598  1.0000
  C   C2663     1.0  0.91239  0.52347  0.85621  1.0000
  H   H4574     1.0  0.96867  0.73644  0.81608  1.0000
  C   C2664     1.0  0.78742  0.91504  0.88414  1.0000
  H   H4575     1.0  0.84049  0.75881  0.96946  1.0000
  C   C2665     1.0  0.95340  0.63727  0.91729  1.0000
  H   H4576     1.0  0.77619  0.97732  0.84023  1.0000
  H   H4577     1.0  0.74509  0.93144  0.84321  1.0000
  H   H4578     1.0  0.95436  0.71875  0.83165  1.0000
  H   H4579     1.0  0.93678  0.90494  0.69972  1.0000
  H   H4580     1.0  0.92441  0.70481  0.69208  1.0000
  C   C2666     1.0  0.89142  0.62091  0.93649  1.0000
  H   H4581     1.0  0.74632  0.92261  0.88593  1.0000
  H   H4582     1.0  0.94814  0.64181  0.94794  1.0000
  H   H4583     1.0  0.91203  0.53886  0.85893  1.0000
  C   C2667     1.0  0.91271  0.63390  0.96457  1.0000
  C   C2668     1.0  0.79946  0.51880  0.87314  1.0000
  H   H4584     1.0  0.74328  0.57266  0.89425  1.0000
  C   C2669     1.0  0.73854  0.93210  0.92695  1.0000
  C   C2670     1.0  0.79386  0.54099  0.87571  1.0000
  H   H4585     1.0  0.76363  0.92135  0.94242  1.0000
  H   H4586     1.0  0.80517  0.59522  0.97540  1.0000
  C   C2671     1.0  0.93536  0.93358  0.67879  1.0000
  C   C2672     1.0  0.96961  0.72065  0.82371  1.0000
  H   H4587     1.0  0.93942  0.72341  0.68721  1.0000
  H   H4588     1.0  0.89770  0.73234  0.67590  1.0000
  C   C2673     1.0  0.78529  0.60843  0.94337  1.0000
  H   H4589     1.0  0.95395  0.50890  0.85369  1.0000
  C   C2674     1.0  0.86248  0.49014  0.89450  1.0000
  H   H4590     1.0  0.92542  0.97395  0.68255  1.0000
  H   H4591     1.0  0.73824  0.63641  0.98078  1.0000
  H   H4592     1.0  0.94345  0.52046  0.64916  1.0000
  C   C2675     1.0  0.95008  0.81464  0.65888  1.0000
  C   C2676     1.0  0.91404  0.92648  0.65756  1.0000
  H   H4593     1.0  0.98582  0.75242  0.76533  1.0000
  C   C2677     1.0  0.92041  0.52375  0.83365  1.0000
  N   N192      1.0  0.91993  0.74953  0.65834  1.0000
  H   H4594     1.0  0.84666  0.58260  0.97357  1.0000
  H   H4595     1.0  0.76083  0.50018  0.86660  1.0000
  H   H4596     1.0  0.80023  0.96947  0.65508  1.0000
  H   H4597     1.0  0.94606  0.90221  0.67364  1.0000
  C   C2678     1.0  0.93462  0.68734  0.96443  1.0000
  C   C2679     1.0  0.74712  0.57851  0.97961  1.0000
  H   H4598     1.0  0.96012  0.48743  0.88675  1.0000
  S   S768      1.0  0.98525  0.66705  0.92905  1.0000
  H   H4599     1.0  0.91794  0.64490  0.97117  1.0000
  H   H4600     1.0  0.88102  0.77160  0.65143  1.0000
  C   C2680     1.0  0.84719  0.63915  0.97110  1.0000
  C   C2681     1.0  0.94219  0.74766  0.65134  1.0000
  C   C2682     1.0  0.81305  0.97947  0.79900  1.0000
  H   H4601     1.0  0.91920  0.50978  0.82879  1.0000
  H   H4602     1.0  0.92801  0.68383  0.97994  1.0000
  C   C2683     1.0  0.73907  0.53184  0.94165  1.0000
  H   H4603     1.0  0.92717  0.49232  0.65102  1.0000
  C   C2684     1.0  0.75027  0.62186  0.95430  1.0000
  C   C2685     1.0  0.77352  0.60964  0.97874  1.0000
  H   H4604     1.0  0.81224  0.96469  0.82969  1.0000
  H   H4605     1.0  0.97637  0.69050  0.81851  1.0000
  C   C2686     1.0  0.98306  0.73703  0.77222  1.0000
  C   C2687     1.0  0.78997  0.48895  0.92698  1.0000
  H   H4606     1.0  0.77746  0.62490  0.97632  1.0000
  C   C2688     1.0  0.89393  0.93006  0.65010  1.0000
  H   H4607     1.0  0.91098  0.48721  0.85920  1.0000
  H   H4608     1.0  0.81659  0.51331  0.98125  1.0000
