data_image0
_chemical_formula_structural       CH4SH2C3H10C3HFeHCH4SH4NH5CH2SFeCH2SHC2SHC4H2SFeH9SCHCHSC5FeN2H3CHCFeCHCH4CH7C2NC3HNHCSH2FeH2C6H3CHSCH3SHCH2C2SH10CH5C2SH2SH3FeH4CSC2HC2FeC2H2SHCH2SCH6C3H2CSCNH2CHC2HFeHS2C3H2CHCFeNHFe2SH5CH3C2H4CH2C3HSH5Fe2CH3CHCHC2SCHC2H2C2H4CH2C2SH4CSH3C3H6NH4C2HFeH2CNSH2SCSCH2CH3FeCHFeHCH3C3HSC2HCHC2H2SH7CSCHCHCHCHC3SHCHSH2CFeH9SH2CFeH2CH2C4HSHCSHSHCHCH3SFeCH2C4NHCHSC2H2FeH3SC2H3C2H4CH3C2H5FeH2FeHC2H3C2SH4FeSHSFeSH2CHSCH4S2C2SHFeHSCH4C4HC2H2C2FeSCH2SC2NC2H3CHNH5SHCHSHC2H3CHC2H3FeS2CFeC3HC2H5CSCH4CHNCSH3C3SHCSH2CH3CH4CH2C2HCHSCH5C2H2CHCHCHCH2CH4CSH2SCH2CFeC2H2FeCH3FeCHFeHSHFeSH3CH2NC2HC3H2CH5CH2CHCH5CH8SCH2CSH2NFeC2SHC2FeC2FeHC3HSH4SCH5CHCHCSH2C2HCHNCH2C2HCH2CH6C2H4FeCH3C2HSCHC2SC4HC2H3C2HFeCH3NHC2H6CHCHC3H2SHNSH2CH10CH3NH3CHNCSHC3H2C2HCH2C2H2CSC2SHFeH2FeSHC3H2SHSH5CH3CHSFeC2HC2HS2H2SCHFeH2C2H3CHCH2CHC3H2C2SHCFeCHCH3SHCH2NC3HCHC3HCHCH3SHCHCHCHC4SH2FeSH4FeNHSCHCHCHSH2CH2CH2CH3CHCH2S2HCH3C2H4FeH2C2H2C2H7CH2CHNH3SH2SC2FeCHCHCH2CH2SCH4CHCH5CSHCHFeH2CHCH4CHFeH5SCH2CH3CFeCH2SC2H2NHCNC4HC3SH3CH5CH2SCHCHFeSCH2FeH2FeH3CSHC2SHC2H2FeH3CSHC2H3CH4SCHCH2CHC3HNH2SH3CHCHSCH3SCHNC2FeC2HC2H3C2HC2SH2SH4CH10NFeSH2CFeH2FeC2SH5C3HN2HCH3CHSHCHC2SCSH2CH3CHCH6CFeCHSCH4CSCH6FeHC3S2HCHSC2H2CH2CSH4FeH4FeCH3SHC2NC2H2CHSH2CH5CHFeH5C2H4SH3C2HSH2C2HCHCH2C2H2CNCFeH2CHSHCH4SCH2C2H3CHC2H2NHS2H2C2H2C3SH4C2FeSHCH4SCHSFeHC2NFeHCH2S2H2C2H3C3H3CHCH3CHCH3SC2H2SHCH2CSHCHFeC2H2C2H3FeSCFeH3FeH2SH2FeCHCSH2CHFeH3C2H2C2HCNH3CHC2SHCFeNCH3SHSHC2HSCS2C2H3CSHCHCH5NHC3H8CHC4HCNHSHC3HSHCH3S2FeHCHCSFeCH3C2H7C2HC4HSHCHC2HCH2NHC2H4SH3SCHCHSH4CHSH3C4HCHCH3CH2C5H3CFeH2SC2H2CH2NFeCFeC
_chemical_formula_sum              "C560 H960 S160 Fe80 N40"
_cell_length_a       15.8376
_cell_length_b       47.5275
_cell_length_c       31.5497
_cell_angle_alpha    87.946
_cell_angle_beta     89.0344
_cell_angle_gamma    80.8407

_space_group_name_H-M_alt    "P 1"
_space_group_IT_number       1

loop_
  _space_group_symop_operation_xyz
  'x, y, z'

loop_
  _atom_site_type_symbol
  _atom_site_label
  _atom_site_symmetry_multiplicity
  _atom_site_fract_x
  _atom_site_fract_y
  _atom_site_fract_z
  _atom_site_occupancy
  C   C1        1.0  0.37322  0.15071  0.45567  1.0000
  H   H1        1.0  0.81234  0.31856  0.55923  1.0000
  H   H2        1.0  0.54487  0.31122  0.60524  1.0000
  H   H3        1.0  0.15791  0.14571  0.47694  1.0000
  H   H4        1.0  0.82379  0.28317  0.54020  1.0000
  S   S1        1.0  0.87502  0.30448  0.42847  1.0000
  H   H5        1.0  0.47096  0.28650  0.60353  1.0000
  H   H6        1.0  0.18691  0.13361  0.57067  1.0000
  C   C2        1.0  0.84505  0.16213  0.52922  1.0000
  C   C3        1.0  0.41007  0.20373  0.49664  1.0000
  C   C4        1.0  0.90068  0.13348  0.54148  1.0000
  H   H7        1.0  0.36714  0.12667  0.60680  1.0000
  H   H8        1.0  0.00661  0.16139  0.48655  1.0000
  H   H9        1.0  0.78659  0.31407  0.50596  1.0000
  H   H10       1.0  0.21760  0.21212  0.61191  1.0000
  H   H11       1.0  0.53864  0.18670  0.48007  1.0000
  H   H12       1.0  0.47086  0.19455  0.43583  1.0000
  H   H13       1.0  0.59359  0.23121  0.58279  1.0000
  H   H14       1.0  0.13945  0.19546  0.63986  1.0000
  H   H15       1.0  0.23494  0.26174  0.58826  1.0000
  H   H16       1.0  0.12939  0.28083  0.59444  1.0000
  C   C5        1.0  0.23260  0.30634  0.60196  1.0000
  C   C6        1.0  0.92700  0.12032  0.46623  1.0000
  C   C7        1.0  0.65560  0.28201  0.48726  1.0000
  H   H17       1.0  0.85673  0.11799  0.54947  1.0000
  Fe  Fe1       1.0  0.06306  0.21209  0.44065  1.0000
  H   H18       1.0  0.97591  0.11105  0.44279  1.0000
  C   C8        1.0  0.26982  0.17140  0.64249  1.0000
  H   H19       1.0  0.05071  0.14869  0.53556  1.0000
  H   H20       1.0  0.90207  0.14203  0.45304  1.0000
  H   H21       1.0  0.88034  0.29808  0.64138  1.0000
  H   H22       1.0  0.23450  0.31231  0.56755  1.0000
  S   S2        1.0  0.97556  0.20327  0.58936  1.0000
  H   H23       1.0  0.55241  0.25748  0.47203  1.0000
  H   H24       1.0  0.42831  0.22535  0.49635  1.0000
  H   H25       1.0  0.36710  0.12784  0.45290  1.0000
  H   H26       1.0  0.61253  0.22234  0.52824  1.0000
  N   N1        1.0  0.18794  0.33076  0.62725  1.0000
  H   H27       1.0  0.06105  0.31863  0.62966  1.0000
  H   H28       1.0  0.40179  0.30642  0.47510  1.0000
  H   H29       1.0  0.09894  0.32672  0.54971  1.0000
  H   H30       1.0  0.80165  0.16014  0.50267  1.0000
  H   H31       1.0  0.98159  0.26198  0.60532  1.0000
  C   C9        1.0  0.83953  0.22030  0.64208  1.0000
  H   H32       1.0  0.66098  0.23823  0.46623  1.0000
  H   H33       1.0  0.17983  0.18276  0.58898  1.0000
  S   S3        1.0  0.62380  0.09989  0.65071  1.0000
  Fe  Fe2       1.0  0.01744  0.22633  0.53156  1.0000
  C   C10       1.0  0.32396  0.25826  0.41551  1.0000
  H   H34       1.0  0.72087  0.25443  0.58421  1.0000
  H   H35       1.0  0.30114  0.30100  0.61092  1.0000
  S   S4        1.0  0.27683  0.27078  0.49758  1.0000
  H   H36       1.0  0.54002  0.14639  0.52487  1.0000
  C   C11       1.0  0.69006  0.30393  0.55218  1.0000
  C   C12       1.0  0.78363  0.30450  0.53834  1.0000
  S   S5        1.0  0.74542  0.15057  0.65371  1.0000
  H   H37       1.0  0.51243  0.11703  0.43059  1.0000
  C   C13       1.0  0.03311  0.14136  0.50430  1.0000
  C   C14       1.0  0.61917  0.25923  0.46291  1.0000
  C   C15       1.0  0.52449  0.13915  0.43539  1.0000
  C   C16       1.0  0.19725  0.19119  0.61921  1.0000
  H   H38       1.0  0.69048  0.30282  0.58745  1.0000
  H   H39       1.0  0.63940  0.15951  0.44162  1.0000
  S   S6        1.0  0.93923  0.22737  0.47314  1.0000
  Fe  Fe3       1.0  0.60579  0.14743  0.65520  1.0000
  H   H40       1.0  0.88432  0.17888  0.52121  1.0000
  H   H41       1.0  0.36436  0.22186  0.62118  1.0000
  H   H42       1.0  0.27777  0.14989  0.55371  1.0000
  H   H43       1.0  0.75259  0.24440  0.53247  1.0000
  H   H44       1.0  0.93117  0.13664  0.57212  1.0000
  H   H45       1.0  0.30631  0.09990  0.61865  1.0000
  H   H46       1.0  0.49821  0.10088  0.54943  1.0000
  H   H47       1.0  0.68667  0.20760  0.56831  1.0000
  H   H48       1.0  0.10459  0.12207  0.44870  1.0000
  S   S7        1.0  0.51051  0.17707  0.61617  1.0000
  C   C17       1.0  0.91009  0.22803  0.62009  1.0000
  H   H49       1.0  0.65263  0.32515  0.54337  1.0000
  C   C18       1.0  0.53783  0.28939  0.59594  1.0000
  H   H50       1.0  0.99599  0.32813  0.48001  1.0000
  S   S8        1.0  0.14028  0.20818  0.49995  1.0000
  C   C19       1.0  0.62040  0.13804  0.44482  1.0000
  C   C20       1.0  0.79339  0.26959  0.66030  1.0000
  C   C21       1.0  0.33563  0.27427  0.45070  1.0000
  C   C22       1.0  0.92516  0.25612  0.62052  1.0000
  C   C23       1.0  0.86725  0.27675  0.64083  1.0000
  Fe  Fe4       1.0  0.97104  0.27097  0.45955  1.0000
  N   N2        1.0  0.46308  0.15375  0.46775  1.0000
  N   N3        1.0  0.96682  0.12185  0.50900  1.0000
  H   H51       1.0  0.33053  0.17347  0.62534  1.0000
  H   H52       1.0  0.19475  0.27017  0.64020  1.0000
  H   H53       1.0  0.58087  0.27380  0.61592  1.0000
  C   C24       1.0  0.19498  0.27837  0.60690  1.0000
  H   H54       1.0  0.80450  0.16948  0.55698  1.0000
  C   C25       1.0  0.69517  0.25197  0.55232  1.0000
  Fe  Fe5       1.0  0.76323  0.10287  0.65307  1.0000
  C   C26       1.0  0.64321  0.22715  0.55769  1.0000
  H   H55       1.0  0.42937  0.14921  0.53428  1.0000
  C   C27       1.0  0.55546  0.28570  0.54792  1.0000
  H   H56       1.0  0.82734  0.10450  0.43218  1.0000
  H   H57       1.0  0.63893  0.12827  0.47635  1.0000
  H   H58       1.0  0.62357  0.30320  0.47508  1.0000
  H   H59       1.0  0.34393  0.20619  0.48448  1.0000
  C   C28       1.0  0.00642  0.09223  0.52347  1.0000
  H   H60       1.0  0.52091  0.26856  0.53784  1.0000
  H   H61       1.0  0.12614  0.14668  0.62965  1.0000
  H   H62       1.0  0.17619  0.09192  0.63983  1.0000
  H   H63       1.0  0.65878  0.12480  0.42095  1.0000
  H   H64       1.0  0.54218  0.09658  0.49731  1.0000
  H   H65       1.0  0.42783  0.10051  0.50606  1.0000
  H   H66       1.0  0.82825  0.19855  0.64195  1.0000
  C   C29       1.0  0.41230  0.22625  0.64284  1.0000
  C   C30       1.0  0.49135  0.20835  0.64518  1.0000
  N   N4        1.0  0.26034  0.14031  0.64878  1.0000
  C   C31       1.0  0.06036  0.09007  0.56430  1.0000
  C   C32       1.0  0.29979  0.12334  0.61201  1.0000
  C   C33       1.0  0.48062  0.14054  0.51162  1.0000
  H   H67       1.0  0.41123  0.19611  0.53025  1.0000
  N   N5        1.0  0.64871  0.28019  0.53503  1.0000
  H   H68       1.0  0.52233  0.30545  0.53137  1.0000
  C   C34       1.0  0.25725  0.13060  0.56874  1.0000
  S   S9        1.0  0.03719  0.27186  0.52147  1.0000
  H   H69       1.0  0.80134  0.10949  0.48699  1.0000
  H   H70       1.0  0.06034  0.11057  0.57968  1.0000
  Fe  Fe6       1.0  0.15580  0.25357  0.48579  1.0000
  H   H71       1.0  0.15399  0.11090  0.49876  1.0000
  H   H72       1.0  0.72344  0.28025  0.47649  1.0000
  C   C35       1.0  0.11663  0.12897  0.48090  1.0000
  C   C36       1.0  0.39343  0.29367  0.44820  1.0000
  C   C37       1.0  0.16773  0.13732  0.65612  1.0000
  C   C38       1.0  0.48745  0.10779  0.51563  1.0000
  C   C39       1.0  0.85437  0.10230  0.46464  1.0000
  C   C40       1.0  0.47405  0.18467  0.46841  1.0000
  H   H73       1.0  0.32642  0.15886  0.48075  1.0000
  H   H74       1.0  0.27538  0.11230  0.54783  1.0000
  H   H75       1.0  0.17714  0.32462  0.46650  1.0000
  C   C41       1.0  0.09338  0.33667  0.61817  1.0000
  H   H76       1.0  0.61877  0.26526  0.42851  1.0000
  S   S10       1.0  0.09067  0.25576  0.42300  1.0000
  C   C42       1.0  0.34084  0.16535  0.41321  1.0000
  H   H77       1.0  0.27971  0.24313  0.41730  1.0000
  H   H78       1.0  0.34073  0.18867  0.41228  1.0000
  H   H79       1.0  0.27476  0.13882  0.71682  1.0000
  S   S11       1.0  0.30123  0.28115  0.84478  1.0000
  H   H80       1.0  0.58437  0.24257  0.72054  1.0000
  C   C43       1.0  0.89597  0.28730  0.76109  1.0000
  H   H81       1.0  0.32471  0.12343  0.78622  1.0000
  H   H82       1.0  0.18284  0.16688  0.83755  1.0000
  C   C44       1.0  0.88459  0.09726  0.82748  1.0000
  C   C45       1.0  0.85069  0.27042  0.87845  1.0000
  S   S12       1.0  0.78512  0.16712  0.78009  1.0000
  H   H83       1.0  0.84205  0.23640  0.77023  1.0000
  H   H84       1.0  0.42981  0.12291  0.72028  1.0000
  H   H85       1.0  0.02152  0.18135  0.68601  1.0000
  H   H86       1.0  0.37797  0.15604  0.86121  1.0000
  H   H87       1.0  0.75873  0.26257  0.75083  1.0000
  H   H88       1.0  0.10055  0.11981  0.83500  1.0000
  H   H89       1.0  0.92167  0.24475  0.83076  1.0000
  H   H90       1.0  0.39738  0.11866  0.85268  1.0000
  H   H91       1.0  0.65406  0.29851  0.90244  1.0000
  H   H92       1.0  0.40030  0.14744  0.78739  1.0000
  C   C46       1.0  0.01566  0.19143  0.79229  1.0000
  H   H93       1.0  0.79151  0.26094  0.88107  1.0000
  H   H94       1.0  0.16836  0.09354  0.80765  1.0000
  H   H95       1.0  0.14284  0.14959  0.68411  1.0000
  H   H96       1.0  0.75585  0.09085  0.81224  1.0000
  H   H97       1.0  0.68291  0.25895  0.82384  1.0000
  C   C47       1.0  0.19897  0.32285  0.67383  1.0000
  C   C48       1.0  0.79131  0.09524  0.84070  1.0000
  S   S13       1.0  0.33931  0.21997  0.79762  1.0000
  H   H98       1.0  0.17147  0.09833  0.69631  1.0000
  H   H99       1.0  0.83632  0.29296  0.88782  1.0000
  S   S14       1.0  0.42947  0.28175  0.73515  1.0000
  H   H100      1.0  0.90888  0.18587  0.83345  1.0000
  H   H101      1.0  0.72893  0.30923  0.77797  1.0000
  H   H102      1.0  0.76722  0.22873  0.83546  1.0000
  Fe  Fe7       1.0  0.33379  0.26606  0.77914  1.0000
  H   H103      1.0  0.40905  0.15589  0.69061  1.0000
  H   H104      1.0  0.28983  0.16151  0.79224  1.0000
  H   H105      1.0  0.95000  0.27882  0.83576  1.0000
  H   H106      1.0  0.61533  0.20105  0.67443  1.0000
  C   C49       1.0  0.63153  0.10140  0.89548  1.0000
  S   S15       1.0  0.15493  0.23843  0.84702  1.0000
  C   C50       1.0  0.53640  0.23812  0.69879  1.0000
  C   C51       1.0  0.40207  0.13304  0.69036  1.0000
  H   H107      1.0  0.30794  0.10554  0.69273  1.0000
  C   C52       1.0  0.39376  0.24909  0.67024  1.0000
  C   C53       1.0  0.20590  0.16231  0.87037  1.0000
  Fe  Fe8       1.0  0.29448  0.23520  0.86182  1.0000
  C   C54       1.0  0.33849  0.14295  0.80106  1.0000
  C   C55       1.0  0.88632  0.17564  0.76907  1.0000
  H   H108      1.0  0.00800  0.27362  0.72173  1.0000
  H   H109      1.0  0.27508  0.18149  0.67348  1.0000
  S   S16       1.0  0.71419  0.29617  0.68014  1.0000
  H   H110      1.0  0.93626  0.24848  0.72437  1.0000
  C   C56       1.0  0.30772  0.12882  0.68836  1.0000
  H   H111      1.0  0.88456  0.11209  0.79951  1.0000
  H   H112      1.0  0.91916  0.10597  0.85299  1.0000
  S   S17       1.0  0.19856  0.27103  0.75830  1.0000
  C   C57       1.0  0.79504  0.25497  0.77987  1.0000
  H   H113      1.0  0.15826  0.30663  0.68341  1.0000
  H   H114      1.0  0.85718  0.29729  0.73383  1.0000
  H   H115      1.0  0.33112  0.26185  0.67042  1.0000
  H   H116      1.0  0.00447  0.25204  0.76903  1.0000
  H   H117      1.0  0.28223  0.09139  0.85321  1.0000
  H   H118      1.0  0.72953  0.29912  0.83229  1.0000
  C   C58       1.0  0.96457  0.26368  0.74353  1.0000
  C   C59       1.0  0.77221  0.30374  0.80564  1.0000
  C   C60       1.0  0.55373  0.21455  0.67275  1.0000
  H   H119      1.0  0.50581  0.33226  0.79743  1.0000
  H   H120      1.0  0.46993  0.32763  0.86854  1.0000
  C   C61       1.0  0.73242  0.24254  0.81027  1.0000
  S   S18       1.0  0.06071  0.32041  0.83065  1.0000
  C   C62       1.0  0.89371  0.26759  0.83414  1.0000
  N   N6        1.0  0.83900  0.27828  0.79630  1.0000
  H   H121      1.0  0.19375  0.10147  0.88767  1.0000
  H   H122      1.0  0.69769  0.22844  0.79207  1.0000
  C   C63       1.0  0.91865  0.17409  0.72774  1.0000
  H   H123      1.0  0.09581  0.14472  0.89908  1.0000
  C   C64       1.0  0.93443  0.18447  0.80145  1.0000
  C   C65       1.0  0.99902  0.18142  0.71852  1.0000
  H   H124      1.0  0.05288  0.19815  0.81713  1.0000
  Fe  Fe9       1.0  0.20063  0.22616  0.78171  1.0000
  H   H125      1.0  0.93193  0.30401  0.77181  1.0000
  S   S19       1.0  0.15237  0.19573  0.73935  1.0000
  S   S20       1.0  0.77027  0.09788  0.72374  1.0000
  C   C66       1.0  0.23075  0.10937  0.86085  1.0000
  C   C67       1.0  0.45574  0.25502  0.69822  1.0000
  C   C68       1.0  0.16747  0.11411  0.82335  1.0000
  H   H126      1.0  0.76131  0.11713  0.84932  1.0000
  H   H127      1.0  0.18136  0.12971  0.79841  1.0000
  C   C69       1.0  0.04850  0.18945  0.75090  1.0000
  H   H128      1.0  0.59931  0.11257  0.86712  1.0000
  C   C70       1.0  0.34839  0.13810  0.84916  1.0000
  Fe  Fe10      1.0  0.16494  0.28314  0.82492  1.0000
  N   N7        1.0  0.26840  0.13491  0.87431  1.0000
  H   H129      1.0  0.86210  0.32686  0.83811  1.0000
  Fe  Fe11      1.0  0.73852  0.14536  0.72499  1.0000
  Fe  Fe12      1.0  0.62966  0.09856  0.72190  1.0000
  S   S21       1.0  0.59768  0.14579  0.72618  1.0000
  H   H130      1.0  0.88124  0.16763  0.70265  1.0000
  H   H131      1.0  0.19165  0.32757  0.88994  1.0000
  H   H132      1.0  0.72524  0.23512  0.67818  1.0000
  H   H133      1.0  0.26538  0.31239  0.68104  1.0000
  H   H134      1.0  0.44126  0.12246  0.66441  1.0000
  C   C71       1.0  0.80716  0.33116  0.81631  1.0000
  H   H135      1.0  0.07823  0.18263  0.88944  1.0000
  H   H136      1.0  0.39944  0.32651  0.79521  1.0000
  H   H137      1.0  0.89578  0.25917  0.90239  1.0000
  C   C72       1.0  0.12631  0.16413  0.89969  1.0000
  C   C73       1.0  0.14886  0.10678  0.66457  1.0000
  H   H138      1.0  0.07846  0.10720  0.66490  1.0000
  H   H139      1.0  0.53593  0.32978  0.73003  1.0000
  H   H140      1.0  0.23811  0.18072  0.87739  1.0000
  H   H141      1.0  0.66751  0.11635  0.91062  1.0000
  C   C74       1.0  0.78125  0.24104  0.66240  1.0000
  H   H142      1.0  0.56387  0.24360  0.05647  1.0000
  H   H143      1.0  0.85407  0.19691  0.13280  1.0000
  C   C75       1.0  0.76345  0.18438  0.05386  1.0000
  C   C76       1.0  0.68837  0.28156  0.96520  1.0000
  C   C77       1.0  0.91360  0.15651  0.10436  1.0000
  H   H144      1.0  0.14312  0.16798  0.93275  1.0000
  S   S22       1.0  0.96777  0.28244  0.03931  1.0000
  H   H145      1.0  0.36905  0.10267  0.96614  1.0000
  H   H146      1.0  0.32270  0.12074  0.10336  1.0000
  H   H147      1.0  0.41389  0.32775  0.08649  1.0000
  H   H148      1.0  0.20048  0.24783  0.94029  1.0000
  H   H149      1.0  0.03291  0.11460  0.06212  1.0000
  Fe  Fe13      1.0  0.96609  0.32219  0.07560  1.0000
  Fe  Fe14      1.0  0.03757  0.26024  0.09515  1.0000
  C   C78       1.0  0.67418  0.31608  0.02059  1.0000
  H   H150      1.0  0.23777  0.12685  0.94068  1.0000
  H   H151      1.0  0.42848  0.11047  0.92037  1.0000
  H   H152      1.0  0.86031  0.21055  0.06352  1.0000
  C   C79       1.0  0.35088  0.29228  0.98932  1.0000
  H   H153      1.0  0.40988  0.14016  0.11219  1.0000
  C   C80       1.0  0.36519  0.10570  0.93112  1.0000
  H   H154      1.0  0.01466  0.21246  0.00737  1.0000
  C   C81       1.0  0.29210  0.21272  0.96432  1.0000
  C   C82       1.0  0.42996  0.32841  0.05220  1.0000
  S   S23       1.0  0.15118  0.22556  0.09116  1.0000
  C   C83       1.0  0.46357  0.25271  0.00722  1.0000
  H   H155      1.0  0.39881  0.26691  0.09097  1.0000
  C   C84       1.0  0.45013  0.09370  0.10894  1.0000
  C   C85       1.0  0.85485  0.19079  0.04662  1.0000
  H   H156      1.0  0.50962  0.25835  0.98250  1.0000
  H   H157      1.0  0.56047  0.27354  0.13889  1.0000
  C   C86       1.0  0.20271  0.22044  0.04171  1.0000
  C   C87       1.0  0.92389  0.14221  0.03091  1.0000
  H   H158      1.0  0.22515  0.28978  0.04946  1.0000
  H   H159      1.0  0.28428  0.31238  0.07822  1.0000
  H   H160      1.0  0.71721  0.20178  0.03896  1.0000
  H   H161      1.0  0.42268  0.23946  0.99121  1.0000
  C   C88       1.0  0.71467  0.11828  0.12973  1.0000
  H   H162      1.0  0.00172  0.17929  0.98485  1.0000
  H   H163      1.0  0.63935  0.11809  0.07356  1.0000
  C   C89       1.0  0.35868  0.27027  0.06198  1.0000
  C   C90       1.0  0.51733  0.23283  0.04001  1.0000
  S   S24       1.0  0.04417  0.30033  0.12916  1.0000
  H   H164      1.0  0.56801  0.32265  0.12202  1.0000
  H   H165      1.0  0.51599  0.09820  0.10317  1.0000
  H   H166      1.0  0.80473  0.10605  0.92016  1.0000
  H   H167      1.0  0.70629  0.25986  0.95524  1.0000
  C   C91       1.0  0.31797  0.19497  0.99961  1.0000
  S   S25       1.0  0.56396  0.20679  0.14972  1.0000
  H   H168      1.0  0.75332  0.16419  0.03979  1.0000
  H   H169      1.0  0.87122  0.13021  0.04057  1.0000
  H   H170      1.0  0.74772  0.18399  0.08811  1.0000
  C   C92       1.0  0.17627  0.23797  0.00622  1.0000
  C   C93       1.0  0.29329  0.13071  0.92045  1.0000
  C   C94       1.0  0.65135  0.12995  0.10085  1.0000
  H   H171      1.0  0.29370  0.18509  0.06548  1.0000
  H   H172      1.0  0.96843  0.18691  0.14228  1.0000
  H   H173      1.0  0.90900  0.14945  0.99756  1.0000
  H   H174      1.0  0.55589  0.16631  0.08439  1.0000
  H   H175      1.0  0.37390  0.17870  0.99748  1.0000
  H   H176      1.0  0.24932  0.28211  0.10385  1.0000
  N   N8        1.0  0.92541  0.16701  0.05932  1.0000
  H   H177      1.0  0.00782  0.19685  0.07624  1.0000
  H   H178      1.0  0.30863  0.27701  0.98013  1.0000
  H   H179      1.0  0.39669  0.12576  0.06170  1.0000
  H   H180      1.0  0.99267  0.10019  0.01661  1.0000
  C   C95       1.0  0.39484  0.30176  0.94844  1.0000
  C   C96       1.0  0.27294  0.19868  0.03812  1.0000
  H   H181      1.0  0.68053  0.32102  0.05342  1.0000
  Fe  Fe15      1.0  0.91752  0.29486  0.15790  1.0000
  H   H182      1.0  0.06327  0.16271  0.06815  1.0000
  H   H183      1.0  0.12310  0.25503  0.00875  1.0000
  C   C97       1.0  0.46994  0.29874  0.03729  1.0000
  N   N9        1.0  0.40980  0.27916  0.02430  1.0000
  S   S26       1.0  0.14598  0.12712  0.13561  1.0000
  H   H184      1.0  0.51112  0.28884  0.06371  1.0000
  H   H185      1.0  0.26907  0.16595  0.14319  1.0000
  S   S27       1.0  0.83943  0.31930  0.10646  1.0000
  C   C98       1.0  0.59313  0.31486  0.15377  1.0000
  S   S28       1.0  0.91799  0.25238  0.12955  1.0000
  C   C99       1.0  0.69804  0.28812  0.00750  1.0000
  H   H186      1.0  0.30610  0.31120  0.99968  1.0000
  H   H187      1.0  0.55507  0.21480  0.02317  1.0000
  C   C100      1.0  0.00652  0.12019  0.03015  1.0000
  H   H188      1.0  0.42980  0.28332  0.93144  1.0000
  H   H189      1.0  0.33859  0.24930  0.05665  1.0000
  H   H190      1.0  0.66238  0.30690  0.14808  1.0000
  Fe  Fe16      1.0  0.84862  0.27727  0.07574  1.0000
  C   C101      1.0  0.22016  0.23384  0.96734  1.0000
  H   H191      1.0  0.96736  0.13962  0.11374  1.0000
  Fe  Fe17      1.0  0.07169  0.09294  0.15860  1.0000
  H   H192      1.0  0.51657  0.30171  0.01157  1.0000
  C   C102      1.0  0.00884  0.17833  0.05559  1.0000
  H   H193      1.0  0.43822  0.31728  0.95449  1.0000
  H   H194      1.0  0.10246  0.18314  0.00552  1.0000
  H   H195      1.0  0.05646  0.12820  0.01015  1.0000
  C   C103      1.0  0.39087  0.12165  0.09642  1.0000
  C   C104      1.0  0.90685  0.17899  0.13866  1.0000
  C   C105      1.0  0.03242  0.18890  0.01069  1.0000
  H   H196      1.0  0.47686  0.22326  0.06375  1.0000
  S   S29       1.0  0.74115  0.26151  0.04386  1.0000
  C   C106      1.0  0.27520  0.29014  0.07359  1.0000
  C   C107      1.0  0.62095  0.17271  0.14183  1.0000
  H   H197      1.0  0.85584  0.14603  0.10744  1.0000
  C   C108      1.0  0.60453  0.15722  0.10682  1.0000
  H   H198      1.0  0.86039  0.19689  0.01241  1.0000
  C   C109      1.0  0.65903  0.30335  0.93545  1.0000
  C   C110      1.0  0.63601  0.33138  0.94843  1.0000
  H   H199      1.0  0.31368  0.15036  0.93240  1.0000
  H   H200      1.0  0.40313  0.33322  0.16111  1.0000
  S   S30       1.0  0.35445  0.20950  0.91782  1.0000
  H   H201      1.0  0.58218  0.09679  0.91898  1.0000
  H   H202      1.0  0.34481  0.31265  0.92660  1.0000
  H   H203      1.0  0.07558  0.09100  0.95470  1.0000
  H   H204      1.0  0.18956  0.09121  0.00826  1.0000
  H   H205      1.0  0.87612  0.11664  0.34240  1.0000
  H   H206      1.0  0.18833  0.22185  0.22932  1.0000
  H   H207      1.0  0.17213  0.13965  0.28721  1.0000
  C   C111      1.0  0.05953  0.24782  0.23649  1.0000
  S   S31       1.0  0.71133  0.15065  0.33904  1.0000
  C   C112      1.0  0.43828  0.29747  0.41031  1.0000
  H   H208      1.0  0.89405  0.24758  0.25755  1.0000
  C   C113      1.0  0.14333  0.23325  0.31766  1.0000
  H   H209      1.0  0.28432  0.30521  0.31855  1.0000
  C   C114      1.0  0.18582  0.14226  0.17953  1.0000
  H   H210      1.0  0.90863  0.22321  0.30134  1.0000
  C   C115      1.0  0.42732  0.28140  0.37523  1.0000
  H   H211      1.0  0.30603  0.09673  0.16813  1.0000
  C   C116      1.0  0.45956  0.10454  0.18384  1.0000
  C   C117      1.0  0.21589  0.30424  0.31349  1.0000
  C   C118      1.0  0.28819  0.16852  0.21053  1.0000
  S   S32       1.0  0.53937  0.16762  0.25470  1.0000
  H   H212      1.0  0.97097  0.16011  0.23724  1.0000
  C   C119      1.0  0.36985  0.26182  0.37781  1.0000
  H   H213      1.0  0.29184  0.09087  0.29805  1.0000
  S   S33       1.0  0.88457  0.30378  0.22563  1.0000
  H   H214      1.0  0.52133  0.11188  0.17561  1.0000
  H   H215      1.0  0.90030  0.18429  0.26801  1.0000
  C   C120      1.0  0.89962  0.19189  0.37896  1.0000
  Fe  Fe18      1.0  0.42396  0.19124  0.28603  1.0000
  H   H216      1.0  0.04907  0.20577  0.32601  1.0000
  H   H217      1.0  0.70961  0.32585  0.25449  1.0000
  H   H218      1.0  0.52936  0.31471  0.23619  1.0000
  H   H219      1.0  0.35931  0.24982  0.35044  1.0000
  H   H220      1.0  0.07384  0.26599  0.25467  1.0000
  H   H221      1.0  0.89061  0.33210  0.30446  1.0000
  H   H222      1.0  0.47071  0.11380  0.25033  1.0000
  H   H223      1.0  0.00556  0.16896  0.28759  1.0000
  H   H224      1.0  0.33813  0.18155  0.20671  1.0000
  S   S34       1.0  0.07011  0.17511  0.39873  1.0000
  H   H225      1.0  0.19712  0.28723  0.33482  1.0000
  H   H226      1.0  0.27355  0.16218  0.40863  1.0000
  C   C121      1.0  0.08530  0.21369  0.29920  1.0000
  Fe  Fe19      1.0  0.50981  0.24270  0.29927  1.0000
  H   H227      1.0  0.10722  0.25352  0.32841  1.0000
  H   H228      1.0  0.96421  0.21107  0.21049  1.0000
  C   C122      1.0  0.81992  0.18663  0.36478  1.0000
  H   H229      1.0  0.12881  0.19468  0.28853  1.0000
  H   H230      1.0  0.09036  0.32872  0.32157  1.0000
  C   C123      1.0  0.93959  0.23931  0.28327  1.0000
  C   C124      1.0  0.81101  0.15931  0.35221  1.0000
  C   C125      1.0  0.72498  0.09894  0.26566  1.0000
  C   C126      1.0  0.00743  0.20233  0.23692  1.0000
  H   H231      1.0  0.01659  0.12648  0.36483  1.0000
  S   S35       1.0  0.95220  0.10468  0.19700  1.0000
  H   H232      1.0  0.76516  0.20346  0.36454  1.0000
  C   C127      1.0  0.68389  0.16095  0.17074  1.0000
  S   S36       1.0  0.30684  0.17149  0.29708  1.0000
  H   H233      1.0  0.51431  0.15009  0.40366  1.0000
  S   S37       1.0  0.48660  0.28547  0.32856  1.0000
  H   H234      1.0  0.77970  0.12516  0.18673  1.0000
  C   C128      1.0  0.73088  0.13387  0.16454  1.0000
  H   H235      1.0  0.58748  0.27561  0.19289  1.0000
  C   C129      1.0  0.97038  0.16998  0.37965  1.0000
  H   H236      1.0  0.20881  0.29765  0.28047  1.0000
  H   H237      1.0  0.19408  0.23769  0.29500  1.0000
  H   H238      1.0  0.69738  0.17298  0.19763  1.0000
  S   S38       1.0  0.63327  0.22333  0.26803  1.0000
  Fe  Fe20      1.0  0.61546  0.18349  0.30539  1.0000
  C   C130      1.0  0.57923  0.32841  0.23033  1.0000
  H   H239      1.0  0.17127  0.25461  0.19825  1.0000
  H   H240      1.0  0.66513  0.10800  0.28221  1.0000
  C   C131      1.0  0.15828  0.13516  0.22012  1.0000
  C   C132      1.0  0.88210  0.13771  0.35242  1.0000
  C   C133      1.0  0.96175  0.14321  0.36526  1.0000
  C   C134      1.0  0.46020  0.09551  0.23127  1.0000
  N   N10       1.0  0.02446  0.22602  0.26466  1.0000
  H   H241      1.0  0.48183  0.31274  0.40818  1.0000
  C   C135      1.0  0.19527  0.14463  0.25579  1.0000
  H   H242      1.0  0.97612  0.28027  0.30244  1.0000
  S   S39       1.0  0.49859  0.20374  0.33990  1.0000
  C   C136      1.0  0.94133  0.26323  0.31477  1.0000
  C   C137      1.0  0.26162  0.16066  0.25121  1.0000
  H   H243      1.0  0.41117  0.12415  0.18085  1.0000
  H   H244      1.0  0.06759  0.19187  0.22175  1.0000
  Fe  Fe21      1.0  0.54721  0.20900  0.22000  1.0000
  H   H245      1.0  0.96783  0.25446  0.34569  1.0000
  H   H246      1.0  0.21207  0.30823  0.39460  1.0000
  H   H247      1.0  0.76496  0.11614  0.26281  1.0000
  S   S40       1.0  0.42562  0.23171  0.24813  1.0000
  C   C138      1.0  0.66383  0.31135  0.24706  1.0000
  C   C139      1.0  0.24917  0.15968  0.17462  1.0000
  H   H248      1.0  0.90641  0.21295  0.38867  1.0000
  H   H249      1.0  0.12401  0.22508  0.18248  1.0000
  H   H250      1.0  0.87458  0.27355  0.32132  1.0000
  C   C140      1.0  0.15769  0.33301  0.32058  1.0000
  C   C141      1.0  0.14059  0.23646  0.21051  1.0000
  H   H251      1.0  0.65133  0.29967  0.27710  1.0000
  H   H252      1.0  0.10791  0.12248  0.22414  1.0000
  H   H253      1.0  0.17679  0.22201  0.34563  1.0000
  H   H254      1.0  0.01081  0.25737  0.21302  1.0000
  C   C142      1.0  0.96862  0.17784  0.25934  1.0000
  H   H255      1.0  0.69452  0.29550  0.22431  1.0000
  H   H256      1.0  0.10295  0.32339  0.40070  1.0000
  H   H257      1.0  0.37750  0.15562  0.38571  1.0000
  C   C143      1.0  0.16886  0.32880  0.39775  1.0000
  C   C144      1.0  0.55340  0.28799  0.16610  1.0000
  H   H258      1.0  0.68175  0.09350  0.36020  1.0000
  H   H259      1.0  0.39795  0.08981  0.24198  1.0000
  H   H260      1.0  0.71059  0.09350  0.23299  1.0000
  H   H261      1.0  0.48462  0.29262  0.17411  1.0000
  H   H262      1.0  0.89226  0.16882  0.16956  1.0000
  Fe  Fe22      1.0  0.19567  0.45184  0.52989  1.0000
  H   H263      1.0  0.36075  0.34909  0.59394  1.0000
  H   H264      1.0  0.32993  0.57889  0.63683  1.0000
  Fe  Fe23      1.0  0.28809  0.41392  0.46337  1.0000
  H   H265      1.0  0.13173  0.57233  0.43525  1.0000
  C   C145      1.0  0.34885  0.50563  0.63220  1.0000
  C   C146      1.0  0.96266  0.34490  0.45977  1.0000
  H   H266      1.0  0.02948  0.37743  0.48295  1.0000
  H   H267      1.0  0.06229  0.43035  0.57523  1.0000
  H   H268      1.0  0.20839  0.56044  0.50533  1.0000
  C   C147      1.0  0.06880  0.34338  0.57128  1.0000
  C   C148      1.0  0.22630  0.35699  0.61510  1.0000
  S   S41       1.0  0.75116  0.52784  0.48754  1.0000
  H   H269      1.0  0.36409  0.58083  0.44798  1.0000
  H   H270      1.0  0.41993  0.51413  0.55616  1.0000
  H   H271      1.0  0.26176  0.53093  0.56223  1.0000
  H   H272      1.0  0.55520  0.34599  0.43060  1.0000
  Fe  Fe24      1.0  0.21970  0.47635  0.44113  1.0000
  S   S42       1.0  0.10509  0.47675  0.48353  1.0000
  H   H273      1.0  0.01875  0.54328  0.59339  1.0000
  S   S43       1.0  0.93250  0.57780  0.48836  1.0000
  Fe  Fe25      1.0  0.09532  0.43426  0.45728  1.0000
  S   S44       1.0  0.96802  0.42867  0.43197  1.0000
  H   H274      1.0  0.26234  0.34017  0.44258  1.0000
  H   H275      1.0  0.37448  0.50489  0.45684  1.0000
  C   C149      1.0  0.19081  0.58075  0.44355  1.0000
  H   H276      1.0  0.58617  0.41251  0.54440  1.0000
  S   S45       1.0  0.71777  0.58489  0.42275  1.0000
  C   C150      1.0  0.21271  0.53896  0.63994  1.0000
  H   H277      1.0  0.03977  0.51107  0.56522  1.0000
  H   H278      1.0  0.08371  0.36448  0.56028  1.0000
  H   H279      1.0  0.15834  0.36077  0.44861  1.0000
  H   H280      1.0  0.89705  0.46017  0.65067  1.0000
  S   S46       1.0  0.84742  0.35334  0.62805  1.0000
  S   S47       1.0  0.17765  0.40905  0.50698  1.0000
  C   C151      1.0  0.89928  0.33907  0.43241  1.0000
  C   C152      1.0  0.56156  0.36034  0.45556  1.0000
  S   S48       1.0  0.55768  0.56475  0.47732  1.0000
  H   H281      1.0  0.78081  0.57698  0.63910  1.0000
  Fe  Fe26      1.0  0.66220  0.54476  0.43426  1.0000
  H   H282      1.0  0.52819  0.50821  0.44812  1.0000
  S   S49       1.0  0.39043  0.37749  0.44697  1.0000
  C   C153      1.0  0.15968  0.56903  0.63433  1.0000
  H   H283      1.0  0.28120  0.56618  0.57236  1.0000
  H   H284      1.0  0.42124  0.55304  0.63707  1.0000
  H   H285      1.0  0.63981  0.44130  0.44316  1.0000
  H   H286      1.0  0.17958  0.52388  0.62264  1.0000
  C   C154      1.0  0.57506  0.46660  0.62043  1.0000
  C   C155      1.0  0.82568  0.53182  0.65006  1.0000
  C   C156      1.0  0.13276  0.44129  0.62852  1.0000
  C   C157      1.0  0.93938  0.39445  0.43477  1.0000
  H   H287      1.0  0.06166  0.35513  0.63625  1.0000
  C   C158      1.0  0.59221  0.51625  0.62286  1.0000
  C   C159      1.0  0.57934  0.39791  0.51962  1.0000
  H   H288      1.0  0.41900  0.50445  0.62925  1.0000
  H   H289      1.0  0.00535  0.48577  0.62271  1.0000
  C   C160      1.0  0.48584  0.51298  0.42137  1.0000
  C   C161      1.0  0.01548  0.41414  0.63416  1.0000
  Fe  Fe27      1.0  0.75121  0.38333  0.59069  1.0000
  S   S50       1.0  0.19508  0.46199  0.59852  1.0000
  C   C162      1.0  0.96693  0.50736  0.62439  1.0000
  H   H290      1.0  0.96587  0.40479  0.61934  1.0000
  H   H291      1.0  0.33144  0.49214  0.60661  1.0000
  S   S51       1.0  0.75552  0.41949  0.63363  1.0000
  C   C163      1.0  0.39901  0.51075  0.42621  1.0000
  C   C164      1.0  0.19289  0.33960  0.44089  1.0000
  N   N11       1.0  0.30509  0.53606  0.62576  1.0000
  C   C165      1.0  0.07052  0.42837  0.60919  1.0000
  C   C166      1.0  0.82648  0.55990  0.62414  1.0000
  H   H292      1.0  0.69891  0.34927  0.45767  1.0000
  H   H293      1.0  0.24313  0.56343  0.43499  1.0000
  H   H294      1.0  0.94183  0.47566  0.55679  1.0000
  C   C167      1.0  0.39265  0.53713  0.55538  1.0000
  H   H295      1.0  0.44229  0.40946  0.51667  1.0000
  N   N12       1.0  0.87396  0.50500  0.63167  1.0000
  H   H296      1.0  0.81765  0.51665  0.56974  1.0000
  H   H297      1.0  0.89011  0.56675  0.62452  1.0000
  H   H298      1.0  0.19104  0.37633  0.63011  1.0000
  H   H299      1.0  0.15110  0.57584  0.60048  1.0000
  H   H300      1.0  0.34729  0.33958  0.64883  1.0000
  S   S52       1.0  0.61415  0.54806  0.59894  1.0000
  H   H301      1.0  0.57553  0.44753  0.60265  1.0000
  C   C168      1.0  0.59214  0.49175  0.59966  1.0000
  H   H302      1.0  0.43962  0.54959  0.56778  1.0000
  S   S53       1.0  0.63794  0.36876  0.62246  1.0000
  H   H303      1.0  0.38356  0.54372  0.52140  1.0000
  C   C169      1.0  0.30534  0.54315  0.57871  1.0000
  C   C170      1.0  0.99035  0.52452  0.58429  1.0000
  H   H304      1.0  0.80514  0.55906  0.59116  1.0000
  H   H305      1.0  0.60583  0.49207  0.56593  1.0000
  H   H306      1.0  0.87810  0.45222  0.58421  1.0000
  C   C171      1.0  0.82994  0.49820  0.59211  1.0000
  H   H307      1.0  0.76488  0.49347  0.60004  1.0000
  C   C172      1.0  0.98213  0.37271  0.46123  1.0000
  C   C173      1.0  0.87619  0.47291  0.56674  1.0000
  H   H308      1.0  0.93684  0.53246  0.56286  1.0000
  H   H309      1.0  0.33654  0.37618  0.63297  1.0000
  H   H310      1.0  0.84004  0.47126  0.53727  1.0000
  Fe  Fe28      1.0  0.65006  0.55151  0.53003  1.0000
  S   S54       1.0  0.75431  0.38409  0.52024  1.0000
  S   S55       1.0  0.31208  0.45501  0.48971  1.0000
  C   C174      1.0  0.49794  0.39634  0.50371  1.0000
  Fe  Fe29      1.0  0.79943  0.56954  0.47856  1.0000
  C   C175      1.0  0.18759  0.58225  0.49201  1.0000
  C   C176      1.0  0.65201  0.38133  0.50243  1.0000
  C   C177      1.0  0.48930  0.37790  0.47103  1.0000
  H   H311      1.0  0.99856  0.34459  0.56809  1.0000
  C   C178      1.0  0.64287  0.36224  0.47085  1.0000
  C   C179      1.0  0.32311  0.35510  0.62324  1.0000
  H   H312      1.0  0.21861  0.36213  0.58056  1.0000
  H   H313      1.0  0.75757  0.52943  0.65599  1.0000
  H   H314      1.0  0.99263  0.51693  0.65214  1.0000
  H   H315      1.0  0.18772  0.58520  0.65156  1.0000
  H   H316      1.0  0.09467  0.56879  0.64794  1.0000
  C   C180      1.0  0.35297  0.55643  0.64729  1.0000
  S   S56       1.0  0.20420  0.43555  0.41156  1.0000
  C   C181      1.0  0.46921  0.39230  0.78556  1.0000
  H   H317      1.0  0.36736  0.46781  0.67352  1.0000
  H   H318      1.0  0.54290  0.49041  0.72079  1.0000
  H   H319      1.0  0.01570  0.37955  0.80614  1.0000
  H   H320      1.0  0.60200  0.39813  0.77773  1.0000
  C   C182      1.0  0.10125  0.35066  0.84601  1.0000
  H   H321      1.0  0.29628  0.54887  0.71131  1.0000
  N   N13       1.0  0.41506  0.36971  0.77715  1.0000
  C   C183      1.0  0.28265  0.40841  0.76276  1.0000
  S   S57       1.0  0.21024  0.42974  0.88168  1.0000
  H   H322      1.0  0.46315  0.40858  0.75916  1.0000
  H   H323      1.0  0.76663  0.43628  0.86845  1.0000
  H   H324      1.0  0.68405  0.45995  0.89358  1.0000
  C   C184      1.0  0.06670  0.37753  0.82904  1.0000
  C   C185      1.0  0.35396  0.55523  0.69620  1.0000
  C   C186      1.0  0.19866  0.37252  0.88792  1.0000
  S   S58       1.0  0.95190  0.39710  0.71043  1.0000
  H   H325      1.0  0.94122  0.35239  0.88593  1.0000
  C   C187      1.0  0.84475  0.38588  0.90939  1.0000
  S   S59       1.0  0.45312  0.43140  0.89809  1.0000
  H   H326      1.0  0.37361  0.34734  0.72488  1.0000
  H   H327      1.0  0.87484  0.49975  0.72624  1.0000
  C   C188      1.0  0.57445  0.51573  0.66646  1.0000
  H   H328      1.0  0.92043  0.43454  0.89331  1.0000
  H   H329      1.0  0.21935  0.41649  0.77711  1.0000
  H   H330      1.0  0.59262  0.36135  0.78054  1.0000
  C   C189      1.0  0.43948  0.34269  0.80370  1.0000
  H   H331      1.0  0.10732  0.35680  0.70253  1.0000
  H   H332      1.0  0.44472  0.40420  0.81417  1.0000
  H   H333      1.0  0.55039  0.36547  0.71131  1.0000
  H   H334      1.0  0.79186  0.46206  0.90599  1.0000
  C   C190      1.0  0.32313  0.38133  0.78807  1.0000
  H   H335      1.0  0.35294  0.49967  0.70232  1.0000
  H   H336      1.0  0.09221  0.42399  0.73163  1.0000
  C   C191      1.0  0.09955  0.40178  0.84078  1.0000
  C   C192      1.0  0.56572  0.38228  0.79311  1.0000
  H   H337      1.0  0.75579  0.34626  0.83160  1.0000
  C   C193      1.0  0.74810  0.44691  0.89863  1.0000
  H   H338      1.0  0.82759  0.34208  0.78710  1.0000
  S   S60       1.0  0.60593  0.35869  0.91061  1.0000
  C   C194      1.0  0.90888  0.48234  0.70699  1.0000
  H   H339      1.0  0.39813  0.38187  0.71053  1.0000
  H   H340      1.0  0.78889  0.37603  0.89978  1.0000
  H   H341      1.0  0.85156  0.53578  0.68137  1.0000
  H   H342      1.0  0.21630  0.36406  0.70000  1.0000
  H   H343      1.0  0.20602  0.53273  0.67379  1.0000
  C   C195      1.0  0.55608  0.49080  0.68702  1.0000
  C   C196      1.0  0.86711  0.48083  0.66341  1.0000
  H   H344      1.0  0.32108  0.42591  0.76410  1.0000
  H   H345      1.0  0.57487  0.53468  0.68443  1.0000
  C   C197      1.0  0.41861  0.36251  0.73093  1.0000
  H   H346      1.0  0.86133  0.39800  0.88069  1.0000
  C   C198      1.0  0.50644  0.34952  0.71282  1.0000
  H   H347      1.0  0.07393  0.42245  0.82682  1.0000
  C   C199      1.0  0.16684  0.34817  0.87568  1.0000
  H   H348      1.0  0.31703  0.38722  0.82189  1.0000
  C   C200      1.0  0.16620  0.39930  0.86994  1.0000
  H   H349      1.0  0.45114  0.36577  0.86248  1.0000
  H   H350      1.0  0.58002  0.38247  0.82733  1.0000
  C   C201      1.0  0.33122  0.48983  0.67416  1.0000
  H   H351      1.0  0.26316  0.48739  0.67774  1.0000
  H   H352      1.0  0.28123  0.36481  0.78452  1.0000
  H   H353      1.0  0.36310  0.34596  0.86232  1.0000
  H   H354      1.0  0.41130  0.54074  0.70807  1.0000
  C   C202      1.0  0.17556  0.34731  0.70475  1.0000
  S   S61       1.0  0.73329  0.37362  0.71223  1.0000
  H   H355      1.0  0.90466  0.46220  0.72538  1.0000
  H   H356      1.0  0.27099  0.40395  0.72934  1.0000
  S   S62       1.0  0.53979  0.43457  0.69046  1.0000
  C   C203      1.0  0.08682  0.42499  0.69744  1.0000
  H   H357      1.0  0.97785  0.48389  0.70417  1.0000
  H   H358      1.0  0.18908  0.44930  0.68769  1.0000
  C   C204      1.0  0.43029  0.34603  0.85201  1.0000
  Fe  Fe30      1.0  0.64824  0.40274  0.66818  1.0000
  C   C205      1.0  0.02320  0.41280  0.67833  1.0000
  C   C206      1.0  0.14122  0.43939  0.67259  1.0000
  H   H359      1.0  0.35637  0.57692  0.70765  1.0000
  H   H360      1.0  0.49833  0.34341  0.67967  1.0000
  Fe  Fe31      1.0  0.84020  0.38789  0.67448  1.0000
  C   C207      1.0  0.55693  0.46617  0.66409  1.0000
  H   H361      1.0  0.79873  0.47868  0.66955  1.0000
  H   H362      1.0  0.18544  0.33867  0.73781  1.0000
  H   H363      1.0  0.24826  0.37048  0.91118  1.0000
  Fe  Fe32      1.0  0.73397  0.34089  0.66297  1.0000
  C   C208      1.0  0.82099  0.56171  0.14209  1.0000
  H   H364      1.0  0.67882  0.51353  0.93705  1.0000
  Fe  Fe33      1.0  0.50841  0.39299  0.93741  1.0000
  H   H365      1.0  0.12304  0.49423  0.03144  1.0000
  S   S63       1.0  0.38082  0.38316  0.95855  1.0000
  H   H366      1.0  0.54885  0.47017  0.03363  1.0000
  Fe  Fe34      1.0  0.32565  0.42366  0.92374  1.0000
  S   S64       1.0  0.66917  0.49640  0.14409  1.0000
  H   H367      1.0  0.37915  0.46344  0.09244  1.0000
  H   H368      1.0  0.33304  0.48539  0.13429  1.0000
  H   H369      1.0  0.61264  0.39073  0.13347  1.0000
  C   C209      1.0  0.64026  0.33754  0.99128  1.0000
  H   H370      1.0  0.38696  0.54491  0.10549  1.0000
  H   H371      1.0  0.72484  0.37824  0.13308  1.0000
  N   N14       1.0  0.16027  0.47386  0.11989  1.0000
  C   C210      1.0  0.75592  0.48094  0.02955  1.0000
  C   C211      1.0  0.12718  0.38898  0.02471  1.0000
  H   H372      1.0  0.24152  0.45166  0.07173  1.0000
  C   C212      1.0  0.16796  0.44871  0.15134  1.0000
  C   C213      1.0  0.51450  0.54231  0.07458  1.0000
  C   C214      1.0  0.75543  0.49593  0.99054  1.0000
  H   H373      1.0  0.02365  0.47599  0.10964  1.0000
  H   H374      1.0  0.16624  0.51916  0.11945  1.0000
  C   C215      1.0  0.24957  0.38799  0.07017  1.0000
  H   H375      1.0  0.68732  0.41408  0.92901  1.0000
  H   H376      1.0  0.47636  0.34343  0.04650  1.0000
  H   H377      1.0  0.05541  0.42797  0.14077  1.0000
  H   H378      1.0  0.20663  0.42945  0.13756  1.0000
  H   H379      1.0  0.09576  0.39525  0.99487  1.0000
  C   C216      1.0  0.58336  0.57821  0.03609  1.0000
  H   H380      1.0  0.01100  0.49646  0.03962  1.0000
  H   H381      1.0  0.49829  0.36717  0.14159  1.0000
  C   C217      1.0  0.08472  0.47388  0.09132  1.0000
  H   H382      1.0  0.68143  0.53950  0.04171  1.0000
  C   C218      1.0  0.07191  0.49746  0.05605  1.0000
  H   H383      1.0  0.23570  0.40873  0.00827  1.0000
  H   H384      1.0  0.45086  0.51038  0.10692  1.0000
  H   H385      1.0  0.89996  0.34356  0.93632  1.0000
  H   H386      1.0  0.81715  0.41306  0.03631  1.0000
  H   H387      1.0  0.71624  0.57095  0.06035  1.0000
  C   C219      1.0  0.76946  0.40043  0.02486  1.0000
  H   H388      1.0  0.09926  0.35345  0.11790  1.0000
  H   H389      1.0  0.08987  0.45301  0.07554  1.0000
  H   H390      1.0  0.01656  0.51615  0.14587  1.0000
  H   H391      1.0  0.33518  0.44720  0.13743  1.0000
  H   H392      1.0  0.90796  0.56363  0.08902  1.0000
  H   H393      1.0  0.97555  0.36845  0.93167  1.0000
  H   H394      1.0  0.74590  0.37420  0.97328  1.0000
  H   H395      1.0  0.24220  0.36630  0.13096  1.0000
  S   S65       1.0  0.33014  0.45120  0.97980  1.0000
  C   C220      1.0  0.20718  0.39646  0.03223  1.0000
  H   H396      1.0  0.06639  0.51912  0.06879  1.0000
  H   H397      1.0  0.86645  0.43840  0.97983  1.0000
  C   C221      1.0  0.68152  0.47160  0.04486  1.0000
  S   S66       1.0  0.99099  0.36258  0.04331  1.0000
  H   H398      1.0  0.85197  0.36903  0.99136  1.0000
  H   H399      1.0  0.70586  0.41385  0.02243  1.0000
  N   N15       1.0  0.82071  0.40477  0.94655  1.0000
  Fe  Fe35      1.0  0.79840  0.47257  0.12724  1.0000
  C   C222      1.0  0.79749  0.38581  0.98289  1.0000
  C   C223      1.0  0.60633  0.47734  0.02147  1.0000
  S   S67       1.0  0.52621  0.41754  0.99482  1.0000
  H   H400      1.0  0.53350  0.57556  0.14319  1.0000
  C   C224      1.0  0.74126  0.42565  0.93597  1.0000
  C   C225      1.0  0.89218  0.41989  0.96021  1.0000
  Fe  Fe36      1.0  0.39331  0.41099  0.01318  1.0000
  C   C226      1.0  0.88675  0.57228  0.11936  1.0000
  C   C227      1.0  0.32589  0.46644  0.11606  1.0000
  Fe  Fe37      1.0  0.46188  0.45573  0.95690  1.0000
  H   H401      1.0  0.81307  0.50321  0.97876  1.0000
  C   C228      1.0  0.67953  0.50205  0.96731  1.0000
  C   C229      1.0  0.60540  0.49239  0.98264  1.0000
  C   C230      1.0  0.45320  0.53350  0.10933  1.0000
  H   H402      1.0  0.71986  0.43899  0.96345  1.0000
  S   S68       1.0  0.51318  0.49712  0.95215  1.0000
  H   H403      1.0  0.76363  0.38370  0.04975  1.0000
  H   H404      1.0  0.96782  0.45107  0.93437  1.0000
  H   H405      1.0  0.70707  0.56619  0.00493  1.0000
  H   H406      1.0  0.36598  0.56846  0.03734  1.0000
  S   S69       1.0  0.35209  0.39630  0.07765  1.0000
  C   C231      1.0  0.13001  0.36495  0.09369  1.0000
  H   H407      1.0  0.57526  0.52736  0.07840  1.0000
  H   H408      1.0  0.63198  0.56042  0.12016  1.0000
  H   H409      1.0  0.01093  0.41568  0.92235  1.0000
  H   H410      1.0  0.24067  0.48906  0.07026  1.0000
  H   H411      1.0  0.62067  0.35903  0.00164  1.0000
  C   C232      1.0  0.57562  0.57736  0.11496  1.0000
  H   H412      1.0  0.47575  0.53648  0.14163  1.0000
  C   C233      1.0  0.66135  0.37117  0.13596  1.0000
  H   H413      1.0  0.49020  0.53710  0.04332  1.0000
  C   C234      1.0  0.21040  0.37258  0.10129  1.0000
  S   S70       1.0  0.84743  0.47507  0.06062  1.0000
  H   H414      1.0  0.68232  0.45931  0.07439  1.0000
  H   H415      1.0  0.65529  0.35746  0.10888  1.0000
  C   C235      1.0  0.23993  0.47031  0.09231  1.0000
  C   C236      1.0  0.15591  0.50160  0.14232  1.0000
  H   H416      1.0  0.79123  0.54502  0.12903  1.0000
  C   C237      1.0  0.08912  0.37278  0.05502  1.0000
  H   H417      1.0  0.93649  0.40543  0.98128  1.0000
  N   N16       1.0  0.53015  0.57279  0.07473  1.0000
  C   C238      1.0  0.94958  0.43057  0.92491  1.0000
  H   H418      1.0  0.55439  0.57139  0.00698  1.0000
  H   H419      1.0  0.37280  0.33816  0.03430  1.0000
  C   C239      1.0  0.67696  0.56277  0.03636  1.0000
  C   C240      1.0  0.91988  0.36135  0.91688  1.0000
  H   H420      1.0  0.02433  0.51443  0.39994  1.0000
  C   C241      1.0  0.38566  0.51113  0.22315  1.0000
  H   H421      1.0  0.94522  0.39862  0.18603  1.0000
  H   H422      1.0  0.90291  0.48943  0.40418  1.0000
  C   C242      1.0  0.93388  0.38411  0.21193  1.0000
  H   H423      1.0  0.06258  0.49730  0.19359  1.0000
  H   H424      1.0  0.09980  0.42184  0.19246  1.0000
  H   H425      1.0  0.65289  0.37148  0.20403  1.0000
  H   H426      1.0  0.58533  0.45929  0.32726  1.0000
  H   H427      1.0  0.94372  0.56125  0.28454  1.0000
  H   H428      1.0  0.04022  0.53497  0.28497  1.0000
  C   C243      1.0  0.61073  0.35908  0.34307  1.0000
  C   C244      1.0  0.26406  0.35698  0.35849  1.0000
  H   H429      1.0  0.63582  0.40486  0.26186  1.0000
  H   H430      1.0  0.26579  0.37489  0.38008  1.0000
  H   H431      1.0  0.26195  0.58434  0.36625  1.0000
  H   H432      1.0  0.56787  0.34268  0.34317  1.0000
  Fe  Fe38      1.0  0.73571  0.51205  0.19784  1.0000
  C   C245      1.0  0.38032  0.45248  0.22893  1.0000
  H   H433      1.0  0.48819  0.53173  0.31640  1.0000
  H   H434      1.0  0.03686  0.45538  0.17953  1.0000
  H   H435      1.0  0.09550  0.38983  0.29737  1.0000
  C   C246      1.0  0.51816  0.52062  0.38180  1.0000
  C   C247      1.0  0.85552  0.36098  0.40677  1.0000
  H   H436      1.0  0.66962  0.58599  0.28492  1.0000
  S   S71       1.0  0.23589  0.51317  0.39721  1.0000
  C   C248      1.0  0.64589  0.44126  0.40800  1.0000
  H   H437      1.0  0.97869  0.56804  0.39541  1.0000
  C   C249      1.0  0.45348  0.46226  0.21281  1.0000
  C   C250      1.0  0.99667  0.52540  0.37027  1.0000
  S   S72       1.0  0.62622  0.52416  0.37608  1.0000
  C   C251      1.0  0.97086  0.53867  0.27887  1.0000
  C   C252      1.0  0.31040  0.47196  0.24271  1.0000
  C   C253      1.0  0.30001  0.36566  0.31490  1.0000
  C   C254      1.0  0.45683  0.49154  0.21061  1.0000
  H   H438      1.0  0.38759  0.53377  0.22080  1.0000
  C   C255      1.0  0.88049  0.49759  0.37202  1.0000
  C   C256      1.0  0.65520  0.35528  0.17921  1.0000
  H   H439      1.0  0.46204  0.45613  0.37732  1.0000
  H   H440      1.0  0.15564  0.40950  0.33150  1.0000
  H   H441      1.0  0.37780  0.42985  0.23089  1.0000
  C   C257      1.0  0.91637  0.37423  0.28710  1.0000
  C   C258      1.0  0.93872  0.55293  0.38346  1.0000
  H   H442      1.0  0.84322  0.40532  0.38728  1.0000
  Fe  Fe39      1.0  0.83692  0.45382  0.21858  1.0000
  C   C259      1.0  0.34414  0.51650  0.39163  1.0000
  H   H443      1.0  0.20327  0.45296  0.18001  1.0000
  H   H444      1.0  0.71966  0.42984  0.32922  1.0000
  H   H445      1.0  0.04282  0.41307  0.33588  1.0000
  N   N17       1.0  0.58115  0.33888  0.18464  1.0000
  H   H446      1.0  0.64657  0.58265  0.33886  1.0000
  C   C260      1.0  0.46336  0.52627  0.34718  1.0000
  C   C261      1.0  0.46004  0.44948  0.34405  1.0000
  H   H447      1.0  0.03818  0.46850  0.37033  1.0000
  H   H448      1.0  0.56499  0.56190  0.27200  1.0000
  H   H449      1.0  0.35936  0.37468  0.32022  1.0000
  H   H450      1.0  0.83126  0.51666  0.37730  1.0000
  H   H451      1.0  0.49903  0.38930  0.35657  1.0000
  H   H452      1.0  0.64893  0.39683  0.40520  1.0000
  C   C262      1.0  0.50043  0.35966  0.17548  1.0000
  H   H453      1.0  0.90060  0.56363  0.35679  1.0000
  C   C263      1.0  0.90581  0.33766  0.23670  1.0000
  H   H454      1.0  0.12595  0.56764  0.36626  1.0000
  C   C264      1.0  0.83136  0.47538  0.35363  1.0000
  C   C265      1.0  0.37601  0.52486  0.35235  1.0000
  C   C266      1.0  0.55695  0.38895  0.33589  1.0000
  H   H455      1.0  0.80700  0.35636  0.38562  1.0000
  H   H456      1.0  0.53225  0.39017  0.30296  1.0000
  S   S73       1.0  0.71189  0.47677  0.24280  1.0000
  H   H457      1.0  0.13558  0.49608  0.32501  1.0000
  N   N18       1.0  0.17616  0.34841  0.35952  1.0000
  S   S74       1.0  0.71810  0.55797  0.21191  1.0000
  H   H458      1.0  0.13836  0.46005  0.31184  1.0000
  H   H459      1.0  0.05234  0.53172  0.35310  1.0000
  C   C267      1.0  0.55056  0.44077  0.32523  1.0000
  H   H460      1.0  0.54225  0.43866  0.29068  1.0000
  H   H461      1.0  0.81331  0.48028  0.32017  1.0000
  H   H462      1.0  0.86773  0.45347  0.35685  1.0000
  H   H463      1.0  0.20822  0.50024  0.16569  1.0000
  H   H464      1.0  0.51392  0.49910  0.19892  1.0000
  H   H465      1.0  0.25621  0.38205  0.29699  1.0000
  H   H466      1.0  0.73294  0.39309  0.34320  1.0000
  H   H467      1.0  0.42688  0.46811  0.32533  1.0000
  H   H468      1.0  0.56122  0.34672  0.25152  1.0000
  H   H469      1.0  0.64476  0.35671  0.37361  1.0000
  C   C268      1.0  0.07291  0.51207  0.16684  1.0000
  H   H470      1.0  0.11371  0.38490  0.39414  1.0000
  H   H471      1.0  0.08007  0.48690  0.27848  1.0000
  H   H472      1.0  0.85381  0.53077  0.30802  1.0000
  N   N19       1.0  0.60148  0.41399  0.34448  1.0000
  H   H473      1.0  0.73310  0.38112  0.27410  1.0000
  H   H474      1.0  0.77112  0.47566  0.37197  1.0000
  H   H475      1.0  0.42030  0.43238  0.34218  1.0000
  C   C269      1.0  0.60754  0.41594  0.39189  1.0000
  H   H476      1.0  0.04290  0.36692  0.36661  1.0000
  N   N20       1.0  0.95377  0.50538  0.34518  1.0000
  C   C270      1.0  0.92261  0.35628  0.20347  1.0000
  S   S75       1.0  0.93034  0.42906  0.26331  1.0000
  H   H477      1.0  0.73654  0.41721  0.26093  1.0000
  C   C271      1.0  0.91882  0.51821  0.30322  1.0000
  C   C272      1.0  0.01638  0.47842  0.33904  1.0000
  C   C273      1.0  0.87559  0.38858  0.40792  1.0000
  H   H478      1.0  0.40814  0.34077  0.21724  1.0000
  H   H479      1.0  0.91011  0.50102  0.28131  1.0000
  C   C274      1.0  0.31256  0.50126  0.23930  1.0000
  C   C275      1.0  0.10689  0.37387  0.36437  1.0000
  H   H480      1.0  0.98558  0.46238  0.32327  1.0000
  C   C276      1.0  0.10143  0.39752  0.32970  1.0000
  H   H481      1.0  0.71514  0.43879  0.40071  1.0000
  H   H482      1.0  0.33374  0.52927  0.32555  1.0000
  C   C277      1.0  0.09658  0.48111  0.31201  1.0000
  C   C278      1.0  0.69043  0.41025  0.32557  1.0000
  H   H483      1.0  0.91209  0.38140  0.31929  1.0000
  H   H484      1.0  0.25399  0.46434  0.25536  1.0000
  C   C279      1.0  0.69766  0.40297  0.27810  1.0000
  S   S76       1.0  0.54009  0.43765  0.19545  1.0000
  C   C280      1.0  0.92919  0.39322  0.25361  1.0000
  C   C281      1.0  0.90377  0.34646  0.27863  1.0000
  S   S77       1.0  0.22197  0.52502  0.25425  1.0000
  H   H485      1.0  0.96365  0.53624  0.24427  1.0000
  Fe  Fe40      1.0  0.21553  0.56997  0.22980  1.0000
  H   H486      1.0  0.65840  0.35390  0.31740  1.0000
  H   H487      1.0  0.49910  0.37919  0.19424  1.0000
  Fe  Fe41      1.0  0.65608  0.45879  0.18701  1.0000
  S   S78       1.0  0.86589  0.49079  0.17868  1.0000
  H   H488      1.0  0.46062  0.57293  0.25180  1.0000
  C   C282      1.0  0.79534  0.57234  0.18191  1.0000
  C   C283      1.0  0.41475  0.34904  0.18429  1.0000
  C   C284      1.0  0.52030  0.58084  0.26017  1.0000
  H   H489      1.0  0.71756  0.34092  0.18342  1.0000
  H   H490      1.0  0.61261  0.46212  0.39581  1.0000
  S   S79       1.0  0.24067  0.58205  0.16210  1.0000
  H   H491      1.0  0.36249  0.36745  0.17979  1.0000
  S   S80       1.0  0.77962  0.43344  0.16546  1.0000
  H   H492      1.0  0.16212  0.34635  0.29130  1.0000
  H   H493      1.0  0.31852  0.34704  0.29470  1.0000
  H   H494      1.0  0.54394  0.41627  0.40760  1.0000
  H   H495      1.0  0.07847  0.53280  0.18092  1.0000
  H   H496      1.0  0.92488  0.34959  0.17105  1.0000
  C   C285      1.0  0.08465  0.43831  0.16664  1.0000
  H   H497      1.0  0.14041  0.58705  0.31867  1.0000
  H   H498      1.0  0.31275  0.33933  0.37127  1.0000
  H   H499      1.0  0.89552  0.54846  0.41002  1.0000
  C   C286      1.0  0.53300  0.70072  0.62110  1.0000
  H   H500      1.0  0.72056  0.64602  0.56401  1.0000
  S   S81       1.0  0.20431  0.71429  0.63349  1.0000
  Fe  Fe42      1.0  0.98270  0.70899  0.58753  1.0000
  C   C287      1.0  0.87467  0.81711  0.56158  1.0000
  C   C288      1.0  0.00787  0.83376  0.57952  1.0000
  H   H501      1.0  0.58009  0.67235  0.54555  1.0000
  C   C289      1.0  0.38605  0.66562  0.50584  1.0000
  C   C290      1.0  0.40253  0.61892  0.56339  1.0000
  H   H502      1.0  0.04141  0.72256  0.44921  1.0000
  S   S82       1.0  0.03534  0.68252  0.64432  1.0000
  S   S83       1.0  0.24787  0.63517  0.60147  1.0000
  H   H503      1.0  0.52552  0.60664  0.53514  1.0000
  H   H504      1.0  0.73963  0.63190  0.61660  1.0000
  S   S84       1.0  0.86653  0.70393  0.55135  1.0000
  C   C291      1.0  0.01529  0.82550  0.48582  1.0000
  H   H505      1.0  0.03866  0.81131  0.57563  1.0000
  Fe  Fe43      1.0  0.13942  0.73830  0.57778  1.0000
  H   H506      1.0  0.52809  0.70812  0.49247  1.0000
  H   H507      1.0  0.41377  0.61128  0.43675  1.0000
  C   C292      1.0  0.77322  0.77969  0.44028  1.0000
  C   C293      1.0  0.64287  0.72793  0.59604  1.0000
  H   H508      1.0  0.66154  0.69232  0.53098  1.0000
  H   H509      1.0  0.15218  0.78160  0.62604  1.0000
  H   H510      1.0  0.78725  0.67678  0.48546  1.0000
  C   C294      1.0  0.22609  0.81303  0.64513  1.0000
  H   H511      1.0  0.45458  0.79803  0.45309  1.0000
  C   C295      1.0  0.68427  0.67694  0.61358  1.0000
  H   H512      1.0  0.96952  0.78130  0.53876  1.0000
  H   H513      1.0  0.73678  0.72184  0.64839  1.0000
  C   C296      1.0  0.85286  0.63335  0.48540  1.0000
  H   H514      1.0  0.41055  0.60110  0.58593  1.0000
  C   C297      1.0  0.79191  0.80668  0.42856  1.0000
  C   C298      1.0  0.32885  0.82611  0.59336  1.0000
  C   C299      1.0  0.27579  0.62025  0.43002  1.0000
  H   H515      1.0  0.05246  0.80927  0.50681  1.0000
  H   H516      1.0  0.05951  0.61869  0.42713  1.0000
  C   C300      1.0  0.29081  0.82872  0.63367  1.0000
  C   C301      1.0  0.75385  0.83045  0.45099  1.0000
  S   S85       1.0  0.62177  0.79383  0.54354  1.0000
  H   H517      1.0  0.98704  0.81433  0.46071  1.0000
  C   C302      1.0  0.45856  0.64470  0.50433  1.0000
  Fe  Fe44      1.0  0.61934  0.60371  0.46938  1.0000
  C   C303      1.0  0.90100  0.79009  0.53605  1.0000
  H   H518      1.0  0.27257  0.77730  0.45222  1.0000
  C   C304      1.0  0.68576  0.79962  0.49917  1.0000
  H   H519      1.0  0.80650  0.82421  0.55405  1.0000
  H   H520      1.0  0.99050  0.65506  0.57490  1.0000
  H   H521      1.0  0.74824  0.68319  0.60729  1.0000
  S   S86       1.0  0.71092  0.83413  0.64057  1.0000
  H   H522      1.0  0.86390  0.77332  0.54775  1.0000
  C   C305      1.0  0.20089  0.79414  0.61665  1.0000
  H   H523      1.0  0.48512  0.71918  0.61017  1.0000
  H   H524      1.0  0.42739  0.67876  0.63993  1.0000
  N   N21       1.0  0.19734  0.60791  0.41864  1.0000
  C   C306      1.0  0.46770  0.62190  0.53403  1.0000
  C   C307      1.0  0.32907  0.63940  0.56447  1.0000
  C   C308      1.0  0.60013  0.69342  0.54911  1.0000
  H   H525      1.0  0.32971  0.80631  0.53287  1.0000
  C   C309      1.0  0.70104  0.82690  0.48648  1.0000
  H   H526      1.0  0.12690  0.63744  0.49308  1.0000
  C   C310      1.0  0.88670  0.66929  0.53217  1.0000
  C   C311      1.0  0.91775  0.61331  0.50363  1.0000
  C   C312      1.0  0.96730  0.62132  0.53587  1.0000
  H   H527      1.0  0.80163  0.76126  0.42285  1.0000
  C   C313      1.0  0.30098  0.80815  0.56418  1.0000
  H   H528      1.0  0.52752  0.65563  0.63751  1.0000
  C   C314      1.0  0.95220  0.64929  0.54983  1.0000
  H   H529      1.0  0.47129  0.66902  0.58941  1.0000
  H   H530      1.0  0.87498  0.81037  0.59580  1.0000
  H   H531      1.0  0.20998  0.73515  0.44120  1.0000
  S   S87       1.0  0.20307  0.76947  0.53973  1.0000
  H   H532      1.0  0.70795  0.75504  0.48477  1.0000
  C   C315      1.0  0.23745  0.79203  0.57594  1.0000
  H   H533      1.0  0.97106  0.75437  0.46139  1.0000
  C   C316      1.0  0.53344  0.71531  0.52530  1.0000
  H   H534      1.0  0.58905  0.74520  0.58796  1.0000
  C   C317      1.0  0.48837  0.67429  0.62164  1.0000
  H   H535      1.0  0.26775  0.67972  0.53797  1.0000
  C   C318      1.0  0.11704  0.62951  0.42438  1.0000
  C   C319      1.0  0.21050  0.75009  0.41318  1.0000
  C   C320      1.0  0.72022  0.77617  0.47538  1.0000
  C   C321      1.0  0.69346  0.64650  0.59669  1.0000
  S   S88       1.0  0.01447  0.74980  0.61140  1.0000
  H   H536      1.0  0.12146  0.58960  0.50316  1.0000
  H   H537      1.0  0.46889  0.71684  0.54001  1.0000
  Fe  Fe45      1.0  0.15861  0.67637  0.60718  1.0000
  S   S89       1.0  0.70531  0.59183  0.52400  1.0000
  H   H538      1.0  0.99274  0.83463  0.61411  1.0000
  H   H539      1.0  0.63298  0.63768  0.59667  1.0000
  H   H540      1.0  0.69369  0.72978  0.57165  1.0000
  H   H541      1.0  0.08134  0.75150  0.47443  1.0000
  Fe  Fe46      1.0  0.60830  0.82179  0.59999  1.0000
  N   N22       1.0  0.61421  0.69916  0.59500  1.0000
  H   H542      1.0  0.88521  0.79420  0.50223  1.0000
  S   S90       1.0  0.10250  0.70000  0.54911  1.0000
  C   C322      1.0  0.32204  0.66317  0.53638  1.0000
  H   H543      1.0  0.55312  0.73668  0.52223  1.0000
  C   C323      1.0  0.83736  0.66136  0.49964  1.0000
  H   H544      1.0  0.81422  0.62728  0.46043  1.0000
  C   C324      1.0  0.03698  0.74603  0.45035  1.0000
  H   H545      1.0  0.37941  0.68366  0.48360  1.0000
  S   S91       1.0  0.53710  0.64646  0.46506  1.0000
  H   H546      1.0  0.15831  0.66484  0.45794  1.0000
  H   H547      1.0  0.04813  0.66165  0.46507  1.0000
  C   C325      1.0  0.11358  0.64920  0.46247  1.0000
  H   H548      1.0  0.16047  0.78902  0.44792  1.0000
  H   H549      1.0  0.01549  0.60578  0.55114  1.0000
  C   C326      1.0  0.21809  0.77967  0.42994  1.0000
  H   H550      1.0  0.27236  0.62776  0.46296  1.0000
  H   H551      1.0  0.67811  0.67535  0.64876  1.0000
  C   C327      1.0  0.36194  0.59996  0.42660  1.0000
  H   H552      1.0  0.45894  0.82920  0.50436  1.0000
  H   H553      1.0  0.23181  0.59550  0.50496  1.0000
  H   H554      1.0  0.55813  0.80214  0.43519  1.0000
  C   C328      1.0  0.67726  0.73603  0.63867  1.0000
  H   H555      1.0  0.33025  0.82825  0.43074  1.0000
  C   C329      1.0  0.49052  0.80459  0.42478  1.0000
  H   H556      1.0  0.54515  0.70459  0.65481  1.0000
  H   H557      1.0  0.69401  0.75777  0.63437  1.0000
  S   S92       1.0  0.53951  0.80566  0.65639  1.0000
  S   S93       1.0  0.26050  0.81189  0.89540  1.0000
  H   H558      1.0  0.78895  0.81429  0.88233  1.0000
  C   C330      1.0  0.01130  0.82907  0.72687  1.0000
  H   H559      1.0  0.29151  0.81802  0.80431  1.0000
  H   H560      1.0  0.41339  0.83538  0.88056  1.0000
  H   H561      1.0  0.35364  0.72667  0.72456  1.0000
  C   C331      1.0  0.32163  0.81136  0.77364  1.0000
  C   C332      1.0  0.78785  0.78454  0.75288  1.0000
  H   H562      1.0  0.44872  0.81362  0.80032  1.0000
  H   H563      1.0  0.16535  0.80497  0.81237  1.0000
  H   H564      1.0  0.22757  0.75233  0.75957  1.0000
  H   H565      1.0  0.11338  0.77559  0.80172  1.0000
  Fe  Fe47      1.0  0.07581  0.72279  0.66559  1.0000
  H   H566      1.0  0.34655  0.77297  0.83594  1.0000
  H   H567      1.0  0.19652  0.81513  0.67618  1.0000
  C   C333      1.0  0.84540  0.78061  0.78653  1.0000
  C   C334      1.0  0.95267  0.75386  0.74130  1.0000
  H   H568      1.0  0.28276  0.75106  0.69077  1.0000
  H   H569      1.0  0.76719  0.77538  0.68810  1.0000
  C   C335      1.0  0.37073  0.77207  0.72689  1.0000
  C   C336      1.0  0.23223  0.77475  0.76620  1.0000
  H   H570      1.0  0.28099  0.82399  0.74898  1.0000
  H   H571      1.0  0.64693  0.82112  0.85064  1.0000
  H   H572      1.0  0.44551  0.81689  0.74289  1.0000
  H   H573      1.0  0.90974  0.74656  0.67893  1.0000
  H   H574      1.0  0.43885  0.76737  0.80468  1.0000
  H   H575      1.0  0.39259  0.74154  0.67660  1.0000
  H   H576      1.0  0.35884  0.79009  0.70310  1.0000
  C   C337      1.0  0.37088  0.76405  0.80513  1.0000
  H   H577      1.0  0.31397  0.72440  0.79913  1.0000
  H   H578      1.0  0.97290  0.76290  0.80652  1.0000
  C   C338      1.0  0.89336  0.75673  0.70846  1.0000
  H   H579      1.0  0.82671  0.78966  0.81685  1.0000
  N   N23       1.0  0.32387  0.77983  0.76809  1.0000
  H   H580      1.0  0.19895  0.78727  0.73919  1.0000
  H   H581      1.0  0.44127  0.76831  0.73157  1.0000
  H   H582      1.0  0.00748  0.80623  0.73328  1.0000
  S   S94       1.0  0.68639  0.80472  0.75929  1.0000
  H   H583      1.0  0.38356  0.72406  0.84174  1.0000
  H   H584      1.0  0.62886  0.73689  0.66453  1.0000
  S   S95       1.0  0.05895  0.73787  0.73223  1.0000
  C   C339      1.0  0.92809  0.76546  0.78066  1.0000
  C   C340      1.0  0.34819  0.74618  0.70398  1.0000
  Fe  Fe48      1.0  0.63389  0.82232  0.69668  1.0000
  C   C341      1.0  0.81189  0.77264  0.71389  1.0000
  H   H585      1.0  0.20473  0.76964  0.83480  1.0000
  C   C342      1.0  0.17707  0.78183  0.80634  1.0000
  H   H586      1.0  0.07011  0.83308  0.74258  1.0000
  C   C343      1.0  0.40904  0.82196  0.77264  1.0000
  H   H587      1.0  0.01801  0.83196  0.69210  1.0000
  H   H588      1.0  0.42801  0.72052  0.78873  1.0000
  C   C344      1.0  0.37421  0.73146  0.80808  1.0000
  H   H589      1.0  0.80153  0.77937  0.90693  1.0000
  H   H590      1.0  0.64898  0.79640  0.91025  1.0000
  S   S96       1.0  0.01317  0.80695  0.91112  1.0000
  C   C345      1.0  0.81729  0.78654  0.04800  1.0000
  H   H591      1.0  0.40985  0.59182  0.10326  1.0000
  H   H592      1.0  0.65177  0.61065  0.09244  1.0000
  H   H593      1.0  0.63251  0.74507  0.02389  1.0000
  H   H594      1.0  0.77213  0.73387  0.98599  1.0000
  C   C346      1.0  0.89381  0.74280  0.12716  1.0000
  H   H595      1.0  0.85891  0.64760  0.10357  1.0000
  C   C347      1.0  0.82951  0.76528  0.01794  1.0000
  H   H596      1.0  0.29017  0.76074  0.13145  1.0000
  H   H597      1.0  0.92836  0.75031  0.09919  1.0000
  H   H598      1.0  0.47424  0.82878  0.00085  1.0000
  H   H599      1.0  0.18113  0.79411  0.09630  1.0000
  H   H600      1.0  0.12369  0.82318  0.12394  1.0000
  C   C348      1.0  0.60608  0.60655  0.11794  1.0000
  S   S97       1.0  0.12373  0.80003  0.99897  1.0000
  H   H601      1.0  0.03946  0.78580  0.11763  1.0000
  C   C349      1.0  0.54316  0.82385  0.99225  1.0000
  H   H602      1.0  0.96653  0.66618  0.06287  1.0000
  Fe  Fe49      1.0  0.99227  0.79415  0.97921  1.0000
  H   H603      1.0  0.04328  0.71511  0.10121  1.0000
  H   H604      1.0  0.63994  0.60688  0.14838  1.0000
  C   C350      1.0  0.33159  0.81268  0.09496  1.0000
  H   H605      1.0  0.71588  0.83484  0.99696  1.0000
  C   C351      1.0  0.38730  0.58959  0.03618  1.0000
  H   H606      1.0  0.37500  0.82817  0.08579  1.0000
  H   H607      1.0  0.57899  0.83066  0.01885  1.0000
  H   H608      1.0  0.92890  0.70246  0.04846  1.0000
  H   H609      1.0  0.45867  0.61564  0.07052  1.0000
  C   C352      1.0  0.67301  0.77719  0.06176  1.0000
  H   H610      1.0  0.82729  0.80819  0.93606  1.0000
  Fe  Fe50      1.0  0.60275  0.78956  0.15876  1.0000
  H   H611      1.0  0.52359  0.82961  0.92563  1.0000
  H   H612      1.0  0.55815  0.80038  0.98969  1.0000
  H   H613      1.0  0.41730  0.59323  0.00488  1.0000
  H   H614      1.0  0.11851  0.75931  0.14082  1.0000
  H   H615      1.0  0.37175  0.79132  0.09646  1.0000
  S   S98       1.0  0.57666  0.78353  0.09039  1.0000
  C   C353      1.0  0.15870  0.80112  0.12833  1.0000
  H   H616      1.0  0.73608  0.69624  0.05890  1.0000
  H   H617      1.0  0.32868  0.60580  0.03860  1.0000
  C   C354      1.0  0.68968  0.80738  0.93040  1.0000
  H   H618      1.0  0.86941  0.79747  0.05590  1.0000
  H   H619      1.0  0.82519  0.67487  0.03227  1.0000
  H   H620      1.0  0.69174  0.79534  0.96117  1.0000
  C   C355      1.0  0.73953  0.79219  0.07037  1.0000
  Fe  Fe51      1.0  0.13786  0.81736  0.93262  1.0000
  C   C356      1.0  0.44691  0.59318  0.07314  1.0000
  H   H621      1.0  0.73118  0.80804  0.09445  1.0000
  H   H622      1.0  0.58464  0.60142  0.03073  1.0000
  S   S99       1.0  0.01698  0.60384  0.11182  1.0000
  C   C357      1.0  0.78047  0.67569  0.05977  1.0000
  C   C358      1.0  0.95460  0.68811  0.07555  1.0000
  H   H623      1.0  0.08197  0.67719  0.10371  1.0000
  H   H624      1.0  0.28464  0.81390  0.06908  1.0000
  N   N24       1.0  0.89051  0.68976  0.11189  1.0000
  H   H625      1.0  0.50270  0.68164  0.14814  1.0000
  C   C359      1.0  0.68406  0.75664  0.03061  1.0000
  N   N25       1.0  0.23299  0.80093  0.15771  1.0000
  C   C360      1.0  0.82693  0.67025  0.10268  1.0000
  C   C361      1.0  0.84218  0.71950  0.11530  1.0000
  C   C362      1.0  0.09143  0.78229  0.14140  1.0000
  C   C363      1.0  0.04442  0.69490  0.08488  1.0000
  H   H626      1.0  0.84922  0.76110  0.13978  1.0000
  C   C364      1.0  0.76281  0.75034  0.00920  1.0000
  C   C365      1.0  0.28893  0.82104  0.13811  1.0000
  C   C366      1.0  0.93411  0.67916  0.15282  1.0000
  S   S100      1.0  0.92938  0.75582  0.99335  1.0000
  H   H627      1.0  0.77521  0.67169  0.12711  1.0000
  H   H628      1.0  0.81266  0.72690  0.08466  1.0000
  H   H629      1.0  0.74080  0.65871  0.05569  1.0000
  C   C367      1.0  0.92803  0.59288  0.13711  1.0000
  H   H630      1.0  0.96776  0.65703  0.14942  1.0000
  H   H631      1.0  0.07948  0.69680  0.05436  1.0000
  H   H632      1.0  0.78600  0.72026  0.13702  1.0000
  H   H633      1.0  0.93928  0.73609  0.15294  1.0000
  H   H634      1.0  0.55195  0.62441  0.11826  1.0000
  C   C368      1.0  0.78198  0.80244  0.91272  1.0000
  H   H635      1.0  0.98550  0.69133  0.16067  1.0000
  H   H636      1.0  0.34264  0.82317  0.15927  1.0000
  S   S101      1.0  0.26754  0.60674  0.25677  1.0000
  C   C369      1.0  0.57846  0.64356  0.27723  1.0000
  H   H637      1.0  0.02168  0.78764  0.31786  1.0000
  C   C370      1.0  0.14403  0.76736  0.34554  1.0000
  H   H638      1.0  0.35074  0.70045  0.28527  1.0000
  Fe  Fe52      1.0  0.73966  0.78350  0.22606  1.0000
  S   S102      1.0  0.64345  0.79154  0.27926  1.0000
  C   C371      1.0  0.83414  0.59375  0.19870  1.0000
  H   H639      1.0  0.82907  0.73760  0.29170  1.0000
  H   H640      1.0  0.30129  0.83403  0.22571  1.0000
  Fe  Fe53      1.0  0.13414  0.63087  0.25114  1.0000
  H   H641      1.0  0.44579  0.65764  0.38634  1.0000
  H   H642      1.0  0.53852  0.71925  0.19357  1.0000
  Fe  Fe54      1.0  0.56781  0.76319  0.24558  1.0000
  H   H643      1.0  0.82629  0.66586  0.19046  1.0000
  H   H644      1.0  0.84567  0.70177  0.19986  1.0000
  H   H645      1.0  0.27042  0.70814  0.35194  1.0000
  C   C372      1.0  0.01432  0.69033  0.28202  1.0000
  S   S103      1.0  0.88386  0.77609  0.22699  1.0000
  H   H646      1.0  0.59400  0.64317  0.36250  1.0000
  C   C373      1.0  0.01289  0.73084  0.23303  1.0000
  C   C374      1.0  0.13586  0.71815  0.37401  1.0000
  S   S104      1.0  0.67776  0.82082  0.18561  1.0000
  H   H647      1.0  0.07304  0.71474  0.36151  1.0000
  C   C375      1.0  0.44850  0.71190  0.24298  1.0000
  C   C376      1.0  0.38290  0.69663  0.25514  1.0000
  H   H648      1.0  0.23693  0.81901  0.26433  1.0000
  H   H649      1.0  0.47923  0.83249  0.34321  1.0000
  Fe  Fe55      1.0  0.28123  0.62094  0.18859  1.0000
  H   H650      1.0  0.29186  0.74953  0.22508  1.0000
  H   H651      1.0  0.61579  0.65892  0.29110  1.0000
  H   H652      1.0  0.54177  0.61354  0.37490  1.0000
  C   C377      1.0  0.25289  0.75083  0.19598  1.0000
  S   S105      1.0  0.15126  0.64734  0.18464  1.0000
  H   H653      1.0  0.16334  0.83498  0.19414  1.0000
  C   C378      1.0  0.20561  0.60097  0.37224  1.0000
  C   C379      1.0  0.05394  0.70465  0.24985  1.0000
  H   H654      1.0  0.90276  0.69138  0.32243  1.0000
  H   H655      1.0  0.93220  0.61964  0.19041  1.0000
  H   H656      1.0  0.04042  0.74973  0.31447  1.0000
  C   C380      1.0  0.65284  0.59884  0.31308  1.0000
  H   H657      1.0  0.40429  0.64199  0.34245  1.0000
  H   H658      1.0  0.44344  0.61853  0.28257  1.0000
  H   H659      1.0  0.74675  0.62704  0.29448  1.0000
  H   H660      1.0  0.18475  0.75577  0.20492  1.0000
  S   S106      1.0  0.08144  0.59293  0.22984  1.0000
  C   C381      1.0  0.12961  0.58930  0.35325  1.0000
  H   H661      1.0  0.20712  0.76146  0.32938  1.0000
  C   C382      1.0  0.40648  0.66958  0.19107  1.0000
  H   H662      1.0  0.34994  0.82651  0.37535  1.0000
  H   H663      1.0  0.56367  0.63425  0.21033  1.0000
  C   C383      1.0  0.45920  0.65170  0.35293  1.0000
  H   H664      1.0  0.81566  0.60163  0.22975  1.0000
  C   C384      1.0  0.93153  0.74270  0.24775  1.0000
  C   C385      1.0  0.05195  0.75984  0.40644  1.0000
  C   C386      1.0  0.46851  0.68599  0.17777  1.0000
  H   H665      1.0  0.91559  0.67123  0.22017  1.0000
  N   N26       1.0  0.56986  0.61904  0.30773  1.0000
  H   H666      1.0  0.78872  0.59583  0.32470  1.0000
  H   H667      1.0  0.35161  0.77302  0.17133  1.0000
  S   S107      1.0  0.06537  0.65735  0.30272  1.0000
  H   H668      1.0  0.64989  0.65352  0.22056  1.0000
  H   H669      1.0  0.52264  0.78551  0.36215  1.0000
  H   H670      1.0  0.19246  0.71514  0.30977  1.0000
  C   C387      1.0  0.36152  0.67556  0.22911  1.0000
  H   H671      1.0  0.31660  0.79586  0.23617  1.0000
  C   C388      1.0  0.48909  0.70724  0.20360  1.0000
  H   H672      1.0  0.46243  0.67189  0.33467  1.0000
  S   S108      1.0  0.66999  0.75195  0.19612  1.0000
  C   C389      1.0  0.07196  0.76881  0.31288  1.0000
  H   H673      1.0  0.20462  0.68238  0.33999  1.0000
  H   H674      1.0  0.09853  0.77030  0.28024  1.0000
  H   H675      1.0  0.62669  0.81500  0.37545  1.0000
  S   S109      1.0  0.86655  0.80939  0.38737  1.0000
  C   C390      1.0  0.19992  0.81313  0.19945  1.0000
  H   H676      1.0  0.14348  0.78987  0.35400  1.0000
  N   N27       1.0  0.13557  0.74888  0.38474  1.0000
  C   C391      1.0  0.90077  0.60382  0.17646  1.0000
  C   C392      1.0  0.87580  0.67975  0.19259  1.0000
  Fe  Fe56      1.0  0.57630  0.82649  0.23652  1.0000
  C   C393      1.0  0.54509  0.63108  0.35072  1.0000
  C   C394      1.0  0.48480  0.78210  0.39123  1.0000
  H   H677      1.0  0.04422  0.74195  0.20856  1.0000
  C   C395      1.0  0.26851  0.81538  0.23287  1.0000
  C   C396      1.0  0.89149  0.72835  0.27983  1.0000
  H   H678      1.0  0.31246  0.66334  0.23921  1.0000
  H   H679      1.0  0.72687  0.62491  0.35092  1.0000
  H   H680      1.0  0.51520  0.65652  0.27166  1.0000
  C   C397      1.0  0.20534  0.70561  0.34211  1.0000
  C   C398      1.0  0.61533  0.63625  0.23274  1.0000
  H   H681      1.0  0.06768  0.60350  0.35761  1.0000
  C   C399      1.0  0.49927  0.60325  0.29451  1.0000
  C   C400      1.0  0.93352  0.70236  0.29741  1.0000
  S   S110      1.0  0.48278  0.73526  0.27838  1.0000
  H   H682      1.0  0.21564  0.62016  0.35261  1.0000
  H   H683      1.0  0.11715  0.69589  0.23861  1.0000
  S   S111      1.0  0.49613  0.79858  0.20596  1.0000
  H   H684      1.0  0.51190  0.76071  0.40471  1.0000
  H   H685      1.0  0.66262  0.61664  0.23224  1.0000
  H   H686      1.0  0.14465  0.70413  0.40309  1.0000
  H   H687      1.0  0.15302  0.80102  0.21484  1.0000
  C   C401      1.0  0.73235  0.61285  0.32139  1.0000
  H   H688      1.0  0.23228  0.79479  0.40427  1.0000
  H   H689      1.0  0.06042  0.78791  0.17236  1.0000
  H   H690      1.0  0.41777  0.78122  0.38258  1.0000
  H   H691      1.0  0.47539  0.59148  0.32230  1.0000
  H   H692      1.0  0.27188  0.74275  0.39637  1.0000
  H   H693      1.0  0.10581  0.64418  0.39593  1.0000
  H   H694      1.0  0.99698  0.75666  0.38651  1.0000
  H   H695      1.0  0.37839  0.59343  0.39376  1.0000
  H   H696      1.0  0.26335  0.72893  0.18358  1.0000
  H   H697      1.0  0.54551  0.58950  0.23053  1.0000
  N   N28       1.0  0.45780  0.83508  0.41129  1.0000
  Fe  Fe57      1.0  0.10912  0.60739  0.16366  1.0000
  S   S112      1.0  0.39132  0.64013  0.16193  1.0000
  H   H698      1.0  0.28052  0.63963  0.40971  1.0000
  H   H699      1.0  0.04432  0.78328  0.40979  1.0000
  C   C402      1.0  0.28473  0.77145  0.16245  1.0000
  Fe  Fe58      1.0  0.23305  0.02364  0.48930  1.0000
  H   H700      1.0  0.89043  0.00657  0.52534  1.0000
  H   H701      1.0  0.20123  0.07391  0.42374  1.0000
  Fe  Fe59      1.0  0.36073  0.04817  0.43410  1.0000
  C   C403      1.0  0.53388  0.97403  0.57751  1.0000
  C   C404      1.0  0.29138  0.93732  0.58519  1.0000
  S   S113      1.0  0.30467  0.05990  0.49780  1.0000
  H   H702      1.0  0.23408  0.90070  0.56542  1.0000
  H   H703      1.0  0.78676  0.04240  0.54907  1.0000
  H   H704      1.0  0.56994  0.92836  0.57666  1.0000
  H   H705      1.0  0.83190  0.01576  0.45698  1.0000
  H   H706      1.0  0.04731  0.08170  0.49772  1.0000
  C   C405      1.0  0.54491  0.99922  0.59694  1.0000
  C   C406      1.0  0.10866  0.94864  0.44915  1.0000
  C   C407      1.0  0.26775  0.97732  0.63260  1.0000
  H   H707      1.0  0.01127  0.03630  0.63688  1.0000
  N   N29       1.0  0.77606  0.99045  0.50503  1.0000
  N   N30       1.0  0.26415  0.94586  0.62953  1.0000
  H   H708      1.0  0.67716  0.96272  0.44878  1.0000
  C   C408      1.0  0.79355  0.88076  0.54889  1.0000
  H   H709      1.0  0.34273  0.90097  0.54788  1.0000
  H   H710      1.0  0.87689  0.91950  0.64166  1.0000
  H   H711      1.0  0.58504  0.89752  0.41904  1.0000
  C   C409      1.0  0.06837  0.96956  0.52998  1.0000
  H   H712      1.0  0.13393  0.99868  0.62614  1.0000
  S   S114      1.0  0.47351  0.01834  0.45911  1.0000
  H   H713      1.0  0.49332  0.97480  0.55041  1.0000
  C   C410      1.0  0.10587  0.97762  0.45632  1.0000
  H   H714      1.0  0.74036  0.04464  0.65889  1.0000
  C   C411      1.0  0.29722  0.90570  0.57481  1.0000
  C   C412      1.0  0.87435  0.04303  0.64427  1.0000
  S   S115      1.0  0.69443  0.91420  0.64296  1.0000
  C   C413      1.0  0.07284  0.94044  0.52307  1.0000
  S   S116      1.0  0.43726  0.93955  0.43657  1.0000
  H   H715      1.0  0.03561  0.07557  0.58809  1.0000
  H   H716      1.0  0.37925  0.83806  0.58446  1.0000
  C   C414      1.0  0.85546  0.98818  0.53128  1.0000
  H   H717      1.0  0.90208  0.96957  0.52151  1.0000
  H   H718      1.0  0.79326  0.94425  0.50327  1.0000
  H   H719      1.0  0.36301  0.85283  0.48725  1.0000
  C   C415      1.0  0.60260  0.99801  0.63027  1.0000
  H   H720      1.0  0.64756  0.93818  0.48826  1.0000
  C   C416      1.0  0.70811  0.01420  0.51940  1.0000
  H   H721      1.0  0.74044  0.00245  0.43983  1.0000
  H   H722      1.0  0.60755  0.97512  0.49254  1.0000
  H   H723      1.0  0.77036  0.90210  0.56161  1.0000
  H   H724      1.0  0.24608  0.94895  0.56165  1.0000
  H   H725      1.0  0.87881  0.07933  0.47056  1.0000
  H   H726      1.0  0.89844  0.99008  0.59606  1.0000
  C   C417      1.0  0.73715  0.04334  0.52446  1.0000
  Fe  Fe60      1.0  0.39019  0.98444  0.45530  1.0000
  C   C418      1.0  0.63528  0.94658  0.62555  1.0000
  H   H727      1.0  0.11818  0.85279  0.59791  1.0000
  S   S117      1.0  0.49342  0.03242  0.57724  1.0000
  C   C419      1.0  0.47686  0.85430  0.44559  1.0000
  H   H728      1.0  0.35377  0.94391  0.57624  1.0000
  H   H729      1.0  0.65374  0.01786  0.49694  1.0000
  H   H730      1.0  0.92069  0.96686  0.45268  1.0000
  H   H731      1.0  0.82772  0.95347  0.43369  1.0000
  C   C420      1.0  0.87645  0.86760  0.57225  1.0000
  S   S118      1.0  0.88735  0.88826  0.41684  1.0000
  C   C421      1.0  0.64871  0.97174  0.64408  1.0000
  H   H732      1.0  0.95980  0.86814  0.50249  1.0000
  H   H733      1.0  0.44554  0.92333  0.62751  1.0000
  H   H734      1.0  0.19031  0.99275  0.57639  1.0000
  H   H735      1.0  0.32933  0.98272  0.61972  1.0000
  H   H736      1.0  0.76500  0.85151  0.44099  1.0000
  H   H737      1.0  0.67912  0.00841  0.54999  1.0000
  Fe  Fe61      1.0  0.02789  0.88980  0.41363  1.0000
  H   H738      1.0  0.85818  0.86362  0.60590  1.0000
  C   C422      1.0  0.43365  0.85014  0.48904  1.0000
  C   C423      1.0  0.07657  0.85300  0.57000  1.0000
  C   C424      1.0  0.79893  0.99674  0.45943  1.0000
  S   S119      1.0  0.33403  0.99168  0.51987  1.0000
  S   S120      1.0  0.09642  0.02292  0.50715  1.0000
  H   H739      1.0  0.12574  0.94055  0.41807  1.0000
  C   C425      1.0  0.17336  0.94113  0.63869  1.0000
  H   H740      1.0  0.72300  0.95891  0.54368  1.0000
  S   S121      1.0  0.52867  0.86518  0.59802  1.0000
  C   C426      1.0  0.95698  0.02865  0.65188  1.0000
  C   C427      1.0  0.09311  0.93006  0.48263  1.0000
  H   H741      1.0  0.76033  0.05187  0.49410  1.0000
  H   H742      1.0  0.68156  0.05884  0.53530  1.0000
  C   C428      1.0  0.66435  0.95988  0.48308  1.0000
  H   H743      1.0  0.54648  0.85130  0.45175  1.0000
  H   H744      1.0  0.95637  0.07852  0.52947  1.0000
  C   C429      1.0  0.57820  0.94768  0.59210  1.0000
  S   S122      1.0  0.09662  0.89399  0.47385  1.0000
  H   H745      1.0  0.80295  0.88436  0.51438  1.0000
  H   H746      1.0  0.18940  0.89400  0.63413  1.0000
  H   H747      1.0  0.11972  0.99192  0.43062  1.0000
  H   H748      1.0  0.74127  0.86814  0.55479  1.0000
  Fe  Fe62      1.0  0.62631  0.87656  0.64244  1.0000
  H   H749      1.0  0.13327  0.94659  0.61016  1.0000
  H   H750      1.0  0.78647  0.99676  0.59275  1.0000
  H   H751      1.0  0.05241  0.97784  0.56108  1.0000
  H   H752      1.0  0.05996  0.92608  0.54884  1.0000
  Fe  Fe63      1.0  0.41116  0.02696  0.52237  1.0000
  C   C430      1.0  0.19654  0.99800  0.60976  1.0000
  H   H753      1.0  0.12747  0.08033  0.55745  1.0000
  H   H754      1.0  0.32420  0.89112  0.60082  1.0000
  H   H755      1.0  0.11858  0.84490  0.54315  1.0000
  S   S123      1.0  0.28325  0.01344  0.42413  1.0000
  H   H756      1.0  0.21226  0.01997  0.60977  1.0000
  C   C431      1.0  0.74240  0.96259  0.51013  1.0000
  C   C432      1.0  0.94412  0.84631  0.50780  1.0000
  N   N31       1.0  0.92691  0.84084  0.55419  1.0000
  C   C433      1.0  0.84385  0.98344  0.57960  1.0000
  C   C434      1.0  0.08609  0.98799  0.49675  1.0000
  H   H757      1.0  0.91548  0.88499  0.57291  1.0000
  H   H758      1.0  0.84131  0.96072  0.58806  1.0000
  C   C435      1.0  0.85816  0.97272  0.43690  1.0000
  H   H759      1.0  0.05027  0.87553  0.56258  1.0000
  S   S124      1.0  0.85853  0.07487  0.61392  1.0000
  H   H760      1.0  0.67136  0.84519  0.50370  1.0000
  H   H761      1.0  0.44905  0.86665  0.51032  1.0000
  C   C436      1.0  0.15968  0.91113  0.65480  1.0000
  H   H762      1.0  0.88512  0.84621  0.48957  1.0000
  H   H763      1.0  0.45951  0.87710  0.43539  1.0000
  H   H764      1.0  0.61333  0.01744  0.64466  1.0000
  H   H765      1.0  0.31424  0.88162  0.42597  1.0000
  H   H766      1.0  0.42979  0.95589  0.65715  1.0000
  C   C437      1.0  0.41869  0.93346  0.65686  1.0000
  H   H767      1.0  0.09018  0.91023  0.65571  1.0000
  Fe  Fe64      1.0  0.46572  0.84971  0.65685  1.0000
  H   H768      1.0  0.06217  0.83747  0.46997  1.0000
  H   H769      1.0  0.40285  0.04147  0.65899  1.0000
  H   H770      1.0  0.73424  0.03304  0.81823  1.0000
  H   H771      1.0  0.30316  0.93789  0.69484  1.0000
  H   H772      1.0  0.75691  0.87022  0.73308  1.0000
  C   C438      1.0  0.89997  0.99694  0.70310  1.0000
  C   C439      1.0  0.81714  0.01032  0.69356  1.0000
  H   H773      1.0  0.72253  0.88656  0.78152  1.0000
  H   H774      1.0  0.45330  0.96547  0.86707  1.0000
  H   H775      1.0  0.62403  0.98317  0.73911  1.0000
  H   H776      1.0  0.41773  0.99115  0.80344  1.0000
  S   S125      1.0  0.57130  0.07265  0.77147  1.0000
  H   H777      1.0  0.94862  0.92771  0.68020  1.0000
  H   H778      1.0  0.83602  0.92990  0.69265  1.0000
  H   H779      1.0  0.92096  0.07660  0.81788  1.0000
  C   C440      1.0  0.48048  0.98366  0.78796  1.0000
  C   C441      1.0  0.27728  0.84584  0.87698  1.0000
  H   H780      1.0  0.58541  0.01712  0.81557  1.0000
  S   S126      1.0  0.32648  0.85062  0.67044  1.0000
  H   H781      1.0  0.83735  0.01154  0.81833  1.0000
  H   H782      1.0  0.03712  0.86068  0.80404  1.0000
  C   C442      1.0  0.46623  0.96024  0.75729  1.0000
  C   C443      1.0  0.80326  0.03367  0.82171  1.0000
  H   H783      1.0  0.72433  0.96168  0.75121  1.0000
  C   C444      1.0  0.47924  0.06348  0.75023  1.0000
  H   H784      1.0  0.18336  0.90658  0.68768  1.0000
  C   C445      1.0  0.56831  0.00182  0.84052  1.0000
  H   H785      1.0  0.86053  0.88717  0.79722  1.0000
  H   H786      1.0  0.72511  0.90846  0.73503  1.0000
  C   C446      1.0  0.37440  0.87934  0.86024  1.0000
  C   C447      1.0  0.85079  0.89401  0.76341  1.0000
  H   H787      1.0  0.99722  0.91315  0.74317  1.0000
  H   H788      1.0  0.64097  0.85514  0.82713  1.0000
  C   C448      1.0  0.03380  0.88331  0.79355  1.0000
  N   N32       1.0  0.92252  0.87915  0.73641  1.0000
  C   C449      1.0  0.66928  0.97598  0.76510  1.0000
  Fe  Fe65      1.0  0.17790  0.01589  0.75115  1.0000
  H   H789      1.0  0.69490  0.99456  0.77697  1.0000
  H   H790      1.0  0.99288  0.89711  0.81597  1.0000
  C   C450      1.0  0.75965  0.88925  0.75188  1.0000
  H   H791      1.0  0.63315  0.93039  0.88092  1.0000
  S   S127      1.0  0.16536  0.96986  0.74802  1.0000
  H   H792      1.0  0.65821  0.06698  0.85341  1.0000
  C   C451      1.0  0.82444  0.04439  0.86536  1.0000
  H   H793      1.0  0.62549  0.99717  0.86109  1.0000
  H   H794      1.0  0.39741  0.96337  0.74887  1.0000
  H   H795      1.0  0.82561  0.04647  0.79496  1.0000
  H   H796      1.0  0.48219  0.93819  0.77049  1.0000
  S   S128      1.0  0.87734  0.87931  0.88494  1.0000
  C   C452      1.0  0.47785  0.05578  0.70793  1.0000
  H   H797      1.0  0.80845  0.02843  0.88959  1.0000
  H   H798      1.0  0.89504  0.04268  0.86652  1.0000
  C   C453      1.0  0.80438  0.03354  0.66457  1.0000
  C   C454      1.0  0.92980  0.84734  0.74468  1.0000
  H   H799      1.0  0.39768  0.84558  0.77444  1.0000
  H   H800      1.0  0.51552  0.03841  0.87744  1.0000
  H   H801      1.0  0.43641  0.02501  0.84776  1.0000
  C   C455      1.0  0.33151  0.05727  0.75890  1.0000
  H   H802      1.0  0.84945  0.87650  0.67957  1.0000
  C   C456      1.0  0.84281  0.91234  0.90698  1.0000
  C   C457      1.0  0.61970  0.84367  0.85564  1.0000
  H   H803      1.0  0.49545  0.00208  0.76800  1.0000
  H   H804      1.0  0.05734  0.88105  0.72591  1.0000
  N   N33       1.0  0.78101  0.07393  0.87612  1.0000
  H   H805      1.0  0.59700  0.96336  0.90739  1.0000
  S   S129      1.0  0.23953  0.03743  0.69769  1.0000
  S   S130      1.0  0.55535  0.86542  0.70094  1.0000
  H   H806      1.0  0.50124  0.96265  0.72693  1.0000
  H   H807      1.0  0.71890  0.86041  0.88814  1.0000
  C   C458      1.0  0.30509  0.90054  0.85039  1.0000
  C   C459      1.0  0.36042  0.85191  0.87311  1.0000
  H   H808      1.0  0.76303  0.00409  0.71031  1.0000
  H   H809      1.0  0.45524  0.92205  0.68369  1.0000
  C   C460      1.0  0.40354  0.04809  0.69142  1.0000
  C   C461      1.0  0.33085  0.04841  0.71719  1.0000
  C   C462      1.0  0.62973  0.95967  0.80134  1.0000
  S   S131      1.0  0.04432  0.02959  0.77398  1.0000
  H   H810      1.0  0.03400  0.99579  0.68907  1.0000
  H   H811      1.0  0.27400  0.05917  0.77794  1.0000
  H   H812      1.0  0.54921  0.84592  0.85601  1.0000
  H   H813      1.0  0.85142  0.91742  0.76247  1.0000
  C   C463      1.0  0.22201  0.89432  0.85304  1.0000
  C   C464      1.0  0.79055  0.96285  0.89766  1.0000
  Fe  Fe66      1.0  0.03444  0.98310  0.77539  1.0000
  S   S132      1.0  0.32410  0.93443  0.83372  1.0000
  H   H814      1.0  0.14421  0.86172  0.86630  1.0000
  C   C465      1.0  0.89127  0.91754  0.67603  1.0000
  H   H815      1.0  0.53450  0.05510  0.68820  1.0000
  H   H816      1.0  0.62003  0.93868  0.78949  1.0000
  H   H817      1.0  0.96029  0.87543  0.67036  1.0000
  H   H818      1.0  0.92602  0.84202  0.77930  1.0000
  S   S133      1.0  0.07623  0.97533  0.84303  1.0000
  C   C466      1.0  0.49506  0.01858  0.86661  1.0000
  H   H819      1.0  0.40672  0.07108  0.80801  1.0000
  S   S134      1.0  0.91759  0.97197  0.74562  1.0000
  Fe  Fe67      1.0  0.20905  0.96578  0.81516  1.0000
  H   H820      1.0  0.09918  0.88853  0.79548  1.0000
  C   C467      1.0  0.51607  0.95556  0.85369  1.0000
  C   C468      1.0  0.57622  0.94546  0.89107  1.0000
  N   N34       1.0  0.54877  0.97515  0.82086  1.0000
  Fe  Fe68      1.0  0.09678  0.02100  0.83923  1.0000
  H   H821      1.0  0.77544  0.98151  0.87704  1.0000
  C   C469      1.0  0.82419  0.93664  0.88044  1.0000
  H   H822      1.0  0.61540  0.87721  0.89928  1.0000
  H   H823      1.0  0.32196  0.90749  0.66414  1.0000
  S   S135      1.0  0.05806  0.05328  0.88866  1.0000
  S   S136      1.0  0.23183  0.01084  0.81628  1.0000
  H   H824      1.0  0.83563  0.93520  0.84661  1.0000
  H   H825      1.0  0.50301  0.93579  0.83912  1.0000
  C   C470      1.0  0.40609  0.06436  0.77567  1.0000
  C   C471      1.0  0.20824  0.86680  0.86568  1.0000
  H   H826      1.0  0.68052  0.95462  0.82552  1.0000
  H   H827      1.0  0.43853  0.88434  0.85816  1.0000
  H   H828      1.0  0.16857  0.91080  0.84559  1.0000
  C   C472      1.0  0.00395  0.88962  0.74757  1.0000
  C   C473      1.0  0.90577  0.88566  0.68992  1.0000
  C   C474      1.0  0.96978  0.00576  0.68157  1.0000
  H   H829      1.0  0.26518  0.98341  0.66635  1.0000
  H   H830      1.0  0.87472  0.83898  0.73107  1.0000
  H   H831      1.0  0.47940  0.00634  0.89527  1.0000
  C   C475      1.0  0.65380  0.85567  0.89570  1.0000
  H   H832      1.0  0.14328  0.95572  0.66335  1.0000
  C   C476      1.0  0.68705  0.07310  0.88288  1.0000
  H   H833      1.0  0.21664  0.01517  0.90331  1.0000
  H   H834      1.0  0.67598  0.05588  0.90628  1.0000
  H   H835      1.0  0.69493  0.97094  0.66907  1.0000
  C   C477      1.0  0.32378  0.93053  0.66261  1.0000
  H   H836      1.0  0.21172  0.90496  0.10194  1.0000
  C   C478      1.0  0.66257  0.87903  0.98663  1.0000
  H   H837      1.0  0.25208  0.84300  0.13395  1.0000
  H   H838      1.0  0.25928  0.93924  0.97822  1.0000
  H   H839      1.0  0.44186  0.07734  0.08570  1.0000
  S   S137      1.0  0.10721  0.86818  0.06597  1.0000
  C   C479      1.0  0.31874  0.90611  0.05892  1.0000
  C   C480      1.0  0.20808  0.87662  0.05112  1.0000
  H   H840      1.0  0.88585  0.87144  0.08754  1.0000
  H   H841      1.0  0.82020  0.04383  0.95560  1.0000
  S   S138      1.0  0.56563  0.01724  0.05701  1.0000
  H   H842      1.0  0.35313  0.08537  0.91807  1.0000
  C   C481      1.0  0.13850  0.05303  0.92584  1.0000
  H   H843      1.0  0.48605  0.03882  0.13747  1.0000
  H   H844      1.0  0.73557  0.88286  0.15171  1.0000
  C   C482      1.0  0.24376  0.89648  0.07373  1.0000
  S   S139      1.0  0.92905  0.83765  0.99827  1.0000
  H   H845      1.0  0.33051  0.01566  0.95550  1.0000
  C   C483      1.0  0.21070  0.03192  0.92579  1.0000
  H   H846      1.0  0.35487  0.86647  0.97090  1.0000
  Fe  Fe69      1.0  0.95730  0.85060  0.93120  1.0000
  C   C484      1.0  0.80099  0.06720  0.95726  1.0000
  C   C485      1.0  0.35821  0.89564  0.02138  1.0000
  H   H847      1.0  0.23922  0.97459  0.95406  1.0000
  H   H848      1.0  0.98701  0.95505  0.09873  1.0000
  C   C486      1.0  0.08158  0.93766  0.98354  1.0000
  C   C487      1.0  0.83050  0.91436  0.95080  1.0000
  H   H849      1.0  0.95561  0.97466  0.02722  1.0000
  H   H850      1.0  0.18933  0.95590  0.04414  1.0000
  H   H851      1.0  0.17083  0.91244  0.94044  1.0000
  Fe  Fe70      1.0  0.89745  0.07436  0.15665  1.0000
  S   S140      1.0  0.12705  0.98669  0.14479  1.0000
  C   C488      1.0  0.13064  0.07439  0.95551  1.0000
  Fe  Fe71      1.0  0.61963  0.98661  0.00785  1.0000
  H   H852      1.0  0.78195  0.94173  0.00161  1.0000
  H   H853      1.0  0.96281  0.00614  0.91944  1.0000
  H   H854      1.0  0.17307  0.99189  0.02601  1.0000
  Fe  Fe72      1.0  0.43775  0.01340  0.03128  1.0000
  H   H855      1.0  0.05315  0.01179  0.98222  1.0000
  H   H856      1.0  0.00986  0.92831  0.06002  1.0000
  S   S141      1.0  0.77348  0.08437  0.12162  1.0000
  H   H857      1.0  0.54475  0.92415  0.13686  1.0000
  H   H858      1.0  0.96563  0.96927  0.93246  1.0000
  Fe  Fe73      1.0  0.06219  0.84450  0.01298  1.0000
  C   C489      1.0  0.81776  0.87751  0.09694  1.0000
  H   H859      1.0  0.09494  0.94228  0.08543  1.0000
  C   C490      1.0  0.03031  0.94780  0.07197  1.0000
  S   S142      1.0  0.01463  0.06472  0.11568  1.0000
  H   H860      1.0  0.84649  0.89571  0.97141  1.0000
  H   H861      1.0  0.64415  0.89540  0.96116  1.0000
  C   C491      1.0  0.24729  0.96229  0.98441  1.0000
  H   H862      1.0  0.87947  0.96548  0.15191  1.0000
  Fe  Fe74      1.0  0.54961  0.97870  0.09737  1.0000
  H   H863      1.0  0.61222  0.06055  0.12009  1.0000
  H   H864      1.0  0.06912  0.92546  0.91768  1.0000
  H   H865      1.0  0.78367  0.86045  0.08592  1.0000
  C   C492      1.0  0.17197  0.96974  0.01561  1.0000
  C   C493      1.0  0.55899  0.83933  0.94976  1.0000
  H   H866      1.0  0.22617  0.84871  0.99825  1.0000
  H   H867      1.0  0.52615  0.86178  0.95140  1.0000
  C   C494      1.0  0.25050  0.86502  0.01502  1.0000
  C   C495      1.0  0.02323  0.97187  0.03739  1.0000
  H   H868      1.0  0.94796  0.90440  0.11970  1.0000
  C   C496      1.0  0.19509  0.07461  0.98529  1.0000
  N   N35       1.0  0.08414  0.96693  0.99999  1.0000
  H   H869      1.0  0.34463  0.92207  0.07596  1.0000
  H   H870      1.0  0.83787  0.07435  0.98337  1.0000
  H   H871      1.0  0.54130  0.93375  0.91493  1.0000
  C   C497      1.0  0.05676  0.99060  0.96758  1.0000
  H   H872      1.0  0.14717  0.94847  0.92242  1.0000
  C   C498      1.0  0.31091  0.06091  0.12797  1.0000
  C   C499      1.0  0.97016  0.99012  0.94608  1.0000
  S   S143      1.0  0.49233  0.98510  0.97960  1.0000
  H   H873      1.0  0.30634  0.96719  0.99897  1.0000
  C   C500      1.0  0.77300  0.96449  0.94117  1.0000
  Fe  Fe75      1.0  0.48307  0.94870  0.02551  1.0000
  N   N36       1.0  0.65116  0.83806  0.93630  1.0000
  C   C501      1.0  0.32478  0.87470  0.99996  1.0000
  H   H874      1.0  0.60682  0.87699  0.00745  1.0000
  H   H875      1.0  0.35323  0.04146  0.11777  1.0000
  H   H876      1.0  0.29160  0.07534  0.10030  1.0000
  S   S144      1.0  0.72128  0.99640  0.96165  1.0000
  H   H877      1.0  0.03059  0.99200  0.05314  1.0000
  S   S145      1.0  0.34756  0.05429  0.02204  1.0000
  H   H878      1.0  0.70996  0.88693  0.00678  1.0000
  C   C502      1.0  0.70230  0.84998  0.96924  1.0000
  C   C503      1.0  0.79393  0.94035  0.96785  1.0000
  H   H879      1.0  0.76606  0.85279  0.95604  1.0000
  S   S146      1.0  0.44557  0.90946  0.99864  1.0000
  C   C504      1.0  0.11907  0.93121  0.93859  1.0000
  S   S147      1.0  0.41684  0.97705  0.07539  1.0000
  S   S148      1.0  0.61550  0.94791  0.05041  1.0000
  C   C505      1.0  0.80583  0.87950  0.14550  1.0000
  C   C506      1.0  0.26689  0.05327  0.98551  1.0000
  H   H880      1.0  0.97663  0.85340  0.14791  1.0000
  H   H881      1.0  0.25147  0.05397  0.14016  1.0000
  H   H882      1.0  0.91530  0.99630  0.96784  1.0000
  C   C507      1.0  0.50045  0.05479  0.15999  1.0000
  S   S149      1.0  0.08257  0.86200  0.94806  1.0000
  H   H883      1.0  0.11580  0.92114  0.00567  1.0000
  C   C508      1.0  0.27482  0.03198  0.95572  1.0000
  H   H884      1.0  0.81055  0.93430  0.11659  1.0000
  C   C509      1.0  0.93961  0.89991  0.15418  1.0000
  H   H885      1.0  0.10456  0.99111  0.94181  1.0000
  H   H886      1.0  0.01440  0.93335  0.98342  1.0000
  H   H887      1.0  0.78970  0.89748  0.07979  1.0000
  H   H888      1.0  0.06280  0.87260  0.15670  1.0000
  H   H889      1.0  0.73236  0.07222  0.96624  1.0000
  N   N37       1.0  0.44017  0.08252  0.15376  1.0000
  H   H890      1.0  0.24169  0.93470  0.15281  1.0000
  C   C510      1.0  0.59627  0.05645  0.15387  1.0000
  C   C511      1.0  0.82142  0.08274  0.91552  1.0000
  C   C512      1.0  0.80123  0.93105  0.15132  1.0000
  H   H891      1.0  0.73051  0.93276  0.15498  1.0000
  H   H892      1.0  0.82983  0.85794  0.15962  1.0000
  H   H893      1.0  0.89222  0.07916  0.91223  1.0000
  H   H894      1.0  0.62324  0.84444  0.33878  1.0000
  H   H895      1.0  0.01325  0.93099  0.26129  1.0000
  H   H896      1.0  0.84706  0.00039  0.27262  1.0000
  H   H897      1.0  0.36777  0.97701  0.34134  1.0000
  H   H898      1.0  0.51244  0.07776  0.23875  1.0000
  C   C513      1.0  0.53803  0.96649  0.38383  1.0000
  H   H899      1.0  0.88429  0.90897  0.23063  1.0000
  C   C514      1.0  0.19111  0.07602  0.39001  1.0000
  C   C515      1.0  0.09871  0.07407  0.33004  1.0000
  C   C516      1.0  0.06285  0.93172  0.23751  1.0000
  C   C517      1.0  0.33325  0.99137  0.21209  1.0000
  H   H900      1.0  0.81413  0.03643  0.35243  1.0000
  C   C518      1.0  0.59224  0.91719  0.40233  1.0000
  N   N38       1.0  0.72855  0.04862  0.29986  1.0000
  H   H901      1.0  0.44919  0.01510  0.32441  1.0000
  S   S150      1.0  0.12448  0.05647  0.20213  1.0000
  H   H902      1.0  0.71876  0.90128  0.37891  1.0000
  C   C519      1.0  0.86426  0.00983  0.30218  1.0000
  C   C520      1.0  0.12630  0.95723  0.18007  1.0000
  C   C521      1.0  0.52945  0.89841  0.19340  1.0000
  H   H903      1.0  0.87199  0.98032  0.40420  1.0000
  S   S151      1.0  0.93532  0.03669  0.20129  1.0000
  H   H904      1.0  0.85773  0.87494  0.22311  1.0000
  C   C522      1.0  0.28383  0.93146  0.31953  1.0000
  H   H905      1.0  0.41833  0.97148  0.29178  1.0000
  H   H906      1.0  0.39579  0.02456  0.27559  1.0000
  H   H907      1.0  0.20409  0.99660  0.23334  1.0000
  S   S152      1.0  0.77863  0.95025  0.33866  1.0000
  S   S153      1.0  0.00219  0.06675  0.30948  1.0000
  Fe  Fe76      1.0  0.88005  0.91370  0.35561  1.0000
  H   H908      1.0  0.24036  0.89092  0.19740  1.0000
  C   C523      1.0  0.55361  0.94760  0.19347  1.0000
  H   H909      1.0  0.15199  0.08472  0.26990  1.0000
  C   C524      1.0  0.78646  0.02639  0.32567  1.0000
  S   S154      1.0  0.90138  0.87567  0.31501  1.0000
  Fe  Fe77      1.0  0.03948  0.87973  0.31924  1.0000
  C   C525      1.0  0.83892  0.89785  0.21362  1.0000
  H   H910      1.0  0.53261  0.92138  0.29428  1.0000
  H   H911      1.0  0.70445  0.99236  0.27954  1.0000
  H   H912      1.0  0.96886  0.91653  0.16986  1.0000
  C   C526      1.0  0.06270  0.95643  0.21136  1.0000
  C   C527      1.0  0.67995  0.94556  0.36083  1.0000
  H   H913      1.0  0.59476  0.07808  0.38224  1.0000
  H   H914      1.0  0.49158  0.04478  0.19182  1.0000
  H   H915      1.0  0.61634  0.03910  0.33422  1.0000
  H   H916      1.0  0.55982  0.96511  0.25516  1.0000
  H   H917      1.0  0.91392  0.02320  0.29505  1.0000
  H   H918      1.0  0.28275  0.90952  0.30872  1.0000
  H   H919      1.0  0.70122  0.05940  0.38898  1.0000
  C   C528      1.0  0.21029  0.99420  0.31968  1.0000
  C   C529      1.0  0.31557  0.86896  0.39702  1.0000
  H   H920      1.0  0.20941  0.01740  0.32381  1.0000
  C   C530      1.0  0.99546  0.87112  0.16559  1.0000
  C   C531      1.0  0.11253  0.07163  0.37375  1.0000
  C   C532      1.0  0.65836  0.07299  0.36643  1.0000
  C   C533      1.0  0.25684  0.08227  0.36267  1.0000
  H   H921      1.0  0.65702  0.05328  0.24173  1.0000
  S   S155      1.0  0.12855  0.87638  0.26334  1.0000
  H   H922      1.0  0.48807  0.98472  0.38548  1.0000
  C   C534      1.0  0.36494  0.98523  0.30781  1.0000
  H   H923      1.0  0.31729  0.97352  0.19354  1.0000
  C   C535      1.0  0.52555  0.89772  0.23780  1.0000
  C   C536      1.0  0.83004  0.95706  0.17179  1.0000
  H   H924      1.0  0.22272  0.98420  0.35185  1.0000
  C   C537      1.0  0.19071  0.93372  0.17583  1.0000
  H   H925      1.0  0.33888  0.03021  0.32565  1.0000
  H   H926      1.0  0.06300  0.06607  0.39500  1.0000
  N   N39       1.0  0.27989  0.98267  0.28873  1.0000
  H   H927      1.0  0.48247  0.86657  0.36305  1.0000
  C   C538      1.0  0.16302  0.08159  0.30312  1.0000
  C   C539      1.0  0.74920  0.90701  0.23281  1.0000
  H   H928      1.0  0.24785  0.86836  0.38898  1.0000
  H   H929      1.0  0.77402  0.97421  0.17508  1.0000
  H   H930      1.0  0.85581  0.95255  0.20410  1.0000
  H   H931      1.0  0.01292  0.97459  0.21500  1.0000
  S   S156      1.0  0.01756  0.91941  0.35643  1.0000
  H   H932      1.0  0.89275  0.99123  0.32233  1.0000
  H   H933      1.0  0.83418  0.06628  0.27104  1.0000
  H   H934      1.0  0.59927  0.07198  0.30560  1.0000
  S   S157      1.0  0.51251  0.86657  0.26652  1.0000
  C   C540      1.0  0.77566  0.07327  0.29024  1.0000
  H   H935      1.0  0.22851  0.93665  0.34143  1.0000
  C   C541      1.0  0.11822  0.99085  0.30808  1.0000
  H   H936      1.0  0.65843  0.00234  0.22953  1.0000
  S   S158      1.0  0.36092  0.08069  0.38198  1.0000
  H   H937      1.0  0.62239  0.98895  0.34699  1.0000
  H   H938      1.0  0.07424  0.99970  0.33386  1.0000
  H   H939      1.0  0.62645  0.85072  0.39360  1.0000
  H   H940      1.0  0.72954  0.93046  0.23051  1.0000
  C   C542      1.0  0.66855  0.91950  0.38029  1.0000
  H   H941      1.0  0.21975  0.94943  0.26280  1.0000
  S   S159      1.0  0.57504  0.97866  0.16680  1.0000
  H   H942      1.0  0.25838  0.02285  0.25213  1.0000
  H   H943      1.0  0.70123  0.89618  0.21781  1.0000
  H   H944      1.0  0.76035  0.03377  0.23633  1.0000
  C   C543      1.0  0.50088  0.84339  0.37075  1.0000
  C   C544      1.0  0.27821  0.95181  0.28023  1.0000
  C   C545      1.0  0.38745  0.01564  0.30806  1.0000
  C   C546      1.0  0.64762  0.05779  0.32502  1.0000
  H   H945      1.0  0.11042  0.96824  0.30543  1.0000
  C   C547      1.0  0.52761  0.94085  0.40461  1.0000
  H   H946      1.0  0.74905  0.90092  0.26710  1.0000
  C   C548      1.0  0.61396  0.96884  0.36184  1.0000
  H   H947      1.0  0.79973  0.08125  0.31971  1.0000
  H   H948      1.0  0.34450  0.93101  0.33682  1.0000
  H   H949      1.0  0.75085  0.01072  0.34198  1.0000
  C   C549      1.0  0.53448  0.92202  0.25992  1.0000
  H   H950      1.0  0.09636  0.00317  0.27871  1.0000
  H   H951      1.0  0.59920  0.01383  0.27600  1.0000
  C   C550      1.0  0.26589  0.99949  0.24741  1.0000
  C   C551      1.0  0.66445  0.00992  0.26190  1.0000
  C   C552      1.0  0.70463  0.03731  0.25852  1.0000
  C   C553      1.0  0.19032  0.90903  0.20133  1.0000
  C   C554      1.0  0.54999  0.94675  0.23780  1.0000
  H   H952      1.0  0.33216  0.94324  0.25877  1.0000
  H   H953      1.0  0.39878  0.98539  0.22425  1.0000
  H   H954      1.0  0.99489  0.86596  0.20012  1.0000
  C   C555      1.0  0.12646  0.90788  0.23216  1.0000
  Fe  Fe78      1.0  0.00146  0.06641  0.23815  1.0000
  H   H955      1.0  0.33556  0.01007  0.19028  1.0000
  H   H956      1.0  0.34766  0.06380  0.19250  1.0000
  S   S160      1.0  0.06002  0.85026  0.37652  1.0000
  C   C556      1.0  0.35050  0.07671  0.16254  1.0000
  C   C557      1.0  0.54234  0.92355  0.17115  1.0000
  H   H957      1.0  0.34358  0.88024  0.37035  1.0000
  H   H958      1.0  0.63448  0.03554  0.16303  1.0000
  C   C558      1.0  0.24196  0.08562  0.31926  1.0000
  H   H959      1.0  0.61789  0.07270  0.17349  1.0000
  H   H960      1.0  0.52201  0.87965  0.17627  1.0000
  N   N40       1.0  0.84645  0.90214  0.16616  1.0000
  Fe  Fe79      1.0  0.91835  0.85031  0.37621  1.0000
  C   C559      1.0  0.59968  0.83782  0.37037  1.0000
  Fe  Fe80      1.0  0.05635  0.02922  0.16308  1.0000
  C   C560      1.0  0.36287  0.83816  0.40393  1.0000
