data_image0
_chemical_formula_structural       C2H6C2HC2H2CHSH7CH2CH3SCH3CH3SHC3HSH3SHC3HFeHCHCNC2H5FeSH2FeHCH3CHCH2SH2CSCH4FeHSCHCHC2FeH3CH3CHNC3HFeHC2HCHC2SCHCHCHCH3CH2C2H3CSCFeH6Fe2CHCHSH3NH2C2H4SNCH2CH2S2CHC2H9C2HCHFeH6CFeCHC4SH5FeCH5CHSCHCHCS2HSHFeHCH4CNHC2S3C3H3SH2FeH5NH4C3HCHFeH4C3H3C3SH2C4H3CSHCSHCH3CH4CSCH2CHCH3SCH2Fe2H2CNSHFeH2SH5SCHCHCH3SCSH2CH3CH2CHC2HCHFeCNC2HSH2SFeCHSC2H6C2H3SHSH2CH2C2H2SH2C3FeHCFeH4CH3CFeHC2HSH4FeCH2C3HS2HSHCFeHC3HCH2CFeC2SNCNHCH3CH3CHC2H7N2C3H3C2H4CH2S2H3CH2CH4CH4SHSH2NHCHCH8CSC2H2CHC4HCH2S2H2CSH2NCHC4H3CH2CHCSCH3C3H3C4SH3SFeCH2NCHNC2H2FeCSH2CSCH2CH3SHCH2CH2CFeH2SFeHCH4CH2FeC2H2CHSCFeC4H2C2H2C2H4CHCH8CHCHCHCH5S2CHCH3FeHC2HCH2CHSCH2CH3SH2CH2SCFeCHCH2C2NH2SHCHFeH2SCSHSHSH2CHCHC3HFeHCH4CSH3SH2CFeH3CH2SCHC2H3CH4CH2CH2FeHCHNHSCHCH3C3H4C2HC3H3CHCH2SHC2FeH2SCH2SHSH2SHCHCH3SHSCSH3CH3C2HCSHFeCFeHCH2CHCH3CSHFeSH4C3H4C3H2CHCSHFeC3H2C3FeSCSH3CFeC2SCH2CH4SC2NCHCSH2CH2CNH2C3H2C3H2C3HSCH5CH2CHCHSHNH2NC2FeH2CSH2FeCHCH6CH2CFeH8CH2CHSHSNH4CH2CH5SC2HC3FeHS2H2CHC4H3C4HNHSHSC3HSHCSCH6C2H3C2H3SCFeCHCHC2HSHCH4FeH2CH3FeSCHC2FeH3CH4CHCH2SCHC2H7SCH2NHCSCH3CH2C4FeH4S2H2C2SH2CHCSH2CSCHC2Fe2H2CSHC2SC4HCSH2C2SFeH2CHSH5C2HCHSCHNCH4NFeCHCHC2SCS2H2CFeHCSHFeH3SCSCHC2HFeHSH3FeSH4CHNHC2H2CHCHC2H4C2H4CHCHCFeSH5CHFeH7CHFeHCHCH3C2HCHSH4CSCH2NCSCH2C2H2CH4CH4C3HNSC2SCH2CH2SHCHNHSH5C2H5CHNC3H3CHCSH5C3HCHFeHCHCHCH3CH2CHC2H4CH2CH2CH5C2HCH2C2H2SNH2CH2CH3CH4CHCHCH3SFeCHFeHSCHCHSH3SHCHCSHCSCHSFeH5FeH7CFeHSH2C2HS2HSH4CH3C3HS2H2C2HCHCH5CSCHC4HCFeSCFeH2C3H2SCHFeH2CFeC2FeHSFeC2H2CH3CH5CH5CFeH5CFeHCH2CH6CHSH2SHCHC2SH8CH2NCH2CHCHCH3CS2CHNH2NHCHC2H2C2H6CHCHCH3CH3CN2C2HCHCH4SC4HCHSHCHCHCH2CNHNH3CHC2SH2CHC2HCH2CHCH2CH2NHC2H2CH2C2HFeC3HC2HSHCSH2C2HFeHNH3CH2CFeHSHSHC2H2SH4SHCHSHFeHS3H2CHFeH2SC2H4C2HCHC3HCFeHCSNCH3CHCHCFeH2SCHC2FeCH2NH3C3HCH3C2HSHS2CFeH3CHCFeCH2CH2SC2FeH3CFeHCHFeHCHCHCHCHCHC3S2HCHCSCH2SH3CH6CHCH7CH4SHFeHCHC2HC3HCSHC2HSCHSHSCH2CHFeC2H2SH2CH3C3H6C2H2CH2CHNH2C2HFeHCHCH3CHC4H3S2H2CH2C2HCHSHSH2FeHCH3CH5NCHCH2CNSCSCFeCSCH3CH2CSCH3CH5CH2CHNH2CH2CH3SCHCHCHCHS2H5C2H2NH4FeNSHSHCFeHCHCH3SH2CHC2HC2H3FeNSFeHNCHCSFeHCHFeCHC3FeHCH3CSC2HSCH2CHCHC5H3CFeHCSHC2HCH2FeC3H3SCH6CSCH7CH5CH2CSH4CHCFeH6FeC3S3CHC2HCH3CH3C2FeH5CHCH2C3H3CHFeSHC2H7CSHSNHCH2SH4C2H3C3H4CHCHCH2SH2CHC2HCHCHCHCH8SHC3HSC3FeHFeC4H4SHC3H2CHNHNH4CSHCHCH7NHCH2CHCH3C2HSHCHC2H4SCHCHCH5S2H3CH3CH4CHSCHSNFeH2CHCHFeCHCH2FeH2CNSH3CHCFeHSC4FeH2C2NCH2CH2CH9C3H2SH2CH3SHCHC3HCHC3H5SCSCH2CHFeHC2FeC3SCHCNSCFeSH4CH4C2H3
_chemical_formula_sum              "C840 H1440 S240 Fe120 N60"
_cell_length_a       43.1234
_cell_length_b       43.9268
_cell_length_c       28.0811
_cell_angle_alpha    58.6032
_cell_angle_beta     86.1584
_cell_angle_gamma    120.976

_space_group_name_H-M_alt    "P 1"
_space_group_IT_number       1

loop_
  _space_group_symop_operation_xyz
  'x, y, z'

loop_
  _atom_site_type_symbol
  _atom_site_label
  _atom_site_symmetry_multiplicity
  _atom_site_fract_x
  _atom_site_fract_y
  _atom_site_fract_z
  _atom_site_occupancy
  C   C1        1.0  0.91307  0.81110  0.93381  1.0000
  C   C2        1.0  0.90512  0.92754  0.88253  1.0000
  H   H1        1.0  0.90256  0.08117  0.83653  1.0000
  H   H2        1.0  0.89518  0.08947  0.99435  1.0000
  H   H3        1.0  0.89516  0.72469  0.98882  1.0000
  H   H4        1.0  0.88583  0.72535  0.90858  1.0000
  H   H5        1.0  0.88105  0.84660  0.00441  1.0000
  H   H6        1.0  0.90665  0.95787  0.85167  1.0000
  C   C3        1.0  0.88357  0.05285  0.88636  1.0000
  C   C4        1.0  0.88485  0.01654  0.91707  1.0000
  H   H7        1.0  0.91576  0.82982  0.88576  1.0000
  C   C5        1.0  0.91284  0.76062  0.88942  1.0000
  C   C6        1.0  0.86747  0.76950  0.98049  1.0000
  H   H8        1.0  0.93897  0.77409  0.85193  1.0000
  H   H9        1.0  0.99972  0.68013  0.82298  1.0000
  C   C7        1.0  0.24274  0.04916  0.04464  1.0000
  H   H10       1.0  0.86869  0.85624  0.92001  1.0000
  S   S1        1.0  0.91826  0.01816  0.87531  1.0000
  H   H11       1.0  0.91092  0.92594  0.92117  1.0000
  H   H12       1.0  0.92886  0.06902  0.95755  1.0000
  H   H13       1.0  0.91560  0.75676  0.03917  1.0000
  H   H14       1.0  0.92270  0.83634  0.94165  1.0000
  H   H15       1.0  0.93067  0.93444  0.85391  1.0000
  H   H16       1.0  0.90461  0.78296  0.86782  1.0000
  H   H17       1.0  0.20135  0.68980  0.89104  1.0000
  C   C8        1.0  0.32109  0.00787  0.04188  1.0000
  H   H18       1.0  0.29258  0.00148  0.05727  1.0000
  H   H19       1.0  0.28997  0.00074  0.82758  1.0000
  C   C9        1.0  0.92525  0.10182  0.99359  1.0000
  H   H20       1.0  0.03369  0.91321  0.82432  1.0000
  H   H21       1.0  0.04880  0.69872  0.86091  1.0000
  H   H22       1.0  0.00513  0.15989  0.96960  1.0000
  S   S2        1.0  0.92418  0.93034  0.02296  1.0000
  C   C10       1.0  0.92268  0.75716  0.94317  1.0000
  H   H23       1.0  0.20635  0.13153  0.85576  1.0000
  H   H24       1.0  0.25406  0.70084  0.84649  1.0000
  H   H25       1.0  0.18875  0.84571  0.85848  1.0000
  C   C11       1.0  0.17759  0.10685  0.85851  1.0000
  H   H26       1.0  0.00029  0.83066  0.87816  1.0000
  H   H27       1.0  0.27491  0.03621  0.89192  1.0000
  H   H28       1.0  0.94171  0.13817  0.97491  1.0000
  S   S3        1.0  0.96890  0.69220  0.98922  1.0000
  H   H29       1.0  0.27365  0.76058  0.85086  1.0000
  C   C12       1.0  0.31912  0.02338  0.82633  1.0000
  C   C13       1.0  0.17951  0.07301  0.85791  1.0000
  C   C14       1.0  0.19833  0.71676  0.86509  1.0000
  H   H30       1.0  0.11994  0.97026  0.88655  1.0000
  S   S4        1.0  0.04971  0.70101  0.97702  1.0000
  H   H31       1.0  0.18731  0.05731  0.89567  1.0000
  H   H32       1.0  0.23092  0.76775  0.93971  1.0000
  H   H33       1.0  0.11173  0.72726  0.85890  1.0000
  S   S5        1.0  0.09870  0.11500  0.84795  1.0000
  H   H34       1.0  0.94972  0.12782  0.89880  1.0000
  C   C15       1.0  0.14902  0.00435  0.86726  1.0000
  C   C16       1.0  0.15316  0.07760  0.03326  1.0000
  C   C17       1.0  0.94686  0.10364  0.94494  1.0000
  H   H35       1.0  0.17529  0.12855  0.81718  1.0000
  Fe  Fe1       1.0  0.94945  0.99850  0.93051  1.0000
  H   H36       1.0  0.26440  0.83063  0.88918  1.0000
  C   C18       1.0  0.11476  0.74412  0.81065  1.0000
  H   H37       1.0  0.07751  0.97967  0.92477  1.0000
  C   C19       1.0  0.94532  0.78825  0.99638  1.0000
  N   N1        1.0  0.94048  0.79913  0.93821  1.0000
  C   C20       1.0  0.24407  0.79773  0.93833  1.0000
  C   C21       1.0  0.16585  0.91559  0.90270  1.0000
  H   H38       1.0  0.06824  0.10417  0.03753  1.0000
  H   H39       1.0  0.98645  0.15274  0.03715  1.0000
  H   H40       1.0  0.17048  0.75151  0.92940  1.0000
  H   H41       1.0  0.95493  0.81668  0.99730  1.0000
  H   H42       1.0  0.00627  0.80846  0.96698  1.0000
  Fe  Fe2       1.0  0.03284  0.74370  0.96670  1.0000
  S   S6        1.0  0.20249  0.95248  0.91230  1.0000
  H   H43       1.0  0.25636  0.10389  0.89421  1.0000
  H   H44       1.0  0.09718  0.02937  0.91684  1.0000
  Fe  Fe3       1.0  0.96186  0.97431  0.04611  1.0000
  H   H45       1.0  0.06375  0.12299  0.92898  1.0000
  C   C22       1.0  0.09636  0.15067  0.90365  1.0000
  H   H46       1.0  0.17795  0.78553  0.85063  1.0000
  H   H47       1.0  0.97219  0.07544  0.03825  1.0000
  H   H48       1.0  0.94401  0.75006  0.94399  1.0000
  C   C23       1.0  0.12612  0.87751  0.95114  1.0000
  H   H49       1.0  0.22520  0.86378  0.96345  1.0000
  C   C24       1.0  0.97522  0.77905  0.00679  1.0000
  H   H50       1.0  0.97778  0.77446  0.04878  1.0000
  H   H51       1.0  0.32510  0.98576  0.91017  1.0000
  S   S7        1.0  0.00323  0.00978  0.88574  1.0000
  H   H52       1.0  0.34135  0.15615  0.94384  1.0000
  H   H53       1.0  0.16103  0.99452  0.90149  1.0000
  C   C25       1.0  0.21029  0.79088  0.97720  1.0000
  S   S8        1.0  0.98262  0.04132  0.95729  1.0000
  C   C26       1.0  0.14711  0.89460  0.83870  1.0000
  H   H54       1.0  0.10774  0.95642  0.99283  1.0000
  H   H55       1.0  0.14374  0.81218  0.95836  1.0000
  H   H56       1.0  0.29421  0.90306  0.96481  1.0000
  H   H57       1.0  0.11951  0.08873  0.97893  1.0000
  Fe  Fe4       1.0  0.98136  0.94564  0.97982  1.0000
  H   H58       1.0  0.31865  0.99174  0.02091  1.0000
  S   S9        1.0  0.32601  0.85728  0.97837  1.0000
  C   C27       1.0  0.99491  0.13873  0.02079  1.0000
  H   H59       1.0  0.22023  0.79793  0.00840  1.0000
  C   C28       1.0  0.26133  0.12452  0.99555  1.0000
  H   H60       1.0  0.26763  0.15074  0.99783  1.0000
  C   C29       1.0  0.12030  0.15469  0.86093  1.0000
  C   C30       1.0  0.00255  0.87556  0.04241  1.0000
  Fe  Fe5       1.0  0.31125  0.78947  0.01824  1.0000
  H   H61       1.0  0.20656  0.09514  0.81370  1.0000
  H   H62       1.0  0.27323  0.90866  0.82855  1.0000
  H   H63       1.0  0.13062  0.00771  0.98590  1.0000
  C   C31       1.0  0.14802  0.78544  0.04522  1.0000
  H   H64       1.0  0.16590  0.69744  0.87499  1.0000
  H   H65       1.0  0.01619  0.88078  0.90667  1.0000
  H   H66       1.0  0.07664  0.96380  0.02214  1.0000
  C   C32       1.0  0.28879  0.07096  0.84752  1.0000
  H   H67       1.0  0.09195  0.99092  0.82881  1.0000
  N   N2        1.0  0.19747  0.81852  0.94146  1.0000
  C   C33       1.0  0.22451  0.86633  0.92219  1.0000
  C   C34       1.0  0.24410  0.05622  0.98960  1.0000
  C   C35       1.0  0.09717  0.84719  0.94422  1.0000
  H   H68       1.0  0.16385  0.81868  0.03609  1.0000
  Fe  Fe6       1.0  0.25117  0.70075  0.03912  1.0000
  H   H69       1.0  0.97614  0.84912  0.83730  1.0000
  C   C36       1.0  0.10564  0.98291  0.98356  1.0000
  C   C37       1.0  0.10455  0.00759  0.92067  1.0000
  H   H70       1.0  0.07291  0.01990  0.82249  1.0000
  C   C38       1.0  0.26939  0.89985  0.87447  1.0000
  H   H71       1.0  0.26400  0.79736  0.96112  1.0000
  C   C39       1.0  0.02772  0.86594  0.03365  1.0000
  C   C40       1.0  0.19733  0.82398  0.88393  1.0000
  S   S10       1.0  0.98738  0.89639  0.98505  1.0000
  C   C41       1.0  0.25470  0.09783  0.93724  1.0000
  H   H72       1.0  0.96384  0.74621  0.01703  1.0000
  C   C42       1.0  0.17631  0.92434  0.84618  1.0000
  H   H73       1.0  0.32077  0.02541  0.90478  1.0000
  C   C43       1.0  0.00590  0.88511  0.87019  1.0000
  H   H74       1.0  0.34981  0.95823  0.04640  1.0000
  C   C44       1.0  0.26315  0.13178  0.94046  1.0000
  H   H75       1.0  0.13298  0.75788  0.99888  1.0000
  H   H76       1.0  0.18372  0.75283  0.00924  1.0000
  H   H77       1.0  0.06653  0.81785  0.98198  1.0000
  C   C45       1.0  0.10767  0.85571  0.88799  1.0000
  H   H78       1.0  0.98324  0.12670  0.81832  1.0000
  H   H79       1.0  0.22793  0.84322  0.84959  1.0000
  C   C46       1.0  0.28011  0.87384  0.01404  1.0000
  C   C47       1.0  0.14702  0.10907  0.98237  1.0000
  H   H80       1.0  0.34541  0.04623  0.00391  1.0000
  H   H81       1.0  0.27710  0.97240  0.92650  1.0000
  H   H82       1.0  0.02179  0.14417  0.02785  1.0000
  C   C48       1.0  0.31030  0.00129  0.89526  1.0000
  S   S11       1.0  0.31220  0.76952  0.95951  1.0000
  C   C49       1.0  0.15460  0.79331  0.98385  1.0000
  Fe  Fe7       1.0  0.03499  0.04848  0.91812  1.0000
  H   H83       1.0  0.28525  0.88659  0.89338  1.0000
  H   H84       1.0  0.31211  0.09922  0.84657  1.0000
  H   H85       1.0  0.23749  0.02995  0.98708  1.0000
  H   H86       1.0  0.01841  0.03710  0.04561  1.0000
  H   H87       1.0  0.11743  0.87179  0.99360  1.0000
  H   H88       1.0  0.13711  0.76434  0.91223  1.0000
  Fe  Fe8       1.0  0.18072  0.92173  0.01281  1.0000
  Fe  Fe9       1.0  0.33781  0.73869  0.01402  1.0000
  C   C50       1.0  0.07372  0.73162  0.81284  1.0000
  H   H89       1.0  0.03764  0.87113  0.99179  1.0000
  C   C51       1.0  0.16891  0.77831  0.89554  1.0000
  H   H90       1.0  0.15236  0.08851  0.90202  1.0000
  S   S12       1.0  0.07172  0.81823  0.87866  1.0000
  H   H91       1.0  0.23965  0.88252  0.04152  1.0000
  H   H92       1.0  0.14616  0.13163  0.98840  1.0000
  H   H93       1.0  0.18323  0.10094  0.02935  1.0000
  N   N3        1.0  0.92004  0.07139  0.05868  1.0000
  H   H94       1.0  0.03819  0.15015  0.84249  1.0000
  H   H95       1.0  0.20524  0.73465  0.88453  1.0000
  C   C52       1.0  0.98077  0.83990  0.87980  1.0000
  C   C53       1.0  0.29166  0.84658  0.03394  1.0000
  H   H96       1.0  0.17362  0.13354  0.93611  1.0000
  H   H97       1.0  0.28533  0.93323  0.86500  1.0000
  H   H98       1.0  0.97786  0.11651  0.93864  1.0000
  H   H99       1.0  0.21223  0.88446  0.90191  1.0000
  S   S13       1.0  0.01741  0.98516  0.00924  1.0000
  N   N4        1.0  0.14226  0.03595  0.86322  1.0000
  C   C54       1.0  0.96049  0.08604  0.05768  1.0000
  H   H100      1.0  0.98900  0.89762  0.86900  1.0000
  H   H101      1.0  0.26400  0.07275  0.84745  1.0000
  C   C55       1.0  0.24954  0.86253  0.05767  1.0000
  H   H102      1.0  0.15684  0.06035  0.01806  1.0000
  H   H103      1.0  0.36219  0.09941  0.82892  1.0000
  S   S14       1.0  0.15270  0.93819  0.05547  1.0000
  S   S15       1.0  0.22615  0.93427  0.05006  1.0000
  C   C56       1.0  0.25177  0.08350  0.04740  1.0000
  H   H104      1.0  0.18374  0.00050  0.81379  1.0000
  C   C57       1.0  0.26890  0.16308  0.12578  1.0000
  C   C58       1.0  0.02913  0.07555  0.12600  1.0000
  H   H105      1.0  0.05613  0.01956  0.19141  1.0000
  H   H106      1.0  0.09213  0.01856  0.22123  1.0000
  H   H107      1.0  0.10412  0.95926  0.13670  1.0000
  H   H108      1.0  0.16354  0.98378  0.26155  1.0000
  H   H109      1.0  0.16401  0.04155  0.13277  1.0000
  H   H110      1.0  0.88278  0.85533  0.25988  1.0000
  H   H111      1.0  0.10319  0.69115  0.22054  1.0000
  H   H112      1.0  0.93551  0.96777  0.22852  1.0000
  H   H113      1.0  0.95705  0.06767  0.10619  1.0000
  C   C59       1.0  0.29904  0.11548  0.16910  1.0000
  C   C60       1.0  0.99192  0.03690  0.18040  1.0000
  H   H114      1.0  0.27502  0.91271  0.10725  1.0000
  C   C61       1.0  0.30709  0.14169  0.10627  1.0000
  H   H115      1.0  0.35316  0.04976  0.27784  1.0000
  Fe  Fe10      1.0  0.27941  0.69578  0.13802  1.0000
  H   H116      1.0  0.06947  0.03002  0.08057  1.0000
  H   H117      1.0  0.92061  0.11268  0.07974  1.0000
  H   H118      1.0  0.14951  0.09422  0.11067  1.0000
  H   H119      1.0  0.13972  0.96457  0.16727  1.0000
  H   H120      1.0  0.02698  0.73376  0.28063  1.0000
  H   H121      1.0  0.33738  0.01250  0.10926  1.0000
  C   C62       1.0  0.29176  0.16508  0.08487  1.0000
  Fe  Fe11      1.0  0.02443  0.13405  0.15810  1.0000
  C   C63       1.0  0.00229  0.85227  0.14226  1.0000
  H   H122      1.0  0.32727  0.17481  0.22107  1.0000
  C   C64       1.0  0.23209  0.82552  0.12171  1.0000
  C   C65       1.0  0.96437  0.99764  0.18663  1.0000
  C   C66       1.0  0.89343  0.02160  0.08457  1.0000
  C   C67       1.0  0.32847  0.95214  0.22554  1.0000
  S   S16       1.0  0.01025  0.10638  0.25602  1.0000
  H   H123      1.0  0.15826  0.00567  0.08508  1.0000
  H   H124      1.0  0.14214  0.05599  0.26504  1.0000
  H   H125      1.0  0.32516  0.14406  0.07399  1.0000
  H   H126      1.0  0.99241  0.84697  0.18425  1.0000
  H   H127      1.0  0.01831  0.96252  0.17693  1.0000
  Fe  Fe12      1.0  0.94915  0.08578  0.26754  1.0000
  C   C68       1.0  0.26353  0.92780  0.18320  1.0000
  H   H128      1.0  0.20981  0.67673  0.24801  1.0000
  H   H129      1.0  0.05151  0.95772  0.20866  1.0000
  H   H130      1.0  0.11371  0.99379  0.19141  1.0000
  H   H131      1.0  0.08513  0.00193  0.07417  1.0000
  H   H132      1.0  0.02337  0.73965  0.19202  1.0000
  C   C69       1.0  0.29325  0.91082  0.13313  1.0000
  H   H133      1.0  0.35980  0.99568  0.28307  1.0000
  S   S17       1.0  0.06186  0.12662  0.11385  1.0000
  C   C70       1.0  0.23130  0.87797  0.24718  1.0000
  H   H134      1.0  0.14213  0.15411  0.28553  1.0000
  C   C71       1.0  0.13299  0.01629  0.14072  1.0000
  H   H135      1.0  0.31963  0.89811  0.08420  1.0000
  C   C72       1.0  0.14372  0.04049  0.30892  1.0000
  S   S18       1.0  0.24867  0.72288  0.09436  1.0000
  S   S19       1.0  0.34205  0.76432  0.06621  1.0000
  H   H136      1.0  0.35110  0.94191  0.17055  1.0000
  S   S20       1.0  0.22757  0.99642  0.11102  1.0000
  H   H137      1.0  0.30203  0.89113  0.23427  1.0000
  Fe  Fe13      1.0  0.17937  0.85818  0.13295  1.0000
  H   H138      1.0  0.36274  0.00215  0.07538  1.0000
  C   C73       1.0  0.21388  0.98133  0.25325  1.0000
  H   H139      1.0  0.07620  0.76739  0.22423  1.0000
  H   H140      1.0  0.98425  0.03743  0.21732  1.0000
  H   H141      1.0  0.30402  0.74849  0.17297  1.0000
  H   H142      1.0  0.11649  0.16603  0.23976  1.0000
  C   C74       1.0  0.30369  0.73340  0.21813  1.0000
  N   N5        1.0  0.30250  0.93987  0.15192  1.0000
  H   H143      1.0  0.88559  0.17480  0.26011  1.0000
  C   C75       1.0  0.24464  0.79920  0.14189  1.0000
  C   C76       1.0  0.25930  0.13507  0.18931  1.0000
  S   S21       1.0  0.96118  0.10697  0.17257  1.0000
  S   S22       1.0  0.32198  0.09066  0.19466  1.0000
  S   S23       1.0  0.96893  0.15348  0.23791  1.0000
  C   C77       1.0  0.32092  0.92948  0.19571  1.0000
  C   C78       1.0  0.02991  0.71678  0.22186  1.0000
  C   C79       1.0  0.01098  0.03654  0.08365  1.0000
  H   H144      1.0  0.30016  0.94128  0.25369  1.0000
  H   H145      1.0  0.03461  0.93429  0.17072  1.0000
  H   H146      1.0  0.23167  0.77095  0.19146  1.0000
  S   S24       1.0  0.04462  0.82428  0.18885  1.0000
  H   H147      1.0  0.05022  0.06834  0.30478  1.0000
  H   H148      1.0  0.24190  0.87155  0.28358  1.0000
  Fe  Fe14      1.0  0.19403  0.94323  0.10039  1.0000
  H   H149      1.0  0.27393  0.87322  0.17536  1.0000
  H   H150      1.0  0.12816  0.71621  0.25341  1.0000
  H   H151      1.0  0.19320  0.00854  0.18645  1.0000
  H   H152      1.0  0.17732  0.68571  0.21712  1.0000
  H   H153      1.0  0.24701  0.01065  0.23003  1.0000
  N   N6        1.0  0.12018  0.04217  0.10010  1.0000
  H   H154      1.0  0.24822  0.93114  0.15271  1.0000
  H   H155      1.0  0.05234  0.72233  0.18948  1.0000
  H   H156      1.0  0.22110  0.85080  0.24339  1.0000
  H   H157      1.0  0.09864  0.08499  0.29412  1.0000
  C   C80       1.0  0.02797  0.84336  0.13298  1.0000
  C   C81       1.0  0.19493  0.00451  0.22820  1.0000
  C   C82       1.0  0.11896  0.06902  0.11734  1.0000
  H   H158      1.0  0.24209  0.13371  0.22113  1.0000
  C   C83       1.0  0.27416  0.80949  0.09791  1.0000
  H   H159      1.0  0.28394  0.78930  0.11360  1.0000
  Fe  Fe15      1.0  0.11054  0.86165  0.13847  1.0000
  H   H160      1.0  0.11186  0.74217  0.19905  1.0000
  H   H161      1.0  0.90078  0.99281  0.17096  1.0000
  H   H162      1.0  0.14059  0.91043  0.27971  1.0000
  H   H163      1.0  0.34898  0.91881  0.11710  1.0000
  C   C84       1.0  0.32185  0.76137  0.23424  1.0000
  C   C85       1.0  0.32066  0.74176  0.29332  1.0000
  C   C86       1.0  0.10386  0.70879  0.23835  1.0000
  H   H164      1.0  0.89862  0.05562  0.14678  1.0000
  H   H165      1.0  0.09185  0.06535  0.18987  1.0000
  H   H166      1.0  0.33590  0.79783  0.20144  1.0000
  C   C87       1.0  0.03915  0.07468  0.07877  1.0000
  C   C88       1.0  0.28448  0.68595  0.26085  1.0000
  C   C89       1.0  0.33252  0.99131  0.09563  1.0000
  S   S25       1.0  0.15012  0.86793  0.18642  1.0000
  H   H167      1.0  0.21349  0.03939  0.21494  1.0000
  H   H168      1.0  0.26969  0.95303  0.18959  1.0000
  C   C90       1.0  0.90108  0.07592  0.09911  1.0000
  C   C91       1.0  0.99008  0.86904  0.09654  1.0000
  C   C92       1.0  0.13358  0.98494  0.13115  1.0000
  C   C93       1.0  0.27392  0.11082  0.21116  1.0000
  H   H169      1.0  0.25109  0.07837  0.08961  1.0000
  H   H170      1.0  0.28045  0.98569  0.26354  1.0000
  H   H171      1.0  0.97054  0.87629  0.10361  1.0000
  C   C94       1.0  0.04486  0.96410  0.16869  1.0000
  S   S26       1.0  0.13565  0.84450  0.09308  1.0000
  H   H172      1.0  0.21190  0.96419  0.23391  1.0000
  C   C95       1.0  0.11943  0.15902  0.28266  1.0000
  S   S27       1.0  0.93729  0.95290  0.13997  1.0000
  H   H173      1.0  0.20393  0.87318  0.26446  1.0000
  C   C96       1.0  0.04715  0.73082  0.25982  1.0000
  H   H174      1.0  0.86663  0.01221  0.07548  1.0000
  H   H175      1.0  0.11664  0.75980  0.26915  1.0000
  H   H176      1.0  0.34079  0.94047  0.25789  1.0000
  C   C97       1.0  0.97346  0.99825  0.13722  1.0000
  H   H177      1.0  0.06045  0.84331  0.07150  1.0000
  H   H178      1.0  0.86720  0.86270  0.17545  1.0000
  H   H179      1.0  0.15737  0.76598  0.07427  1.0000
  H   H180      1.0  0.26737  0.09038  0.26000  1.0000
  C   C98       1.0  0.08045  0.01084  0.10304  1.0000
  S   S28       1.0  0.19594  0.81315  0.17707  1.0000
  C   C99       1.0  0.08780  0.04057  0.18405  1.0000
  H   H181      1.0  0.91102  0.15607  0.20653  1.0000
  H   H182      1.0  0.86750  0.78487  0.30345  1.0000
  C   C100      1.0  0.04087  0.85049  0.07848  1.0000
  H   H183      1.0  0.11163  0.09034  0.08622  1.0000
  C   C101      1.0  0.33039  0.92281  0.09299  1.0000
  H   H184      1.0  0.35148  0.99077  0.18998  1.0000
  H   H185      1.0  0.86909  0.03131  0.25620  1.0000
  H   H186      1.0  0.00124  0.68033  0.25165  1.0000
  S   S29       1.0  0.01728  0.71590  0.06540  1.0000
  C   C102      1.0  0.87704  0.98385  0.15542  1.0000
  H   H187      1.0  0.18154  0.10535  0.29080  1.0000
  H   H188      1.0  0.11504  0.76405  0.07379  1.0000
  Fe  Fe16      1.0  0.98395  0.17616  0.14141  1.0000
  Fe  Fe17      1.0  0.03129  0.17638  0.21762  1.0000
  H   H189      1.0  0.91003  0.01700  0.06036  1.0000
  H   H190      1.0  0.15994  0.92026  0.44385  1.0000
  C   C103      1.0  0.88124  0.78795  0.48120  1.0000
  N   N7        1.0  0.06614  0.07015  0.37561  1.0000
  S   S30       1.0  0.04742  0.75411  0.45976  1.0000
  H   H191      1.0  0.95141  0.68555  0.37344  1.0000
  Fe  Fe18      1.0  0.99793  0.80025  0.55618  1.0000
  H   H192      1.0  0.24661  0.74066  0.46131  1.0000
  H   H193      1.0  0.07448  0.12458  0.37267  1.0000
  S   S31       1.0  0.01948  0.83378  0.39302  1.0000
  H   H194      1.0  0.19148  0.99127  0.33294  1.0000
  H   H195      1.0  0.08425  0.03246  0.43400  1.0000
  H   H196      1.0  0.12479  0.08708  0.36201  1.0000
  H   H197      1.0  0.97061  0.75839  0.31384  1.0000
  H   H198      1.0  0.32819  0.73601  0.52192  1.0000
  S   S32       1.0  0.29002  0.99846  0.41501  1.0000
  C   C104      1.0  0.08886  0.73036  0.31517  1.0000
  H   H199      1.0  0.32924  0.97334  0.35676  1.0000
  C   C105      1.0  0.20282  0.76546  0.37180  1.0000
  H   H200      1.0  0.98536  0.70530  0.42814  1.0000
  C   C106      1.0  0.26728  0.94449  0.48729  1.0000
  H   H201      1.0  0.15034  0.87134  0.32557  1.0000
  H   H202      1.0  0.30165  0.67947  0.38114  1.0000
  H   H203      1.0  0.14174  0.88104  0.40579  1.0000
  S   S33       1.0  0.21934  0.79226  0.44232  1.0000
  C   C107      1.0  0.93651  0.11735  0.54419  1.0000
  S   S34       1.0  0.09241  0.95800  0.33406  1.0000
  H   H204      1.0  0.15041  0.98587  0.46542  1.0000
  H   H205      1.0  0.26534  0.96556  0.54104  1.0000
  C   C108      1.0  0.25234  0.68955  0.47691  1.0000
  H   H206      1.0  0.02400  0.04080  0.46322  1.0000
  H   H207      1.0  0.91031  0.72581  0.40226  1.0000
  H   H208      1.0  0.86675  0.77799  0.37305  1.0000
  C   C109      1.0  0.17865  0.73322  0.36394  1.0000
  H   H209      1.0  0.05614  0.00965  0.32355  1.0000
  H   H210      1.0  0.04362  0.87789  0.53510  1.0000
  C   C110      1.0  0.12251  0.99249  0.35175  1.0000
  H   H211      1.0  0.23965  0.00687  0.31886  1.0000
  C   C111      1.0  0.12338  0.68429  0.46516  1.0000
  C   C112      1.0  0.23815  0.86413  0.54755  1.0000
  H   H212      1.0  0.92483  0.11780  0.51110  1.0000
  C   C113      1.0  0.30191  0.69439  0.33586  1.0000
  H   H213      1.0  0.95995  0.99723  0.45959  1.0000
  Fe  Fe19      1.0  0.96076  0.79601  0.46907  1.0000
  C   C114      1.0  0.15213  0.90949  0.35591  1.0000
  N   N8        1.0  0.19749  0.94849  0.32336  1.0000
  C   C115      1.0  0.20749  0.14046  0.55699  1.0000
  C   C116      1.0  0.13930  0.69172  0.41173  1.0000
  H   H214      1.0  0.06577  0.69329  0.49861  1.0000
  S   S35       1.0  0.90167  0.76710  0.46484  1.0000
  H   H215      1.0  0.98669  0.02074  0.38277  1.0000
  H   H216      1.0  0.36197  0.00778  0.42724  1.0000
  S   S36       1.0  0.96570  0.74677  0.54501  1.0000
  Fe  Fe20      1.0  0.24060  0.07761  0.42492  1.0000
  C   C117      1.0  0.33017  0.90135  0.39008  1.0000
  H   H217      1.0  0.29547  0.76529  0.41463  1.0000
  S   S37       1.0  0.34174  0.77572  0.31518  1.0000
  C   C118      1.0  0.06692  0.06081  0.33108  1.0000
  C   C119      1.0  0.87943  0.16751  0.47866  1.0000
  H   H218      1.0  0.20671  0.12178  0.54088  1.0000
  H   H219      1.0  0.12731  0.12853  0.39758  1.0000
  H   H220      1.0  0.09681  0.71015  0.34685  1.0000
  H   H221      1.0  0.86849  0.95192  0.49586  1.0000
  H   H222      1.0  0.13706  0.16317  0.52052  1.0000
  H   H223      1.0  0.90889  0.88706  0.44865  1.0000
  C   C120      1.0  0.02445  0.03352  0.43084  1.0000
  C   C121      1.0  0.09600  0.06885  0.39992  1.0000
  H   H224      1.0  0.08106  0.07502  0.46994  1.0000
  H   H225      1.0  0.13512  0.71034  0.51458  1.0000
  H   H226      1.0  0.94210  0.73997  0.43652  1.0000
  S   S38       1.0  0.98826  0.84663  0.48545  1.0000
  H   H227      1.0  0.26454  0.91324  0.44710  1.0000
  S   S39       1.0  0.05996  0.83856  0.48693  1.0000
  H   H228      1.0  0.25586  0.74362  0.39413  1.0000
  H   H229      1.0  0.20840  0.93319  0.43167  1.0000
  C   C122      1.0  0.14869  0.00116  0.42168  1.0000
  H   H230      1.0  0.94399  0.17599  0.52484  1.0000
  H   H231      1.0  0.23068  0.83617  0.54885  1.0000
  C   C123      1.0  0.98905  0.02776  0.41552  1.0000
  C   C124      1.0  0.12501  0.97277  0.40817  1.0000
  H   H232      1.0  0.99104  0.05835  0.39699  1.0000
  H   H233      1.0  0.31113  0.90870  0.37056  1.0000
  S   S40       1.0  0.89253  0.01903  0.35638  1.0000
  H   H234      1.0  0.90262  0.70046  0.34591  1.0000
  H   H235      1.0  0.33983  0.94175  0.44255  1.0000
  C   C125      1.0  0.88962  0.85087  0.46914  1.0000
  C   C126      1.0  0.08295  0.75239  0.33943  1.0000
  C   C127      1.0  0.90617  0.83461  0.45497  1.0000
  Fe  Fe21      1.0  0.28305  0.03815  0.43469  1.0000
  H   H236      1.0  0.01620  0.99867  0.45938  1.0000
  C   C128      1.0  0.21725  0.92684  0.33971  1.0000
  Fe  Fe22      1.0  0.04789  0.88100  0.41513  1.0000
  H   H237      1.0  0.06057  0.95112  0.50070  1.0000
  H   H238      1.0  0.08036  0.17068  0.50768  1.0000
  H   H239      1.0  0.01618  0.98497  0.39019  1.0000
  H   H240      1.0  0.19558  0.15750  0.53070  1.0000
  C   C129      1.0  0.04279  0.71528  0.53222  1.0000
  H   H241      1.0  0.91998  0.15078  0.36935  1.0000
  H   H242      1.0  0.12611  0.08208  0.45381  1.0000
  H   H243      1.0  0.06272  0.72602  0.39075  1.0000
  C   C130      1.0  0.18753  0.75642  0.42721  1.0000
  Fe  Fe23      1.0  0.19329  0.75077  0.54715  1.0000
  H   H244      1.0  0.27615  0.69360  0.44961  1.0000
  C   C131      1.0  0.25760  0.93726  0.54272  1.0000
  C   C132      1.0  0.14742  0.71654  0.47285  1.0000
  H   H245      1.0  0.10878  0.93576  0.44127  1.0000
  S   S41       1.0  0.19546  0.08445  0.39776  1.0000
  H   H246      1.0  0.23386  0.79629  0.33616  1.0000
  H   H247      1.0  0.93810  0.85839  0.42300  1.0000
  H   H248      1.0  0.00175  0.77265  0.35090  1.0000
  H   H249      1.0  0.13519  0.92133  0.35863  1.0000
  Fe  Fe24      1.0  0.32976  0.13349  0.39611  1.0000
  C   C133      1.0  0.19342  0.94823  0.41559  1.0000
  H   H250      1.0  0.97944  0.79889  0.32278  1.0000
  H   H251      1.0  0.31766  0.88415  0.44052  1.0000
  C   C134      1.0  0.26358  0.96061  0.31549  1.0000
  C   C135      1.0  0.93574  0.72709  0.41039  1.0000
  C   C136      1.0  0.04969  0.01087  0.36123  1.0000
  H   H252      1.0  0.07102  0.76974  0.31456  1.0000
  S   S42       1.0  0.22487  0.00971  0.50072  1.0000
  S   S43       1.0  0.32113  0.07033  0.47021  1.0000
  H   H253      1.0  0.88577  0.14506  0.50674  1.0000
  S   S44       1.0  0.27602  0.11393  0.45853  1.0000
  H   H254      1.0  0.06388  0.99993  0.39011  1.0000
  C   C137      1.0  0.03817  0.91905  0.54837  1.0000
  Fe  Fe25      1.0  0.26427  0.04773  0.52977  1.0000
  H   H255      1.0  0.32689  0.87538  0.38782  1.0000
  C   C138      1.0  0.07731  0.11717  0.34099  1.0000
  C   C139      1.0  0.25770  0.90801  0.48969  1.0000
  C   C140      1.0  0.16881  0.04897  0.37955  1.0000
  H   H256      1.0  0.20272  0.97239  0.42519  1.0000
  C   C141      1.0  0.97404  0.76580  0.34613  1.0000
  H   H257      1.0  0.89154  0.68502  0.53442  1.0000
  H   H258      1.0  0.20325  0.89901  0.39141  1.0000
  C   C142      1.0  0.10788  0.08996  0.43206  1.0000
  Fe  Fe26      1.0  0.02686  0.78860  0.47011  1.0000
  C   C143      1.0  0.26243  0.73710  0.43436  1.0000
  C   C144      1.0  0.20667  0.97599  0.34473  1.0000
  S   S45       1.0  0.29552  0.10284  0.35629  1.0000
  N   N9        1.0  0.25020  0.17660  0.54185  1.0000
  C   C145      1.0  0.95573  0.68176  0.46930  1.0000
  N   N10       1.0  0.92371  0.67941  0.44876  1.0000
  H   H259      1.0  0.87044  0.01592  0.45886  1.0000
  C   C146      1.0  0.94701  0.14996  0.55214  1.0000
  H   H260      1.0  0.27357  0.93982  0.33357  1.0000
  H   H261      1.0  0.10303  0.85674  0.35701  1.0000
  H   H262      1.0  0.05519  0.11779  0.32350  1.0000
  C   C147      1.0  0.05471  0.68981  0.53826  1.0000
  H   H263      1.0  0.96172  0.69755  0.49177  1.0000
  H   H264      1.0  0.87108  0.83546  0.35738  1.0000
  H   H265      1.0  0.11276  0.77921  0.33211  1.0000
  C   C148      1.0  0.36120  0.99821  0.32044  1.0000
  H   H266      1.0  0.19098  0.73972  0.32179  1.0000
  C   C149      1.0  0.13627  0.88615  0.32719  1.0000
  C   C150      1.0  0.16612  0.06845  0.32338  1.0000
  H   H267      1.0  0.27244  0.97992  0.33279  1.0000
  H   H268      1.0  0.21187  0.90869  0.32085  1.0000
  H   H269      1.0  0.87688  0.97929  0.55434  1.0000
  H   H270      1.0  0.00875  0.67956  0.38540  1.0000
  H   H271      1.0  0.27755  0.17631  0.47484  1.0000
  H   H272      1.0  0.18408  0.67751  0.50303  1.0000
  H   H273      1.0  0.25758  0.68512  0.51732  1.0000
  N   N11       1.0  0.05339  0.70027  0.30949  1.0000
  N   N12       1.0  0.33700  0.07358  0.78107  1.0000
  C   C151      1.0  0.02151  0.10746  0.73686  1.0000
  C   C152      1.0  0.06556  0.69510  0.76512  1.0000
  C   C153      1.0  0.89252  0.83975  0.63294  1.0000
  H   H274      1.0  0.32767  0.86767  0.67692  1.0000
  H   H275      1.0  0.96168  0.05965  0.64690  1.0000
  H   H276      1.0  0.98887  0.09006  0.75195  1.0000
  C   C154      1.0  0.12690  0.90848  0.63091  1.0000
  C   C155      1.0  0.02814  0.71051  0.58370  1.0000
  H   H277      1.0  0.08826  0.09791  0.74112  1.0000
  H   H278      1.0  0.15604  0.92338  0.63355  1.0000
  H   H279      1.0  0.33972  0.79128  0.59297  1.0000
  H   H280      1.0  0.87005  0.12074  0.63092  1.0000
  C   C156      1.0  0.30302  0.84851  0.66833  1.0000
  H   H281      1.0  0.08425  0.92020  0.61690  1.0000
  H   H282      1.0  0.01933  0.73042  0.57931  1.0000
  S   S46       1.0  0.03329  0.02508  0.73819  1.0000
  S   S47       1.0  0.23273  0.76171  0.59506  1.0000
  H   H283      1.0  0.87965  0.06876  0.70975  1.0000
  H   H284      1.0  0.12565  0.94902  0.76262  1.0000
  H   H285      1.0  0.13719  0.00226  0.69850  1.0000
  C   C157      1.0  0.24673  0.90866  0.72410  1.0000
  H   H286      1.0  0.95213  0.16199  0.78505  1.0000
  H   H287      1.0  0.22955  0.78406  0.77636  1.0000
  C   C158      1.0  0.22798  0.85660  0.60309  1.0000
  H   H288      1.0  0.16455  0.08472  0.76214  1.0000
  H   H289      1.0  0.25514  0.09085  0.64182  1.0000
  H   H290      1.0  0.01711  0.86262  0.74608  1.0000
  H   H291      1.0  0.98509  0.73301  0.77631  1.0000
  C   C159      1.0  0.28833  0.93237  0.70513  1.0000
  H   H292      1.0  0.32408  0.04398  0.60481  1.0000
  H   H293      1.0  0.01311  0.70784  0.74300  1.0000
  H   H294      1.0  0.31665  0.11315  0.74787  1.0000
  H   H295      1.0  0.04670  0.15168  0.57559  1.0000
  S   S48       1.0  0.28480  0.15853  0.70724  1.0000
  H   H296      1.0  0.20787  0.73994  0.77182  1.0000
  S   S49       1.0  0.00896  0.03128  0.60149  1.0000
  H   H297      1.0  0.11589  0.81941  0.59949  1.0000
  H   H298      1.0  0.13551  0.97138  0.57588  1.0000
  N   N13       1.0  0.26636  0.76498  0.77247  1.0000
  H   H299      1.0  0.10030  0.80480  0.69873  1.0000
  C   C160      1.0  0.09877  0.11201  0.69300  1.0000
  H   H300      1.0  0.20921  0.05839  0.78388  1.0000
  C   C161      1.0  0.30538  0.70224  0.56799  1.0000
  H   H301      1.0  0.09323  0.02222  0.60033  1.0000
  H   H302      1.0  0.30451  0.02970  0.72780  1.0000
  H   H303      1.0  0.22539  0.87113  0.75375  1.0000
  H   H304      1.0  0.31474  0.80299  0.68393  1.0000
  H   H305      1.0  0.35201  0.82686  0.72907  1.0000
  H   H306      1.0  0.90009  0.76712  0.71879  1.0000
  H   H307      1.0  0.16673  0.02987  0.77051  1.0000
  H   H308      1.0  0.97360  0.12887  0.75700  1.0000
  C   C162      1.0  0.02269  0.71427  0.77482  1.0000
  S   S50       1.0  0.92841  0.04319  0.57020  1.0000
  C   C163      1.0  0.02618  0.68099  0.64080  1.0000
  C   C164      1.0  0.04203  0.13860  0.75400  1.0000
  H   H309      1.0  0.91363  0.74976  0.60463  1.0000
  H   H310      1.0  0.05253  0.68846  0.73564  1.0000
  C   C165      1.0  0.36388  0.81624  0.59463  1.0000
  H   H311      1.0  0.24614  0.14035  0.63521  1.0000
  C   C166      1.0  0.28791  0.79889  0.70161  1.0000
  C   C167      1.0  0.08527  0.95927  0.66288  1.0000
  C   C168      1.0  0.03697  0.85360  0.74802  1.0000
  C   C169      1.0  0.26070  0.98248  0.66014  1.0000
  H   H312      1.0  0.97771  0.11465  0.66323  1.0000
  C   C170      1.0  0.86645  0.74232  0.74028  1.0000
  H   H313      1.0  0.29216  0.81611  0.78491  1.0000
  H   H314      1.0  0.18307  0.08152  0.65650  1.0000
  S   S51       1.0  0.30565  0.90117  0.73502  1.0000
  S   S52       1.0  0.24363  0.01383  0.63115  1.0000
  H   H315      1.0  0.97497  0.87751  0.68432  1.0000
  H   H316      1.0  0.06195  0.77933  0.64506  1.0000
  C   C171      1.0  0.32191  0.06788  0.69665  1.0000
  S   S53       1.0  0.92831  0.96630  0.73032  1.0000
  H   H317      1.0  0.90917  0.83838  0.66131  1.0000
  H   H318      1.0  0.31594  0.86879  0.61682  1.0000
  N   N14       1.0  0.06470  0.72965  0.76316  1.0000
  C   C172      1.0  0.94143  0.08432  0.57890  1.0000
  H   H319      1.0  0.27653  0.72400  0.59158  1.0000
  C   C173      1.0  0.17587  0.10342  0.62675  1.0000
  C   C174      1.0  0.88019  0.07194  0.74639  1.0000
  C   C175      1.0  0.02860  0.87757  0.56786  1.0000
  C   C176      1.0  0.07862  0.89056  0.73735  1.0000
  H   H320      1.0  0.23860  0.09758  0.58378  1.0000
  H   H321      1.0  0.03741  0.12700  0.68608  1.0000
  H   H322      1.0  0.23747  0.70973  0.73599  1.0000
  C   C177      1.0  0.01826  0.91886  0.58989  1.0000
  H   H323      1.0  0.15529  0.90143  0.79503  1.0000
  H   H324      1.0  0.12996  0.08110  0.80554  1.0000
  C   C178      1.0  0.11228  0.93572  0.62241  1.0000
  H   H325      1.0  0.17282  0.11928  0.64508  1.0000
  C   C179      1.0  0.09293  0.10157  0.61673  1.0000
  S   S54       1.0  0.35597  0.74295  0.68937  1.0000
  C   C180      1.0  0.23794  0.89319  0.60079  1.0000
  H   H326      1.0  0.02132  0.81971  0.79580  1.0000
  H   H327      1.0  0.14018  0.03452  0.59649  1.0000
  H   H328      1.0  0.87793  0.78166  0.59270  1.0000
  C   C181      1.0  0.96642  0.11575  0.62979  1.0000
  C   C182      1.0  0.95686  0.08409  0.62103  1.0000
  C   C183      1.0  0.22561  0.75245  0.79351  1.0000
  H   H329      1.0  0.26777  0.78524  0.68298  1.0000
  H   H330      1.0  0.27750  0.05234  0.79054  1.0000
  H   H331      1.0  0.17711  0.00069  0.70705  1.0000
  C   C184      1.0  0.30237  0.00623  0.63906  1.0000
  C   C185      1.0  0.26225  0.11726  0.59312  1.0000
  C   C186      1.0  0.99394  0.15116  0.76686  1.0000
  C   C187      1.0  0.26337  0.15477  0.58765  1.0000
  S   S55       1.0  0.98371  0.78363  0.64903  1.0000
  H   H332      1.0  0.07898  0.07924  0.60568  1.0000
  H   H333      1.0  0.02888  0.11438  0.80598  1.0000
  H   H334      1.0  0.91214  0.85606  0.58551  1.0000
  S   S56       1.0  0.15127  0.75127  0.59746  1.0000
  Fe  Fe27      1.0  0.99277  0.99416  0.70309  1.0000
  C   C188      1.0  0.98122  0.83610  0.67188  1.0000
  H   H335      1.0  0.88278  0.13125  0.69991  1.0000
  H   H336      1.0  0.10385  0.87091  0.67266  1.0000
  N   N15       1.0  0.10544  0.93829  0.67316  1.0000
  C   C189      1.0  0.11050  0.01009  0.60119  1.0000
  H   H337      1.0  0.27838  0.84866  0.68163  1.0000
  N   N16       1.0  0.03764  0.17519  0.73065  1.0000
  C   C190      1.0  0.31613  0.98122  0.66229  1.0000
  C   C191      1.0  0.98996  0.87752  0.65190  1.0000
  H   H338      1.0  0.20071  0.91523  0.71672  1.0000
  H   H339      1.0  0.13231  0.91077  0.58947  1.0000
  Fe  Fe28      1.0  0.19015  0.68380  0.66809  1.0000
  C   C192      1.0  0.88625  0.73179  0.64475  1.0000
  S   S57       1.0  0.92480  0.93539  0.64478  1.0000
  H   H340      1.0  0.91260  0.09436  0.73568  1.0000
  H   H341      1.0  0.95999  0.80426  0.71999  1.0000
  C   C193      1.0  0.27580  0.69529  0.60688  1.0000
  S   S58       1.0  0.14759  0.67889  0.72774  1.0000
  C   C194      1.0  0.99948  0.83591  0.62903  1.0000
  H   H342      1.0  0.91537  0.79861  0.61811  1.0000
  H   H343      1.0  0.30079  0.07527  0.69477  1.0000
  C   C195      1.0  0.14595  0.96764  0.67018  1.0000
  H   H344      1.0  0.05644  0.93862  0.66210  1.0000
  H   H345      1.0  0.10878  0.04077  0.75365  1.0000
  H   H346      1.0  0.03976  0.84782  0.71459  1.0000
  S   S59       1.0  0.03052  0.97118  0.56343  1.0000
  H   H347      1.0  0.09453  0.87616  0.74889  1.0000
  C   C196      1.0  0.12641  0.14896  0.56869  1.0000
  H   H348      1.0  0.09723  0.70933  0.74364  1.0000
  H   H349      1.0  0.34834  0.99994  0.64668  1.0000
  C   C197      1.0  0.01675  0.74775  0.76859  1.0000
  H   H350      1.0  0.02290  0.07908  0.76172  1.0000
  H   H351      1.0  0.07192  0.89245  0.77420  1.0000
  C   C198      1.0  0.96172  0.14878  0.59542  1.0000
  Fe  Fe29      1.0  0.94377  0.99921  0.62952  1.0000
  H   H352      1.0  0.13938  0.78256  0.77985  1.0000
  H   H353      1.0  0.16896  0.00078  0.62115  1.0000
  S   S60       1.0  0.20150  0.80086  0.67504  1.0000
  Fe  Fe30      1.0  0.18715  0.75583  0.65093  1.0000
  H   H354      1.0  0.88929  0.71416  0.68780  1.0000
  C   C199      1.0  0.13211  0.15965  0.64479  1.0000
  H   H355      1.0  0.15838  0.94927  0.68447  1.0000
  H   H356      1.0  0.14560  0.07974  0.63172  1.0000
  H   H357      1.0  0.23031  0.88749  0.64366  1.0000
  H   H358      1.0  0.07599  0.95765  0.70261  1.0000
  C   C200      1.0  0.14586  0.98029  0.71223  1.0000
  H   H359      1.0  0.33840  0.08282  0.64843  1.0000
  H   H360      1.0  0.08844  0.75916  0.63913  1.0000
  Fe  Fe31      1.0  0.91365  0.90457  0.74397  1.0000
  C   C201      1.0  0.88395  0.76858  0.63390  1.0000
  C   C202      1.0  0.23283  0.93366  0.70245  1.0000
  H   H361      1.0  0.12438  0.73095  0.79419  1.0000
  H   H362      1.0  0.03707  0.78265  0.72108  1.0000
  C   C203      1.0  0.07801  0.08330  0.67870  1.0000
  H   H363      1.0  0.12706  0.78691  0.69031  1.0000
  S   S61       1.0  0.97676  0.92950  0.72575  1.0000
  C   C204      1.0  0.35343  0.09144  0.71502  1.0000
  Fe  Fe32      1.0  0.98896  0.96482  0.62598  1.0000
  C   C205      1.0  0.10046  0.02560  0.80317  1.0000
  C   C206      1.0  0.08976  0.78349  0.64332  1.0000
  C   C207      1.0  0.09665  0.77743  0.69985  1.0000
  C   C208      1.0  0.13622  0.05914  0.80672  1.0000
  H   H364      1.0  0.07462  0.15457  0.73712  1.0000
  H   H365      1.0  0.86752  0.10009  0.78062  1.0000
  C   C209      1.0  0.30490  0.07793  0.78910  1.0000
  C   C210      1.0  0.26194  0.72260  0.79580  1.0000
  H   H366      1.0  0.22498  0.16907  0.68877  1.0000
  H   H367      1.0  0.02038  0.75109  0.80473  1.0000
  C   C211      1.0  0.23078  0.69051  0.78601  1.0000
  C   C212      1.0  0.17893  0.02502  0.80493  1.0000
  H   H368      1.0  0.88661  0.86320  0.62604  1.0000
  H   H369      1.0  0.87519  0.78047  0.77369  1.0000
  H   H370      1.0  0.29154  0.73319  0.77193  1.0000
  H   H371      1.0  0.20697  0.95402  0.80817  1.0000
  C   C213      1.0  0.33305  0.80195  0.78051  1.0000
  H   H372      1.0  0.33935  0.01893  0.80934  1.0000
  C   C214      1.0  0.28992  0.78603  0.79859  1.0000
  H   H373      1.0  0.01549  0.67808  0.68000  1.0000
  H   H374      1.0  0.07450  0.75848  0.80922  1.0000
  H   H375      1.0  0.34813  0.81992  0.79850  1.0000
  H   H376      1.0  0.33225  0.77183  0.80254  1.0000
  H   H377      1.0  0.29217  0.13331  0.56034  1.0000
  H   H378      1.0  0.11540  0.01267  0.55949  1.0000
  H   H379      1.0  0.34186  0.40321  0.98010  1.0000
  H   H380      1.0  0.07450  0.49300  0.90379  1.0000
  C   C215      1.0  0.22173  0.32159  0.05142  1.0000
  H   H381      1.0  0.88221  0.44502  0.95743  1.0000
  C   C216      1.0  0.87940  0.24284  0.86701  1.0000
  H   H382      1.0  0.35874  0.18596  0.86201  1.0000
  C   C217      1.0  0.96267  0.34167  0.83139  1.0000
  H   H383      1.0  0.04879  0.42743  0.92255  1.0000
  C   C218      1.0  0.15731  0.21706  0.88342  1.0000
  H   H384      1.0  0.89581  0.37057  0.83301  1.0000
  H   H385      1.0  0.14908  0.36447  0.04500  1.0000
  H   H386      1.0  0.26100  0.50938  0.92409  1.0000
  H   H387      1.0  0.08114  0.55626  0.04297  1.0000
  H   H388      1.0  0.07966  0.65554  0.03571  1.0000
  S   S62       1.0  0.99485  0.46814  0.02798  1.0000
  S   S63       1.0  0.36049  0.56872  0.85110  1.0000
  C   C219      1.0  0.31257  0.38293  0.98003  1.0000
  H   H389      1.0  0.91183  0.61406  0.90703  1.0000
  C   C220      1.0  0.89391  0.58881  0.95753  1.0000
  H   H390      1.0  0.93713  0.26319  0.82724  1.0000
  H   H391      1.0  0.19781  0.27644  0.02653  1.0000
  H   H392      1.0  0.36373  0.57387  0.99847  1.0000
  Fe  Fe33      1.0  0.98446  0.64723  0.00655  1.0000
  H   H393      1.0  0.14556  0.46419  0.91349  1.0000
  C   C221      1.0  0.04154  0.46569  0.83970  1.0000
  C   C222      1.0  0.14986  0.47710  0.93941  1.0000
  H   H394      1.0  0.29939  0.39952  0.97542  1.0000
  C   C223      1.0  0.22735  0.51708  0.84490  1.0000
  H   H395      1.0  0.17248  0.32305  0.84082  1.0000
  H   H396      1.0  0.08862  0.32426  0.84130  1.0000
  C   C224      1.0  0.13152  0.65892  0.02950  1.0000
  H   H397      1.0  0.95865  0.52768  0.97607  1.0000
  S   S64       1.0  0.22633  0.19705  0.97389  1.0000
  C   C225      1.0  0.21645  0.46921  0.87849  1.0000
  H   H398      1.0  0.29930  0.18631  0.03618  1.0000
  H   H399      1.0  0.26053  0.57736  0.92826  1.0000
  C   C226      1.0  0.23203  0.57425  0.84718  1.0000
  H   H400      1.0  0.08641  0.45510  0.84851  1.0000
  H   H401      1.0  0.92937  0.53589  0.93710  1.0000
  H   H402      1.0  0.00934  0.62897  0.85318  1.0000
  S   S65       1.0  0.21818  0.42441  0.05195  1.0000
  H   H403      1.0  0.14812  0.50536  0.91734  1.0000
  H   H404      1.0  0.18717  0.46175  0.97526  1.0000
  C   C227      1.0  0.89513  0.34529  0.98787  1.0000
  H   H405      1.0  0.09656  0.17976  0.94661  1.0000
  H   H406      1.0  0.29270  0.56684  0.85408  1.0000
  S   S66       1.0  0.94737  0.43799  0.93126  1.0000
  C   C228      1.0  0.28537  0.33067  0.03914  1.0000
  Fe  Fe34      1.0  0.95529  0.41558  0.01834  1.0000
  C   C229      1.0  0.10069  0.65687  0.05496  1.0000
  H   H407      1.0  0.12180  0.26651  0.94693  1.0000
  C   C230      1.0  0.34378  0.65873  0.02980  1.0000
  H   H408      1.0  0.95399  0.34950  0.85908  1.0000
  H   H409      1.0  0.00874  0.44435  0.86951  1.0000
  C   C231      1.0  0.05432  0.43701  0.87593  1.0000
  C   C232      1.0  0.31716  0.49006  0.86564  1.0000
  N   N17       1.0  0.06573  0.51364  0.82004  1.0000
  H   H410      1.0  0.03790  0.19673  0.82192  1.0000
  H   H411      1.0  0.20549  0.51631  0.82573  1.0000
  S   S67       1.0  0.19947  0.66716  0.01948  1.0000
  H   H412      1.0  0.12380  0.44760  0.98734  1.0000
  C   C233      1.0  0.18967  0.49297  0.94509  1.0000
  H   H413      1.0  0.28551  0.42870  0.87445  1.0000
  Fe  Fe35      1.0  0.32845  0.32374  0.85701  1.0000
  H   H414      1.0  0.94046  0.49937  0.94462  1.0000
  H   H415      1.0  0.95685  0.28308  0.02759  1.0000
  S   S68       1.0  0.96540  0.61456  0.96299  1.0000
  C   C234      1.0  0.91267  0.58122  0.99600  1.0000
  S   S69       1.0  0.27691  0.18366  0.87492  1.0000
  H   H416      1.0  0.25179  0.52510  0.98776  1.0000
  S   S70       1.0  0.32480  0.26271  0.92255  1.0000
  H   H417      1.0  0.35509  0.23168  0.88334  1.0000
  S   S71       1.0  0.18086  0.25323  0.90172  1.0000
  H   H418      1.0  0.07332  0.54337  0.91590  1.0000
  H   H419      1.0  0.04357  0.62412  0.82536  1.0000
  C   C235      1.0  0.11486  0.18274  0.91356  1.0000
  H   H420      1.0  0.19020  0.50395  0.97309  1.0000
  C   C236      1.0  0.11297  0.28310  0.91175  1.0000
  H   H421      1.0  0.02347  0.52683  0.82024  1.0000
  C   C237      1.0  0.91885  0.40037  0.87615  1.0000
  C   C238      1.0  0.93239  0.50973  0.96853  1.0000
  C   C239      1.0  0.07984  0.55258  0.86940  1.0000
  H   H422      1.0  0.34576  0.50749  0.01598  1.0000
  Fe  Fe36      1.0  0.27154  0.23698  0.99515  1.0000
  H   H423      1.0  0.23564  0.35833  0.02613  1.0000
  C   C240      1.0  0.91862  0.39138  0.93194  1.0000
  H   H424      1.0  0.86811  0.39806  0.03338  1.0000
  H   H425      1.0  0.18481  0.43979  0.91675  1.0000
  H   H426      1.0  0.08067  0.25494  0.92792  1.0000
  H   H427      1.0  0.21362  0.24833  0.81553  1.0000
  C   C241      1.0  0.87112  0.31735  0.93239  1.0000
  S   S72       1.0  0.27819  0.30100  0.93127  1.0000
  H   H428      1.0  0.06694  0.56941  0.84742  1.0000
  H   H429      1.0  0.28133  0.31137  0.02258  1.0000
  H   H430      1.0  0.89168  0.48007  0.05689  1.0000
  S   S73       1.0  0.08583  0.47314  0.03445  1.0000
  H   H431      1.0  0.19949  0.32505  0.98303  1.0000
  H   H432      1.0  0.16935  0.38215  0.84088  1.0000
  C   C242      1.0  0.26954  0.55618  0.93711  1.0000
  Fe  Fe37      1.0  0.27964  0.22689  0.89682  1.0000
  H   H433      1.0  0.95403  0.30691  0.86484  1.0000
  H   H434      1.0  0.32003  0.38755  0.93691  1.0000
  H   H435      1.0  0.32100  0.66141  0.02071  1.0000
  C   C243      1.0  0.87079  0.30829  0.98827  1.0000
  H   H436      1.0  0.93592  0.43582  0.83322  1.0000
  H   H437      1.0  0.31927  0.47394  0.90885  1.0000
  S   S74       1.0  0.98350  0.38243  0.04965  1.0000
  C   C244      1.0  0.26370  0.54088  0.89767  1.0000
  H   H438      1.0  0.91004  0.32695  0.81710  1.0000
  C   C245      1.0  0.06074  0.50767  0.87884  1.0000
  C   C246      1.0  0.89597  0.36341  0.87607  1.0000
  H   H439      1.0  0.88689  0.25037  0.89850  1.0000
  H   H440      1.0  0.11528  0.30898  0.91273  1.0000
  H   H441      1.0  0.21014  0.56981  0.82720  1.0000
  C   C247      1.0  0.29808  0.46461  0.84633  1.0000
  H   H442      1.0  0.21876  0.46405  0.84405  1.0000
  H   H443      1.0  0.02797  0.48218  0.91257  1.0000
  H   H444      1.0  0.22333  0.57999  0.87808  1.0000
  H   H445      1.0  0.24575  0.33496  0.96495  1.0000
  C   C248      1.0  0.21618  0.31372  0.00411  1.0000
  H   H446      1.0  0.16504  0.52355  0.02580  1.0000
  H   H447      1.0  0.30226  0.57853  0.92496  1.0000
  C   C249      1.0  0.15862  0.66012  0.05474  1.0000
  H   H448      1.0  0.35808  0.47107  0.04965  1.0000
  H   H449      1.0  0.89460  0.33803  0.03124  1.0000
  Fe  Fe38      1.0  0.23659  0.26238  0.90455  1.0000
  H   H450      1.0  0.23756  0.46686  0.89738  1.0000
  C   C250      1.0  0.89425  0.46703  0.03306  1.0000
  H   H451      1.0  0.07369  0.28202  0.83326  1.0000
  N   N18       1.0  0.22811  0.53124  0.88386  1.0000
  H   H452      1.0  0.03524  0.40363  0.88491  1.0000
  S   S75       1.0  0.28720  0.28978  0.82558  1.0000
  C   C251      1.0  0.14069  0.30438  0.84703  1.0000
  H   H453      1.0  0.11344  0.57801  0.84214  1.0000
  C   C252      1.0  0.18095  0.22124  0.84030  1.0000
  H   H454      1.0  0.05542  0.64884  0.86218  1.0000
  H   H455      1.0  0.13178  0.27341  0.85301  1.0000
  H   H456      1.0  0.13459  0.66011  0.98993  1.0000
  C   C253      1.0  0.16245  0.19069  0.82827  1.0000
  C   C254      1.0  0.33434  0.53682  0.82837  1.0000
  C   C255      1.0  0.04200  0.64676  0.83059  1.0000
  H   H457      1.0  0.08349  0.20561  0.81140  1.0000
  H   H458      1.0  0.19914  0.67273  0.81519  1.0000
  H   H459      1.0  0.26622  0.39085  0.06228  1.0000
  H   H460      1.0  0.34076  0.65474  0.25603  1.0000
  C   C256      1.0  0.33388  0.63552  0.23857  1.0000
  C   C257      1.0  0.13020  0.54040  0.17333  1.0000
  H   H461      1.0  0.19081  0.30154  0.08686  1.0000
  C   C258      1.0  0.88496  0.41608  0.20601  1.0000
  C   C259      1.0  0.12289  0.65501  0.13255  1.0000
  C   C260      1.0  0.03712  0.49511  0.14257  1.0000
  H   H462      1.0  0.00388  0.47259  0.16828  1.0000
  H   H463      1.0  0.93762  0.22151  0.27885  1.0000
  H   H464      1.0  0.26407  0.30915  0.15221  1.0000
  C   C261      1.0  0.31107  0.56682  0.22420  1.0000
  H   H465      1.0  0.88104  0.35660  0.26773  1.0000
  C   C262      1.0  0.24983  0.28835  0.29354  1.0000
  H   H466      1.0  0.09065  0.27924  0.12423  1.0000
  H   H467      1.0  0.04285  0.40064  0.17035  1.0000
  S   S76       1.0  0.18490  0.38517  0.21535  1.0000
  H   H468      1.0  0.03302  0.34112  0.16274  1.0000
  C   C263      1.0  0.99647  0.42377  0.28706  1.0000
  C   C264      1.0  0.22456  0.52791  0.23994  1.0000
  Fe  Fe39      1.0  0.93344  0.33548  0.14597  1.0000
  H   H469      1.0  0.06152  0.52805  0.23152  1.0000
  H   H470      1.0  0.30473  0.58511  0.07941  1.0000
  S   S77       1.0  0.90204  0.64166  0.15370  1.0000
  C   C265      1.0  0.95819  0.27968  0.30091  1.0000
  H   H471      1.0  0.08873  0.34469  0.16406  1.0000
  H   H472      1.0  0.11643  0.56608  0.09724  1.0000
  S   S78       1.0  0.96543  0.21312  0.07643  1.0000
  H   H473      1.0  0.12693  0.55593  0.19206  1.0000
  S   S79       1.0  0.04863  0.20544  0.11816  1.0000
  H   H474      1.0  0.20474  0.35132  0.16774  1.0000
  H   H475      1.0  0.32628  0.60236  0.17930  1.0000
  S   S80       1.0  0.24648  0.49922  0.10695  1.0000
  H   H476      1.0  0.05076  0.30737  0.12764  1.0000
  C   C266      1.0  0.15741  0.48657  0.12042  1.0000
  H   H477      1.0  0.22583  0.23227  0.21159  1.0000
  C   C267      1.0  0.36444  0.61227  0.07285  1.0000
  H   H478      1.0  0.07738  0.56936  0.15106  1.0000
  H   H479      1.0  0.04684  0.43889  0.23124  1.0000
  H   H480      1.0  0.10628  0.51333  0.12795  1.0000
  S   S81       1.0  0.28232  0.44504  0.14252  1.0000
  H   H481      1.0  0.01572  0.54983  0.16667  1.0000
  S   S82       1.0  0.05973  0.65470  0.13747  1.0000
  C   C268      1.0  0.31153  0.32893  0.20694  1.0000
  S   S83       1.0  0.93512  0.45223  0.15183  1.0000
  H   H482      1.0  0.16368  0.55614  0.26008  1.0000
  H   H483      1.0  0.18644  0.23857  0.15386  1.0000
  H   H484      1.0  0.16246  0.56585  0.13753  1.0000
  C   C269      1.0  0.92526  0.26890  0.10858  1.0000
  H   H485      1.0  0.18913  0.51163  0.10637  1.0000
  H   H486      1.0  0.32671  0.39123  0.30026  1.0000
  H   H487      1.0  0.20374  0.49036  0.28224  1.0000
  C   C270      1.0  0.12994  0.44843  0.18401  1.0000
  C   C271      1.0  0.11591  0.29475  0.13318  1.0000
  H   H488      1.0  0.03912  0.25680  0.22793  1.0000
  C   C272      1.0  0.25143  0.55962  0.25360  1.0000
  S   S84       1.0  0.27693  0.66805  0.08920  1.0000
  H   H489      1.0  0.02324  0.32344  0.09242  1.0000
  Fe  Fe40      1.0  0.23325  0.43952  0.11590  1.0000
  C   C273      1.0  0.17765  0.66027  0.25759  1.0000
  Fe  Fe41      1.0  0.94544  0.41694  0.12555  1.0000
  H   H490      1.0  0.29174  0.20735  0.20166  1.0000
  C   C274      1.0  0.34397  0.56395  0.23813  1.0000
  H   H491      1.0  0.26883  0.59615  0.20961  1.0000
  H   H492      1.0  0.11962  0.65374  0.17219  1.0000
  C   C275      1.0  0.86888  0.64021  0.12075  1.0000
  H   H493      1.0  0.87531  0.51409  0.19541  1.0000
  C   C276      1.0  0.05426  0.53167  0.19251  1.0000
  H   H494      1.0  0.88266  0.46349  0.25777  1.0000
  H   H495      1.0  0.98132  0.30018  0.18481  1.0000
  H   H496      1.0  0.06728  0.38863  0.25117  1.0000
  C   C277      1.0  0.03693  0.27149  0.24916  1.0000
  S   S85       1.0  0.25725  0.20024  0.09655  1.0000
  H   H497      1.0  0.03218  0.24838  0.29767  1.0000
  Fe  Fe42      1.0  0.01833  0.43040  0.06852  1.0000
  S   S86       1.0  0.96419  0.61083  0.10914  1.0000
  H   H498      1.0  0.87968  0.46866  0.15324  1.0000
  H   H499      1.0  0.18094  0.61998  0.23976  1.0000
  H   H500      1.0  0.21624  0.24543  0.09656  1.0000
  H   H501      1.0  0.05834  0.46330  0.26821  1.0000
  C   C278      1.0  0.89155  0.46741  0.29149  1.0000
  C   C279      1.0  0.07893  0.31978  0.21489  1.0000
  C   C280      1.0  0.90100  0.19841  0.20939  1.0000
  H   H502      1.0  0.30861  0.39192  0.06701  1.0000
  H   H503      1.0  0.17210  0.65379  0.12995  1.0000
  H   H504      1.0  0.90458  0.54445  0.09044  1.0000
  H   H505      1.0  0.14698  0.26686  0.24618  1.0000
  C   C281      1.0  0.21826  0.25614  0.12526  1.0000
  C   C282      1.0  0.32549  0.37140  0.19001  1.0000
  C   C283      1.0  0.35952  0.24835  0.10148  1.0000
  H   H506      1.0  0.03890  0.65615  0.28565  1.0000
  H   H507      1.0  0.04122  0.47490  0.13432  1.0000
  C   C284      1.0  0.01295  0.52104  0.20723  1.0000
  H   H508      1.0  0.35345  0.20374  0.24762  1.0000
  C   C285      1.0  0.18037  0.36365  0.10175  1.0000
  S   S87       1.0  0.89647  0.25748  0.21181  1.0000
  H   H509      1.0  0.02918  0.52906  0.06004  1.0000
  Fe  Fe43      1.0  0.20047  0.44473  0.20821  1.0000
  C   C286      1.0  0.10232  0.46249  0.09253  1.0000
  C   C287      1.0  0.34270  0.20824  0.21171  1.0000
  C   C288      1.0  0.99706  0.28608  0.28549  1.0000
  H   H510      1.0  0.96736  0.21082  0.25605  1.0000
  H   H511      1.0  0.34771  0.47853  0.25206  1.0000
  C   C289      1.0  0.08856  0.41770  0.20189  1.0000
  C   C290      1.0  0.17999  0.33578  0.15789  1.0000
  C   C291      1.0  0.14728  0.28784  0.20233  1.0000
  Fe  Fe44      1.0  0.29085  0.49911  0.14423  1.0000
  S   S88       1.0  0.07161  0.20882  0.25120  1.0000
  C   C292      1.0  0.00896  0.30412  0.18429  1.0000
  S   S89       1.0  0.97074  0.38157  0.16734  1.0000
  H   H512      1.0  0.30378  0.32695  0.06424  1.0000
  H   H513      1.0  0.10209  0.31554  0.21903  1.0000
  H   H514      1.0  0.34996  0.56789  0.27300  1.0000
  C   C293      1.0  0.15324  0.65636  0.10767  1.0000
  Fe  Fe45      1.0  0.23497  0.39409  0.24167  1.0000
  C   C294      1.0  0.14367  0.49349  0.07478  1.0000
  C   C295      1.0  0.27600  0.37298  0.09298  1.0000
  S   S90       1.0  0.33856  0.32774  0.15937  1.0000
  C   C296      1.0  0.10259  0.53115  0.14199  1.0000
  H   H515      1.0  0.20499  0.53614  0.22432  1.0000
  H   H516      1.0  0.90051  0.54317  0.25018  1.0000
  C   C297      1.0  0.23189  0.23330  0.17153  1.0000
  H   H517      1.0  0.21920  0.30177  0.16098  1.0000
  H   H518      1.0  0.23072  0.55475  0.28778  1.0000
  H   H519      1.0  0.95358  0.29553  0.25928  1.0000
  H   H520      1.0  0.12488  0.50824  0.21029  1.0000
  S   S91       1.0  0.90365  0.36658  0.11326  1.0000
  C   C298      1.0  0.07475  0.42458  0.15621  1.0000
  C   C299      1.0  0.11472  0.26743  0.19079  1.0000
  N   N19       1.0  0.00168  0.27095  0.25009  1.0000
  C   C300      1.0  0.26291  0.33110  0.27461  1.0000
  H   H521      1.0  0.98969  0.43765  0.30571  1.0000
  C   C301      1.0  0.93830  0.22002  0.11369  1.0000
  S   S92       1.0  0.35344  0.55854  0.11508  1.0000
  H   H522      1.0  0.26438  0.25071  0.14828  1.0000
  H   H523      1.0  0.35442  0.40360  0.14979  1.0000
  C   C302      1.0  0.02079  0.29869  0.13775  1.0000
  H   H524      1.0  0.29621  0.54400  0.21249  1.0000
  H   H525      1.0  0.36226  0.64329  0.21732  1.0000
  C   C303      1.0  0.27404  0.28727  0.25953  1.0000
  N   N20       1.0  0.05808  0.50387  0.18018  1.0000
  H   H526      1.0  0.34292  0.21410  0.11341  1.0000
  H   H527      1.0  0.32519  0.64966  0.20151  1.0000
  C   C304      1.0  0.15631  0.61527  0.26642  1.0000
  C   C305      1.0  0.86523  0.37021  0.25956  1.0000
  C   C306      1.0  0.91612  0.18824  0.17915  1.0000
  H   H528      1.0  0.05389  0.56482  0.07968  1.0000
  H   H529      1.0  0.26324  0.25428  0.27295  1.0000
  C   C307      1.0  0.96365  0.22232  0.28132  1.0000
  C   C308      1.0  0.24950  0.32083  0.12532  1.0000
  C   C309      1.0  0.06250  0.67643  0.29467  1.0000
  H   H530      1.0  0.02270  0.32367  0.25830  1.0000
  H   H531      1.0  0.92696  0.29875  0.08117  1.0000
  C   C310      1.0  0.29964  0.58274  0.29391  1.0000
  C   C311      1.0  0.30126  0.37244  0.22395  1.0000
  C   C312      1.0  0.86824  0.51069  0.27693  1.0000
  H   H532      1.0  0.21389  0.19641  0.19189  1.0000
  S   S93       1.0  0.26145  0.65098  0.24080  1.0000
  C   C313      1.0  0.04185  0.45789  0.24094  1.0000
  H   H533      1.0  0.87839  0.61258  0.08193  1.0000
  H   H534      1.0  0.98690  0.48765  0.22101  1.0000
  H   H535      1.0  0.99748  0.26337  0.15381  1.0000
  H   H536      1.0  0.97598  0.41309  0.26710  1.0000
  H   H537      1.0  0.90182  0.44477  0.06033  1.0000
  C   C314      1.0  0.94116  0.25927  0.07830  1.0000
  H   H538      1.0  0.13222  0.19053  0.27746  1.0000
  H   H539      1.0  0.13796  0.61483  0.24056  1.0000
  C   C315      1.0  0.09693  0.65583  0.10577  1.0000
  H   H540      1.0  0.00477  0.52018  0.24653  1.0000
  C   C316      1.0  0.90747  0.24007  0.17403  1.0000
  H   H541      1.0  0.33712  0.25349  0.10575  1.0000
  S   S94       1.0  0.14716  0.43851  0.24117  1.0000
  H   H542      1.0  0.09278  0.61248  0.29946  1.0000
  N   N21       1.0  0.27990  0.55290  0.27613  1.0000
  H   H543      1.0  0.07989  0.33550  0.23593  1.0000
  H   H544      1.0  0.31237  0.40532  0.21093  1.0000
  N   N22       1.0  0.24468  0.30865  0.08368  1.0000
  C   C317      1.0  0.30960  0.21072  0.22779  1.0000
  C   C318      1.0  0.14891  0.34299  0.08842  1.0000
  Fe  Fe46      1.0  0.02855  0.66835  0.07839  1.0000
  H   H545      1.0  0.92331  0.50120  0.26213  1.0000
  H   H546      1.0  0.24273  0.53404  0.20131  1.0000
  C   C319      1.0  0.05155  0.53922  0.07781  1.0000
  S   S95       1.0  0.24580  0.44839  0.24525  1.0000
  H   H547      1.0  0.32246  0.24293  0.22021  1.0000
  H   H548      1.0  0.27359  0.37577  0.12987  1.0000
  Fe  Fe47      1.0  0.95425  0.66062  0.08924  1.0000
  C   C320      1.0  0.88965  0.54935  0.06121  1.0000
  H   H549      1.0  0.33503  0.53005  0.25539  1.0000
  C   C321      1.0  0.33474  0.61563  0.06225  1.0000
  H   H550      1.0  0.35669  0.36602  0.27989  1.0000
  H   H551      1.0  0.28755  0.18093  0.27836  1.0000
  H   H552      1.0  0.16292  0.65484  0.29817  1.0000
  H   H553      1.0  0.91411  0.43082  0.30390  1.0000
  H   H554      1.0  0.11990  0.49580  0.30613  1.0000
  H   H555      1.0  0.09442  0.53398  0.30323  1.0000
  C   C322      1.0  0.13837  0.52414  0.30785  1.0000
  H   H556      1.0  0.27839  0.49844  0.34978  1.0000
  H   H557      1.0  0.86641  0.43847  0.41300  1.0000
  C   C323      1.0  0.25729  0.50262  0.33256  1.0000
  Fe  Fe48      1.0  0.93580  0.28659  0.48521  1.0000
  H   H558      1.0  0.93083  0.24235  0.33689  1.0000
  H   H559      1.0  0.17594  0.60067  0.35980  1.0000
  H   H560      1.0  0.15070  0.51253  0.34025  1.0000
  H   H561      1.0  0.04094  0.29773  0.37667  1.0000
  H   H562      1.0  0.18379  0.57497  0.33493  1.0000
  H   H563      1.0  0.14847  0.57697  0.50466  1.0000
  H   H564      1.0  0.97134  0.17663  0.35521  1.0000
  H   H565      1.0  0.94582  0.19156  0.38100  1.0000
  C   C324      1.0  0.13897  0.52619  0.43085  1.0000
  H   H566      1.0  0.07647  0.52714  0.41641  1.0000
  H   H567      1.0  0.04887  0.56457  0.37422  1.0000
  C   C325      1.0  0.15939  0.57013  0.36210  1.0000
  H   H568      1.0  0.95386  0.60043  0.42869  1.0000
  S   S96       1.0  0.99282  0.54568  0.49899  1.0000
  H   H569      1.0  0.90908  0.62765  0.44081  1.0000
  S   S97       1.0  0.94963  0.32955  0.51402  1.0000
  N   N23       1.0  0.09503  0.25895  0.42531  1.0000
  H   H570      1.0  0.14524  0.29118  0.34469  1.0000
  H   H571      1.0  0.12627  0.60806  0.52369  1.0000
  H   H572      1.0  0.10114  0.30868  0.33628  1.0000
  H   H573      1.0  0.92273  0.51149  0.38797  1.0000
  C   C326      1.0  0.18005  0.64541  0.53431  1.0000
  H   H574      1.0  0.17819  0.34790  0.34902  1.0000
  H   H575      1.0  0.35906  0.24966  0.31413  1.0000
  C   C327      1.0  0.23650  0.60321  0.51866  1.0000
  H   H576      1.0  0.11848  0.52291  0.46270  1.0000
  H   H577      1.0  0.89188  0.33514  0.45503  1.0000
  H   H578      1.0  0.08039  0.40604  0.54916  1.0000
  H   H579      1.0  0.26729  0.62847  0.51068  1.0000
  H   H580      1.0  0.89310  0.65309  0.35359  1.0000
  S   S98       1.0  0.07019  0.41005  0.44750  1.0000
  C   C328      1.0  0.07274  0.18318  0.52815  1.0000
  C   C329      1.0  0.10935  0.37488  0.47899  1.0000
  H   H581      1.0  0.11183  0.58514  0.38545  1.0000
  C   C330      1.0  0.89265  0.66503  0.37992  1.0000
  C   C331      1.0  0.33979  0.49958  0.39422  1.0000
  C   C332      1.0  0.28355  0.66635  0.31986  1.0000
  Fe  Fe49      1.0  0.26767  0.38919  0.47514  1.0000
  H   H582      1.0  0.24176  0.22726  0.51147  1.0000
  S   S99       1.0  0.18335  0.23834  0.52012  1.0000
  S   S100      1.0  0.30544  0.58956  0.49776  1.0000
  H   H583      1.0  0.30805  0.51803  0.48285  1.0000
  H   H584      1.0  0.06180  0.65009  0.33593  1.0000
  C   C333      1.0  0.20538  0.65261  0.44399  1.0000
  H   H585      1.0  0.14295  0.35886  0.34932  1.0000
  C   C334      1.0  0.89814  0.44301  0.52035  1.0000
  C   C335      1.0  0.09402  0.39326  0.48989  1.0000
  C   C336      1.0  0.95001  0.18377  0.35059  1.0000
  C   C337      1.0  0.09891  0.56377  0.37115  1.0000
  H   H586      1.0  0.09264  0.65349  0.50102  1.0000
  H   H587      1.0  0.10882  0.37387  0.44134  1.0000
  H   H588      1.0  0.06759  0.19060  0.41637  1.0000
  C   C338      1.0  0.12425  0.35656  0.51806  1.0000
  C   C339      1.0  0.25108  0.21027  0.54499  1.0000
  C   C340      1.0  0.11058  0.53020  0.33234  1.0000
  C   C341      1.0  0.05293  0.28569  0.40946  1.0000
  H   H589      1.0  0.08626  0.49626  0.38005  1.0000
  N   N24       1.0  0.21021  0.64740  0.49983  1.0000
  H   H590      1.0  0.20880  0.44491  0.42835  1.0000
  S   S101      1.0  0.11111  0.64857  0.40549  1.0000
  H   H591      1.0  0.92987  0.54641  0.30997  1.0000
  S   S102      1.0  0.20418  0.34566  0.48893  1.0000
  C   C342      1.0  0.29194  0.24910  0.53343  1.0000
  C   C343      1.0  0.88964  0.23866  0.42989  1.0000
  C   C344      1.0  0.17326  0.60722  0.45625  1.0000
  H   H592      1.0  0.22037  0.25625  0.33310  1.0000
  S   S103      1.0  0.99577  0.30311  0.46267  1.0000
  H   H593      1.0  0.23470  0.67014  0.40774  1.0000
  C   C345      1.0  0.15480  0.34315  0.37804  1.0000
  S   S104      1.0  0.95475  0.43114  0.52649  1.0000
  C   C346      1.0  0.89843  0.21002  0.46546  1.0000
  H   H594      1.0  0.19835  0.67620  0.42083  1.0000
  H   H595      1.0  0.98896  0.39126  0.32827  1.0000
  H   H596      1.0  0.06005  0.55449  0.32394  1.0000
  H   H597      1.0  0.92034  0.22091  0.48200  1.0000
  H   H598      1.0  0.23263  0.50038  0.40705  1.0000
  H   H599      1.0  0.09651  0.24055  0.33405  1.0000
  C   C347      1.0  0.32878  0.52266  0.45087  1.0000
  C   C348      1.0  0.12115  0.29142  0.43675  1.0000
  H   H600      1.0  0.98043  0.60692  0.36878  1.0000
  H   H601      1.0  0.02324  0.64472  0.41002  1.0000
  H   H602      1.0  0.24513  0.47996  0.32012  1.0000
  C   C349      1.0  0.27900  0.20149  0.47717  1.0000
  C   C350      1.0  0.06082  0.21174  0.48810  1.0000
  H   H603      1.0  0.17046  0.36341  0.39301  1.0000
  H   H604      1.0  0.29271  0.24215  0.37861  1.0000
  H   H605      1.0  0.92150  0.47715  0.50491  1.0000
  S   S105      1.0  0.33703  0.67131  0.53603  1.0000
  C   C351      1.0  0.01659  0.66350  0.37263  1.0000
  Fe  Fe50      1.0  0.98536  0.48123  0.54360  1.0000
  C   C352      1.0  0.91936  0.51150  0.34909  1.0000
  H   H606      1.0  0.09850  0.20329  0.53438  1.0000
  C   C353      1.0  0.89470  0.51705  0.55262  1.0000
  H   H607      1.0  0.31102  0.22619  0.46623  1.0000
  C   C354      1.0  0.94680  0.63507  0.51482  1.0000
  C   C355      1.0  0.27169  0.22834  0.42290  1.0000
  H   H608      1.0  0.28922  0.32700  0.41407  1.0000
  S   S106      1.0  0.91306  0.29140  0.41438  1.0000
  H   H609      1.0  0.97267  0.64171  0.52603  1.0000
  C   C356      1.0  0.87437  0.47168  0.37283  1.0000
  H   H610      1.0  0.33280  0.35479  0.42475  1.0000
  H   H611      1.0  0.28912  0.27280  0.53346  1.0000
  H   H612      1.0  0.13859  0.24839  0.41540  1.0000
  H   H613      1.0  0.94384  0.61872  0.49410  1.0000
  Fe  Fe51      1.0  0.33709  0.56075  0.52761  1.0000
  H   H614      1.0  0.15845  0.61429  0.42593  1.0000
  H   H615      1.0  0.03534  0.18949  0.48311  1.0000
  C   C357      1.0  0.87329  0.52332  0.51840  1.0000
  H   H616      1.0  0.12186  0.49383  0.43749  1.0000
  H   H617      1.0  0.22687  0.56809  0.55336  1.0000
  H   H618      1.0  0.27813  0.25877  0.41545  1.0000
  Fe  Fe52      1.0  0.05461  0.57925  0.49450  1.0000
  S   S107      1.0  0.04944  0.51720  0.52961  1.0000
  C   C358      1.0  0.87607  0.36922  0.55356  1.0000
  H   H619      1.0  0.91690  0.51531  0.53797  1.0000
  C   C359      1.0  0.97718  0.62652  0.37918  1.0000
  C   C360      1.0  0.89235  0.42752  0.33382  1.0000
  Fe  Fe53      1.0  0.00816  0.34228  0.49647  1.0000
  H   H620      1.0  0.10230  0.29019  0.46788  1.0000
  H   H621      1.0  0.88004  0.52767  0.47647  1.0000
  H   H622      1.0  0.18834  0.59717  0.44186  1.0000
  C   C361      1.0  0.31331  0.49457  0.43468  1.0000
  H   H623      1.0  0.96497  0.64182  0.35083  1.0000
  H   H624      1.0  0.32565  0.40995  0.34224  1.0000
  H   H625      1.0  0.31718  0.27045  0.48768  1.0000
  H   H626      1.0  0.28076  0.46848  0.45438  1.0000
  C   C362      1.0  0.09864  0.22293  0.37821  1.0000
  H   H627      1.0  0.90266  0.42879  0.36834  1.0000
  C   C363      1.0  0.12101  0.25639  0.39149  1.0000
  H   H628      1.0  0.33225  0.33414  0.38342  1.0000
  H   H629      1.0  0.16304  0.52903  0.44536  1.0000
  S   S108      1.0  0.26918  0.33071  0.52171  1.0000
  C   C364      1.0  0.90636  0.41319  0.53455  1.0000
  H   H630      1.0  0.23798  0.60910  0.47492  1.0000
  C   C365      1.0  0.20589  0.60500  0.54568  1.0000
  C   C366      1.0  0.33966  0.39821  0.32958  1.0000
  H   H631      1.0  0.93984  0.50649  0.33502  1.0000
  H   H632      1.0  0.11550  0.21131  0.37407  1.0000
  H   H633      1.0  0.13508  0.34135  0.51059  1.0000
  H   H634      1.0  0.26882  0.62966  0.35302  1.0000
  H   H635      1.0  0.96060  0.29708  0.31996  1.0000
  H   H636      1.0  0.24049  0.20564  0.42970  1.0000
  H   H637      1.0  0.07219  0.31381  0.41118  1.0000
  S   S109      1.0  0.32035  0.45910  0.38299  1.0000
  C   C367      1.0  0.22205  0.48132  0.38929  1.0000
  H   H638      1.0  0.19714  0.47954  0.37866  1.0000
  H   H639      1.0  0.87015  0.60855  0.52863  1.0000
  N   N25       1.0  0.13131  0.56992  0.33307  1.0000
  H   H640      1.0  0.13687  0.28032  0.46188  1.0000
  C   C368      1.0  0.07715  0.27625  0.38520  1.0000
  S   S110      1.0  0.23031  0.33278  0.31211  1.0000
  C   C369      1.0  0.88261  0.64481  0.50440  1.0000
  H   H641      1.0  0.02649  0.25367  0.45633  1.0000
  H   H642      1.0  0.99840  0.26774  0.33033  1.0000
  H   H643      1.0  0.05599  0.25045  0.38054  1.0000
  C   C370      1.0  0.32305  0.35107  0.39133  1.0000
  H   H644      1.0  0.31230  0.57073  0.32559  1.0000
  H   H645      1.0  0.04687  0.21548  0.51730  1.0000
  C   C371      1.0  0.92081  0.66415  0.41087  1.0000
  C   C372      1.0  0.88100  0.65018  0.55439  1.0000
  C   C373      1.0  0.07402  0.57461  0.33958  1.0000
  C   C374      1.0  0.09342  0.39319  0.53968  1.0000
  Fe  Fe54      1.0  0.20406  0.28577  0.54231  1.0000
  H   H646      1.0  0.12082  0.46458  0.55514  1.0000
  H   H647      1.0  0.27661  0.57923  0.32200  1.0000
  H   H648      1.0  0.22056  0.22728  0.67372  1.0000
  H   H649      1.0  0.92405  0.31695  0.69288  1.0000
  S   S111      1.0  0.17971  0.26626  0.63533  1.0000
  S   S112      1.0  0.19018  0.48213  0.57323  1.0000
  H   H650      1.0  0.99859  0.33747  0.75868  1.0000
  H   H651      1.0  0.09951  0.20549  0.63156  1.0000
  C   C375      1.0  0.04930  0.53719  0.78621  1.0000
  C   C376      1.0  0.08841  0.34482  0.75349  1.0000
  S   S113      1.0  0.97631  0.18873  0.60699  1.0000
  H   H652      1.0  0.23238  0.66271  0.80069  1.0000
  H   H653      1.0  0.04568  0.22982  0.64447  1.0000
  C   C377      1.0  0.27452  0.62018  0.79211  1.0000
  H   H654      1.0  0.14919  0.35494  0.69838  1.0000
  C   C378      1.0  0.88536  0.32260  0.73217  1.0000
  S   S114      1.0  0.13914  0.33087  0.62040  1.0000
  H   H655      1.0  0.12669  0.57916  0.76464  1.0000
  H   H656      1.0  0.11145  0.38324  0.72241  1.0000
  C   C379      1.0  0.98579  0.34642  0.72551  1.0000
  S   S115      1.0  0.89020  0.23011  0.71102  1.0000
  C   C380      1.0  0.12355  0.35647  0.56805  1.0000
  H   H657      1.0  0.27249  0.64783  0.76331  1.0000
  C   C381      1.0  0.08630  0.46845  0.66270  1.0000
  C   C382      1.0  0.14509  0.17836  0.58239  1.0000
  Fe  Fe55      1.0  0.92401  0.26404  0.61122  1.0000
  Fe  Fe56      1.0  0.35161  0.21387  0.64286  1.0000
  H   H658      1.0  0.06744  0.23909  0.71468  1.0000
  H   H659      1.0  0.12374  0.52975  0.80811  1.0000
  C   C383      1.0  0.10833  0.37503  0.57854  1.0000
  S   S116      1.0  0.04827  0.46749  0.69273  1.0000
  H   H660      1.0  0.11239  0.47242  0.72425  1.0000
  C   C384      1.0  0.91794  0.27102  0.80858  1.0000
  C   C385      1.0  0.14712  0.47696  0.65856  1.0000
  S   S117      1.0  0.25306  0.53156  0.64611  1.0000
  C   C386      1.0  0.99367  0.33442  0.68571  1.0000
  C   C387      1.0  0.16634  0.39994  0.79793  1.0000
  C   C388      1.0  0.05388  0.66131  0.59485  1.0000
  C   C389      1.0  0.11976  0.46803  0.59038  1.0000
  H   H661      1.0  0.88248  0.34619  0.56478  1.0000
  C   C390      1.0  0.06596  0.20839  0.73953  1.0000
  S   S118      1.0  0.15366  0.67258  0.61694  1.0000
  H   H662      1.0  0.09432  0.24250  0.57017  1.0000
  H   H663      1.0  0.15582  0.57038  0.69858  1.0000
  C   C391      1.0  0.27456  0.62134  0.64697  1.0000
  C   C392      1.0  0.24491  0.19209  0.69640  1.0000
  S   S119      1.0  0.04721  0.63007  0.71113  1.0000
  Fe  Fe57      1.0  0.24478  0.31560  0.61070  1.0000
  H   H664      1.0  0.98768  0.20323  0.70463  1.0000
  H   H665      1.0  0.26722  0.37028  0.74248  1.0000
  C   C393      1.0  0.29616  0.48610  0.78980  1.0000
  H   H666      1.0  0.14723  0.18182  0.65600  1.0000
  S   S120      1.0  0.95988  0.45319  0.64191  1.0000
  H   H667      1.0  0.02522  0.55015  0.71859  1.0000
  H   H668      1.0  0.00404  0.49094  0.77345  1.0000
  H   H669      1.0  0.95655  0.38136  0.75139  1.0000
  H   H670      1.0  0.20929  0.60265  0.58627  1.0000
  H   H671      1.0  0.05411  0.53399  0.70945  1.0000
  C   C394      1.0  0.24554  0.65113  0.66561  1.0000
  C   C395      1.0  0.12275  0.55164  0.72003  1.0000
  H   H672      1.0  0.12217  0.29444  0.76104  1.0000
  C   C396      1.0  0.31199  0.53237  0.75380  1.0000
  H   H673      1.0  0.35624  0.49101  0.58931  1.0000
  S   S121      1.0  0.03267  0.55740  0.58999  1.0000
  C   C397      1.0  0.17096  0.38612  0.75934  1.0000
  H   H674      1.0  0.29661  0.63275  0.80904  1.0000
  N   N26       1.0  0.13879  0.33552  0.79002  1.0000
  C   C398      1.0  0.30042  0.22060  0.72149  1.0000
  H   H675      1.0  0.33622  0.39532  0.72144  1.0000
  H   H676      1.0  0.99025  0.35121  0.64265  1.0000
  H   H677      1.0  0.27480  0.59323  0.66375  1.0000
  H   H678      1.0  0.28156  0.40584  0.66030  1.0000
  N   N27       1.0  0.36180  0.43791  0.61979  1.0000
  Fe  Fe58      1.0  0.31312  0.60173  0.56594  1.0000
  C   C399      1.0  0.33109  0.55773  0.77312  1.0000
  H   H679      1.0  0.32747  0.44160  0.56694  1.0000
  C   C400      1.0  0.29723  0.25257  0.71482  1.0000
  H   H680      1.0  0.28680  0.61701  0.76056  1.0000
  C   C401      1.0  0.04847  0.20251  0.66198  1.0000
  C   C402      1.0  0.11482  0.47240  0.68580  1.0000
  S   S122      1.0  0.91997  0.51472  0.64062  1.0000
  C   C403      1.0  0.34746  0.43251  0.57506  1.0000
  S   S123      1.0  0.27471  0.45559  0.76346  1.0000
  S   S124      1.0  0.24862  0.37774  0.56298  1.0000
  H   H681      1.0  0.00303  0.20812  0.76040  1.0000
  H   H682      1.0  0.32308  0.21918  0.73382  1.0000
  C   C404      1.0  0.92676  0.33474  0.71153  1.0000
  Fe  Fe59      1.0  0.28795  0.50632  0.66527  1.0000
  H   H683      1.0  0.21401  0.37655  0.69445  1.0000
  C   C405      1.0  0.03265  0.52739  0.74453  1.0000
  S   S125      1.0  0.20814  0.64051  0.71609  1.0000
  H   H684      1.0  0.08667  0.33369  0.72554  1.0000
  Fe  Fe60      1.0  0.18496  0.32977  0.58046  1.0000
  H   H685      1.0  0.05847  0.33488  0.77294  1.0000
  H   H686      1.0  0.06559  0.45965  0.59980  1.0000
  H   H687      1.0  0.30955  0.54874  0.71104  1.0000
  S   S126      1.0  0.34857  0.57742  0.59044  1.0000
  C   C406      1.0  0.04007  0.65735  0.64584  1.0000
  S   S127      1.0  0.27904  0.48732  0.60462  1.0000
  C   C407      1.0  0.98437  0.18354  0.75289  1.0000
  H   H688      1.0  0.11757  0.57391  0.68544  1.0000
  C   C408      1.0  0.14736  0.33015  0.74305  1.0000
  C   C409      1.0  0.30401  0.66481  0.58748  1.0000
  H   H689      1.0  0.36057  0.25563  0.79080  1.0000
  Fe  Fe61      1.0  0.96993  0.51921  0.59735  1.0000
  H   H690      1.0  0.97350  0.29624  0.71266  1.0000
  S   S128      1.0  0.98418  0.28096  0.59495  1.0000
  H   H691      1.0  0.25738  0.54345  0.80293  1.0000
  H   H692      1.0  0.18538  0.64375  0.57356  1.0000
  H   H693      1.0  0.18800  0.32925  0.69464  1.0000
  Fe  Fe62      1.0  0.02472  0.49351  0.62526  1.0000
  S   S129      1.0  0.90473  0.21998  0.58385  1.0000
  H   H694      1.0  0.19066  0.31791  0.76430  1.0000
  H   H695      1.0  0.20162  0.39619  0.74800  1.0000
  H   H696      1.0  0.09755  0.22246  0.71776  1.0000
  H   H697      1.0  0.06461  0.64302  0.59878  1.0000
  C   C410      1.0  0.11047  0.54379  0.78030  1.0000
  H   H698      1.0  0.30439  0.43220  0.69407  1.0000
  N   N28       1.0  0.94200  0.32309  0.75999  1.0000
  H   H699      1.0  0.19159  0.43785  0.76982  1.0000
  C   C411      1.0  0.29321  0.40268  0.69512  1.0000
  C   C412      1.0  0.24257  0.22516  0.68762  1.0000
  H   H700      1.0  0.02562  0.34842  0.66971  1.0000
  H   H701      1.0  0.29977  0.23489  0.57173  1.0000
  C   C413      1.0  0.24508  0.61435  0.68551  1.0000
  H   H702      1.0  0.22833  0.19167  0.59154  1.0000
  C   C414      1.0  0.27464  0.19085  0.71159  1.0000
  H   H703      1.0  0.00494  0.38506  0.69359  1.0000
  C   C415      1.0  0.08849  0.46534  0.61572  1.0000
  C   C416      1.0  0.88826  0.51457  0.60427  1.0000
  H   H704      1.0  0.17293  0.40942  0.71341  1.0000
  H   H705      1.0  0.10652  0.51869  0.72870  1.0000
  H   H706      1.0  0.94917  0.37280  0.67002  1.0000
  H   H707      1.0  0.16930  0.48078  0.67588  1.0000
  C   C417      1.0  0.18738  0.33902  0.72386  1.0000
  C   C418      1.0  0.26906  0.25569  0.69629  1.0000
  H   H708      1.0  0.34319  0.59336  0.74525  1.0000
  H   H709      1.0  0.07278  0.57574  0.75631  1.0000
  H   H710      1.0  0.31740  0.27577  0.72221  1.0000
  H   H711      1.0  0.31060  0.36487  0.69644  1.0000
  C   C419      1.0  0.32624  0.39910  0.68464  1.0000
  H   H712      1.0  0.10813  0.37549  0.61663  1.0000
  C   C420      1.0  0.09175  0.22830  0.61764  1.0000
  H   H713      1.0  0.22168  0.58029  0.73063  1.0000
  C   C421      1.0  0.14995  0.47552  0.60996  1.0000
  Fe  Fe63      1.0  0.11471  0.67424  0.67054  1.0000
  S   S130      1.0  0.26936  0.30016  0.67921  1.0000
  H   H714      1.0  0.89878  0.64342  0.57845  1.0000
  H   H715      1.0  0.11429  0.25864  0.61338  1.0000
  H   H716      1.0  0.32818  0.39567  0.59516  1.0000
  H   H717      1.0  0.90849  0.25473  0.78695  1.0000
  H   H718      1.0  0.29547  0.18176  0.57416  1.0000
  C   C422      1.0  0.94155  0.34392  0.78874  1.0000
  H   H719      1.0  0.99626  0.36845  0.80314  1.0000
  Fe  Fe64      1.0  0.24796  0.51745  0.58007  1.0000
  H   H720      1.0  0.88017  0.33630  0.69022  1.0000
  H   H721      1.0  0.02704  0.17952  0.65406  1.0000
  H   H722      1.0  0.12562  0.57029  0.59612  1.0000
  H   H723      1.0  0.18116  0.19457  0.79444  1.0000
  H   H724      1.0  0.87794  0.42115  0.77965  1.0000
  H   H725      1.0  0.04260  0.46727  0.79886  1.0000
  H   H726      1.0  0.88410  0.33896  0.75087  1.0000
  C   C423      1.0  0.05486  0.18807  0.80817  1.0000
  H   H727      1.0  0.11626  0.60776  0.58605  1.0000
  Fe  Fe65      1.0  0.96609  0.24002  0.56307  1.0000
  H   H728      1.0  0.36098  0.35921  0.69330  1.0000
  C   C424      1.0  0.09658  0.32007  0.80794  1.0000
  H   H729      1.0  0.13767  0.39400  0.80924  1.0000
  C   C425      1.0  0.13473  0.60515  0.56135  1.0000
  H   H730      1.0  0.17522  0.57203  0.56721  1.0000
  H   H731      1.0  0.91938  0.60994  0.56002  1.0000
  H   H732      1.0  0.54321  0.06907  0.96763  1.0000
  C   C426      1.0  0.41248  0.69524  0.01740  1.0000
  C   C427      1.0  0.43783  0.02795  0.99289  1.0000
  H   H733      1.0  0.58962  0.15303  0.89220  1.0000
  C   C428      1.0  0.58531  0.81312  0.82727  1.0000
  H   H734      1.0  0.76516  0.79672  0.01857  1.0000
  S   S131      1.0  0.86152  0.83168  0.83263  1.0000
  H   H735      1.0  0.44249  0.72594  0.00039  1.0000
  H   H736      1.0  0.78295  0.87257  0.01907  1.0000
  H   H737      1.0  0.70912  0.99080  0.03649  1.0000
  H   H738      1.0  0.85408  0.88566  0.00448  1.0000
  C   C429      1.0  0.83556  0.98015  0.01556  1.0000
  S   S132      1.0  0.47625  0.73649  0.83662  1.0000
  C   C430      1.0  0.46788  0.97454  0.82825  1.0000
  H   H739      1.0  0.75388  0.84910  0.98667  1.0000
  H   H740      1.0  0.46350  0.94536  0.97061  1.0000
  N   N29       1.0  0.62395  0.73514  0.83827  1.0000
  C   C431      1.0  0.75050  0.72294  0.88279  1.0000
  S   S133      1.0  0.80856  0.02088  0.02965  1.0000
  C   C432      1.0  0.78524  0.75208  0.88398  1.0000
  H   H741      1.0  0.50135  0.85868  0.88359  1.0000
  H   H742      1.0  0.39773  0.77907  0.84503  1.0000
  C   C433      1.0  0.85937  0.05372  0.92074  1.0000
  C   C434      1.0  0.72327  0.09949  0.02462  1.0000
  H   H743      1.0  0.79914  0.79353  0.98698  1.0000
  H   H744      1.0  0.43636  0.83621  0.84979  1.0000
  C   C435      1.0  0.59759  0.13816  0.93032  1.0000
  H   H745      1.0  0.84772  0.72015  0.83396  1.0000
  H   H746      1.0  0.64525  0.16668  0.97866  1.0000
  H   H747      1.0  0.54012  0.07524  0.86485  1.0000
  H   H748      1.0  0.72477  0.68873  0.92630  1.0000
  C   C436      1.0  0.59364  0.68291  0.88989  1.0000
  H   H749      1.0  0.85376  0.74411  0.97277  1.0000
  H   H750      1.0  0.43836  0.00448  0.82169  1.0000
  H   H751      1.0  0.67133  0.73422  0.85913  1.0000
  H   H752      1.0  0.73063  0.97335  0.90066  1.0000
  C   C437      1.0  0.42601  0.89094  0.96851  1.0000
  C   C438      1.0  0.53048  0.04133  0.88073  1.0000
  C   C439      1.0  0.44354  0.07769  0.01301  1.0000
  H   H753      1.0  0.42731  0.03951  0.91343  1.0000
  N   N30       1.0  0.82760  0.86210  0.95576  1.0000
  S   S134      1.0  0.65872  0.68366  0.01377  1.0000
  C   C440      1.0  0.61249  0.14259  0.01152  1.0000
  C   C441      1.0  0.41728  0.77435  0.82757  1.0000
  S   S135      1.0  0.43327  0.14166  0.94313  1.0000
  C   C442      1.0  0.43697  0.09931  0.96170  1.0000
  H   H754      1.0  0.55866  0.04697  0.86570  1.0000
  H   H755      1.0  0.44793  0.08828  0.04081  1.0000
  C   C443      1.0  0.77644  0.81949  0.92567  1.0000
  H   H756      1.0  0.63090  0.15806  0.90672  1.0000
  H   H757      1.0  0.61224  0.15660  0.03475  1.0000
  S   S136      1.0  0.43583  0.98186  0.01261  1.0000
  H   H758      1.0  0.78060  0.90862  0.95150  1.0000
  C   C444      1.0  0.83343  0.85269  0.01287  1.0000
  H   H759      1.0  0.60850  0.01800  0.05254  1.0000
  N   N31       1.0  0.58783  0.14405  0.97607  1.0000
  H   H760      1.0  0.86035  0.89038  0.86263  1.0000
  S   S137      1.0  0.39313  0.75155  0.97156  1.0000
  H   H761      1.0  0.63103  0.77009  0.92737  1.0000
  H   H762      1.0  0.86212  0.75150  0.02984  1.0000
  H   H763      1.0  0.75082  0.78348  0.94527  1.0000
  H   H764      1.0  0.76445  0.83815  0.91424  1.0000
  H   H765      1.0  0.60866  0.71207  0.96094  1.0000
  C   C445      1.0  0.83555  0.01745  0.98571  1.0000
  C   C446      1.0  0.57586  0.08797  0.95633  1.0000
  H   H766      1.0  0.85053  0.78247  0.97325  1.0000
  H   H767      1.0  0.57889  0.06775  0.99754  1.0000
  H   H768      1.0  0.66231  0.75987  0.90611  1.0000
  H   H769      1.0  0.42927  0.94873  0.94343  1.0000
  H   H770      1.0  0.81954  0.90739  0.88528  1.0000
  C   C447      1.0  0.74910  0.73776  0.82581  1.0000
  H   H771      1.0  0.51033  0.82323  0.82012  1.0000
  N   N32       1.0  0.70320  0.05133  0.04688  1.0000
  C   C448      1.0  0.49526  0.83465  0.83044  1.0000
  C   C449      1.0  0.43150  0.08573  0.92567  1.0000
  C   C450      1.0  0.63149  0.74896  0.91730  1.0000
  H   H772      1.0  0.78645  0.73979  0.92803  1.0000
  H   H773      1.0  0.66611  0.98594  0.02686  1.0000
  H   H774      1.0  0.58916  0.74413  0.88045  1.0000
  C   C451      1.0  0.44373  0.04166  0.02891  1.0000
  H   H775      1.0  0.52545  0.97049  0.90641  1.0000
  C   C452      1.0  0.78222  0.88023  0.97496  1.0000
  S   S138      1.0  0.74690  0.69631  0.05715  1.0000
  H   H776      1.0  0.86165  0.95192  0.00561  1.0000
  H   H777      1.0  0.52612  0.11287  0.99021  1.0000
  H   H778      1.0  0.84674  0.92942  0.91872  1.0000
  H   H779      1.0  0.82939  0.79178  0.04879  1.0000
  H   H780      1.0  0.71548  0.07723  0.95190  1.0000
  C   C453      1.0  0.52123  0.86528  0.84605  1.0000
  C   C454      1.0  0.54368  0.77953  0.84933  1.0000
  C   C455      1.0  0.51448  0.97077  0.87149  1.0000
  H   H781      1.0  0.58970  0.08940  0.91967  1.0000
  C   C456      1.0  0.82068  0.89666  0.93039  1.0000
  H   H782      1.0  0.79962  0.00116  0.83199  1.0000
  Fe  Fe66      1.0  0.43592  0.15404  0.01125  1.0000
  H   H783      1.0  0.71968  0.11937  0.98333  1.0000
  C   C457      1.0  0.54265  0.10850  0.01868  1.0000
  H   H784      1.0  0.40065  0.75433  0.81278  1.0000
  C   C458      1.0  0.45084  0.94251  0.93858  1.0000
  H   H785      1.0  0.61920  0.09013  0.04044  1.0000
  C   C459      1.0  0.64160  0.03844  0.02627  1.0000
  H   H786      1.0  0.57343  0.99924  0.81299  1.0000
  H   H787      1.0  0.78721  0.13597  0.96747  1.0000
  H   H788      1.0  0.77270  0.16374  0.87855  1.0000
  C   C460      1.0  0.38248  0.69838  0.00809  1.0000
  H   H789      1.0  0.52315  0.75463  0.89897  1.0000
  H   H790      1.0  0.77903  0.07022  0.84698  1.0000
  C   C461      1.0  0.74623  0.99344  0.84948  1.0000
  H   H791      1.0  0.54052  0.85674  0.86238  1.0000
  C   C462      1.0  0.62064  0.75716  0.86296  1.0000
  C   C463      1.0  0.71900  0.05589  0.99204  1.0000
  H   H792      1.0  0.42062  0.75220  0.86682  1.0000
  H   H793      1.0  0.65658  0.07591  0.99698  1.0000
  H   H794      1.0  0.49967  0.93563  0.88650  1.0000
  H   H795      1.0  0.77576  0.11697  0.04543  1.0000
  C   C464      1.0  0.76927  0.13073  0.00514  1.0000
  H   H796      1.0  0.39579  0.86973  0.00659  1.0000
  H   H797      1.0  0.80011  0.83563  0.88210  1.0000
  C   C465      1.0  0.69976  0.00950  0.00579  1.0000
  H   H798      1.0  0.42626  0.10231  0.88632  1.0000
  H   H799      1.0  0.64011  0.79540  0.82490  1.0000
  C   C466      1.0  0.66598  0.75043  0.81797  1.0000
  H   H800      1.0  0.75225  0.07505  0.97369  1.0000
  H   H801      1.0  0.53057  0.07232  0.04419  1.0000
  H   H802      1.0  0.78063  0.16581  0.98656  1.0000
  H   H803      1.0  0.41924  0.88482  0.93566  1.0000
  H   H804      1.0  0.46764  0.80155  0.87539  1.0000
  C   C467      1.0  0.81842  0.79683  0.82859  1.0000
  C   C468      1.0  0.84934  0.82587  0.03753  1.0000
  H   H805      1.0  0.48026  0.02896  0.86060  1.0000
  C   C469      1.0  0.79164  0.81648  0.97500  1.0000
  H   H806      1.0  0.64473  0.03054  0.99551  1.0000
  H   H807      1.0  0.80029  0.02870  0.86003  1.0000
  C   C470      1.0  0.43138  0.97322  0.83126  1.0000
  C   C471      1.0  0.43205  0.05025  0.94107  1.0000
  H   H808      1.0  0.80422  0.83175  0.05295  1.0000
  H   H809      1.0  0.40411  0.94127  0.87703  1.0000
  S   S139      1.0  0.70663  0.69839  0.82537  1.0000
  N   N33       1.0  0.48430  0.97851  0.87228  1.0000
  H   H810      1.0  0.51379  0.01618  0.93262  1.0000
  H   H811      1.0  0.39410  0.06625  0.82717  1.0000
  C   C472      1.0  0.50390  0.02640  0.85075  1.0000
  H   H812      1.0  0.59701  0.81386  0.85991  1.0000
  H   H813      1.0  0.71095  0.01730  0.96095  1.0000
  C   C473      1.0  0.86079  0.98012  0.98166  1.0000
  H   H814      1.0  0.45938  0.94352  0.83486  1.0000
  H   H815      1.0  0.85962  0.08277  0.89727  1.0000
  H   H816      1.0  0.73510  0.96865  0.84067  1.0000
  C   C474      1.0  0.86449  0.88219  0.90515  1.0000
  H   H817      1.0  0.55332  0.71945  0.83856  1.0000
  H   H818      1.0  0.53334  0.14206  0.04861  1.0000
  H   H819      1.0  0.73633  0.01391  0.82748  1.0000
  H   H820      1.0  0.44159  0.87750  0.98880  1.0000
  C   C475      1.0  0.79277  0.02374  0.82614  1.0000
  H   H821      1.0  0.83397  0.17646  0.83516  1.0000
  C   C476      1.0  0.73468  0.78412  0.20216  1.0000
  H   H822      1.0  0.64740  0.02581  0.10836  1.0000
  C   C477      1.0  0.85860  0.06079  0.10743  1.0000
  H   H823      1.0  0.86007  0.08536  0.06329  1.0000
  H   H824      1.0  0.49511  0.08028  0.09965  1.0000
  H   H825      1.0  0.60918  0.09483  0.09826  1.0000
  S   S140      1.0  0.49821  0.97576  0.10546  1.0000
  Fe  Fe67      1.0  0.69938  0.14005  0.13133  1.0000
  C   C478      1.0  0.37630  0.04743  0.28985  1.0000
  H   H826      1.0  0.66944  0.75062  0.14427  1.0000
  Fe  Fe68      1.0  0.46574  0.15847  0.10409  1.0000
  H   H827      1.0  0.84634  0.06129  0.14286  1.0000
  S   S141      1.0  0.63309  0.89836  0.26286  1.0000
  C   C479      1.0  0.58152  0.88959  0.15055  1.0000
  H   H828      1.0  0.41547  0.70645  0.24496  1.0000
  C   C480      1.0  0.56594  0.15760  0.14232  1.0000
  H   H829      1.0  0.85813  0.87894  0.24445  1.0000
  S   S142      1.0  0.49474  0.14159  0.16553  1.0000
  H   H830      1.0  0.85164  0.97717  0.18351  1.0000
  H   H831      1.0  0.81730  0.95200  0.06514  1.0000
  H   H832      1.0  0.84949  0.81831  0.08191  1.0000
  S   S143      1.0  0.75864  0.71320  0.18004  1.0000
  H   H833      1.0  0.51470  0.78160  0.28153  1.0000
  C   C481      1.0  0.70163  0.02227  0.15475  1.0000
  H   H834      1.0  0.43822  0.03502  0.25834  1.0000
  C   C482      1.0  0.69302  0.75538  0.15888  1.0000
  S   S144      1.0  0.52756  0.90067  0.11854  1.0000
  H   H835      1.0  0.69531  0.98976  0.11622  1.0000
  C   C483      1.0  0.44898  0.77062  0.26405  1.0000
  S   S145      1.0  0.70124  0.90574  0.14434  1.0000
  C   C484      1.0  0.84951  0.99450  0.29648  1.0000
  H   H836      1.0  0.77554  0.76931  0.21457  1.0000
  S   S146      1.0  0.67665  0.83497  0.29221  1.0000
  Fe  Fe69      1.0  0.48377  0.90769  0.14862  1.0000
  H   H837      1.0  0.71804  0.05663  0.14254  1.0000
  H   H838      1.0  0.81521  0.83285  0.21796  1.0000
  H   H839      1.0  0.83445  0.80161  0.23958  1.0000
  H   H840      1.0  0.70813  0.09745  0.06118  1.0000
  H   H841      1.0  0.66327  0.08740  0.29263  1.0000
  Fe  Fe70      1.0  0.43905  0.94360  0.10170  1.0000
  H   H842      1.0  0.54299  0.10442  0.10048  1.0000
  H   H843      1.0  0.46889  0.77163  0.23488  1.0000
  H   H844      1.0  0.54955  0.12422  0.18876  1.0000
  H   H845      1.0  0.70897  0.15301  0.28699  1.0000
  H   H846      1.0  0.62503  0.88252  0.17456  1.0000
  H   H847      1.0  0.86266  0.89747  0.30377  1.0000
  H   H848      1.0  0.44003  0.68814  0.28788  1.0000
  C   C485      1.0  0.43043  0.02568  0.30514  1.0000
  Fe  Fe71      1.0  0.39500  0.85061  0.23321  1.0000
  H   H849      1.0  0.44070  0.80264  0.18100  1.0000
  S   S147      1.0  0.40945  0.10148  0.11592  1.0000
  H   H850      1.0  0.76778  0.12257  0.25162  1.0000
  H   H851      1.0  0.40481  0.07483  0.24521  1.0000
  C   C486      1.0  0.58452  0.00148  0.21068  1.0000
  C   C487      1.0  0.75297  0.76612  0.19819  1.0000
  H   H852      1.0  0.64121  0.98582  0.10100  1.0000
  S   S148      1.0  0.40176  0.91404  0.19664  1.0000
  S   S149      1.0  0.42721  0.87777  0.13766  1.0000
  H   H853      1.0  0.70295  0.72108  0.13471  1.0000
  S   S150      1.0  0.67616  0.79354  0.19573  1.0000
  H   H854      1.0  0.71418  0.11535  0.24943  1.0000
  H   H855      1.0  0.75832  0.98985  0.30755  1.0000
  H   H856      1.0  0.39423  0.74896  0.24759  1.0000
  H   H857      1.0  0.43589  0.15466  0.26397  1.0000
  C   C488      1.0  0.84105  0.83426  0.22325  1.0000
  H   H858      1.0  0.41762  0.79892  0.24219  1.0000
  H   H859      1.0  0.58426  0.88489  0.11674  1.0000
  H   H860      1.0  0.68912  0.94472  0.30241  1.0000
  C   C489      1.0  0.60144  0.09521  0.06118  1.0000
  C   C490      1.0  0.54519  0.98451  0.21826  1.0000
  C   C491      1.0  0.55504  0.89714  0.16140  1.0000
  H   H861      1.0  0.81398  0.97246  0.25341  1.0000
  S   S151      1.0  0.68157  0.17562  0.14470  1.0000
  S   S152      1.0  0.65939  0.06190  0.19539  1.0000
  H   H862      1.0  0.74312  0.80127  0.22156  1.0000
  H   H863      1.0  0.52743  0.95841  0.21419  1.0000
  C   C492      1.0  0.41112  0.68158  0.29215  1.0000
  C   C493      1.0  0.52839  0.10954  0.06927  1.0000
  H   H864      1.0  0.54748  0.16236  0.27596  1.0000
  C   C494      1.0  0.69111  0.09414  0.29707  1.0000
  H   H865      1.0  0.59679  0.98805  0.20126  1.0000
  C   C495      1.0  0.52892  0.00151  0.23071  1.0000
  H   H866      1.0  0.81424  0.14923  0.25841  1.0000
  H   H867      1.0  0.56868  0.06492  0.08619  1.0000
  H   H868      1.0  0.74514  0.04287  0.07763  1.0000
  H   H869      1.0  0.49100  0.05120  0.29427  1.0000
  H   H870      1.0  0.47110  0.80206  0.25818  1.0000
  C   C496      1.0  0.55209  0.03553  0.23580  1.0000
  S   S153      1.0  0.76728  0.89563  0.18576  1.0000
  C   C497      1.0  0.71172  0.73820  0.15401  1.0000
  H   H871      1.0  0.43975  0.05790  0.29495  1.0000
  C   C498      1.0  0.65781  0.02361  0.07383  1.0000
  C   C499      1.0  0.55118  0.90253  0.20569  1.0000
  C   C500      1.0  0.60843  0.03695  0.21297  1.0000
  C   C501      1.0  0.60178  0.89531  0.22594  1.0000
  H   H872      1.0  0.53083  0.90827  0.21420  1.0000
  C   C502      1.0  0.57448  0.90157  0.23799  1.0000
  Fe  Fe72      1.0  0.74130  0.88782  0.26693  1.0000
  S   S154      1.0  0.74358  0.94878  0.20887  1.0000
  C   C503      1.0  0.74070  0.74210  0.17558  1.0000
  Fe  Fe73      1.0  0.46044  0.94203  0.20289  1.0000
  H   H873      1.0  0.71044  0.00397  0.18761  1.0000
  H   H874      1.0  0.44807  0.02431  0.06914  1.0000
  C   C504      1.0  0.70392  0.77767  0.18385  1.0000
  C   C505      1.0  0.71246  0.02631  0.09718  1.0000
  C   C506      1.0  0.77978  0.16977  0.27209  1.0000
  H   H875      1.0  0.83655  0.02493  0.12457  1.0000
  H   H876      1.0  0.66096  0.98308  0.29279  1.0000
  S   S155      1.0  0.45092  0.87649  0.24654  1.0000
  C   C507      1.0  0.85261  0.84601  0.26558  1.0000
  H   H877      1.0  0.53966  0.04881  0.24549  1.0000
  Fe  Fe74      1.0  0.38401  0.13403  0.11961  1.0000
  H   H878      1.0  0.66841  0.00102  0.18082  1.0000
  H   H879      1.0  0.60980  0.08015  0.22971  1.0000
  C   C508      1.0  0.60480  0.88852  0.18298  1.0000
  Fe  Fe75      1.0  0.70274  0.84806  0.20566  1.0000
  C   C509      1.0  0.42369  0.78058  0.23250  1.0000
  C   C510      1.0  0.59196  0.05354  0.22638  1.0000
  Fe  Fe76      1.0  0.76432  0.95293  0.12866  1.0000
  H   H880      1.0  0.57196  0.90663  0.27140  1.0000
  S   S156      1.0  0.47980  0.98023  0.23951  1.0000
  Fe  Fe77      1.0  0.68030  0.89647  0.22938  1.0000
  C   C511      1.0  0.79286  0.15391  0.24322  1.0000
  C   C512      1.0  0.81845  0.96131  0.29485  1.0000
  H   H881      1.0  0.71228  0.01651  0.27916  1.0000
  H   H882      1.0  0.61937  0.16569  0.11960  1.0000
  C   C513      1.0  0.54648  0.17541  0.11981  1.0000
  H   H883      1.0  0.86470  0.95045  0.16640  1.0000
  H   H884      1.0  0.38723  0.95694  0.30487  1.0000
  H   H885      1.0  0.45604  0.91349  0.40096  1.0000
  C   C514      1.0  0.41134  0.89506  0.55658  1.0000
  H   H886      1.0  0.79914  0.12473  0.35956  1.0000
  H   H887      1.0  0.50204  0.89581  0.34994  1.0000
  H   H888      1.0  0.50949  0.93028  0.49791  1.0000
  H   H889      1.0  0.40162  0.86865  0.38557  1.0000
  H   H890      1.0  0.84930  0.05926  0.44536  1.0000
  C   C515      1.0  0.66822  0.93657  0.46132  1.0000
  H   H891      1.0  0.75994  0.77661  0.43628  1.0000
  H   H892      1.0  0.54766  0.89558  0.42890  1.0000
  H   H893      1.0  0.64046  0.87634  0.46970  1.0000
  H   H894      1.0  0.43795  0.69813  0.41050  1.0000
  H   H895      1.0  0.49725  0.78912  0.33168  1.0000
  C   C516      1.0  0.50650  0.92896  0.45989  1.0000
  Fe  Fe78      1.0  0.44087  0.05299  0.55378  1.0000
  H   H896      1.0  0.67093  0.98499  0.35189  1.0000
  H   H897      1.0  0.41485  0.10559  0.34610  1.0000
  H   H898      1.0  0.68294  0.05956  0.32946  1.0000
  H   H899      1.0  0.63494  0.16983  0.45936  1.0000
  H   H900      1.0  0.76308  0.09508  0.43563  1.0000
  C   C517      1.0  0.79362  0.91359  0.34702  1.0000
  Fe  Fe79      1.0  0.76225  0.05441  0.54888  1.0000
  H   H901      1.0  0.38032  0.05530  0.32141  1.0000
  C   C518      1.0  0.74296  0.15013  0.36733  1.0000
  H   H902      1.0  0.82222  0.17200  0.40214  1.0000
  H   H903      1.0  0.68135  0.67976  0.33741  1.0000
  C   C519      1.0  0.46231  0.14757  0.52274  1.0000
  H   H904      1.0  0.52784  0.12651  0.53579  1.0000
  H   H905      1.0  0.41620  0.85728  0.47337  1.0000
  H   H906      1.0  0.66785  0.82939  0.41369  1.0000
  H   H907      1.0  0.67710  0.09930  0.36584  1.0000
  H   H908      1.0  0.79498  0.00493  0.36485  1.0000
  H   H909      1.0  0.65865  0.17522  0.50786  1.0000
  C   C520      1.0  0.37569  0.94534  0.35265  1.0000
  H   H910      1.0  0.64365  0.90970  0.36981  1.0000
  S   S157      1.0  0.73415  0.08509  0.55021  1.0000
  H   H911      1.0  0.52322  0.11362  0.35726  1.0000
  H   H912      1.0  0.44564  0.15691  0.37089  1.0000
  S   S158      1.0  0.75707  0.87002  0.34639  1.0000
  H   H913      1.0  0.86226  0.87775  0.37774  1.0000
  C   C521      1.0  0.85150  0.15346  0.45667  1.0000
  H   H914      1.0  0.77008  0.16059  0.37574  1.0000
  C   C522      1.0  0.68086  0.98378  0.31615  1.0000
  C   C523      1.0  0.54491  0.90299  0.38600  1.0000
  S   S159      1.0  0.82552  0.09860  0.47791  1.0000
  H   H915      1.0  0.51132  0.75359  0.35819  1.0000
  H   H916      1.0  0.79731  0.01301  0.46961  1.0000
  H   H917      1.0  0.82204  0.79592  0.41992  1.0000
  H   H918      1.0  0.74017  0.00333  0.34508  1.0000
  H   H919      1.0  0.36982  0.87418  0.51998  1.0000
  H   H920      1.0  0.56387  0.00386  0.52151  1.0000
  H   H921      1.0  0.73595  0.73191  0.42944  1.0000
  H   H922      1.0  0.72602  0.91623  0.34262  1.0000
  C   C524      1.0  0.73581  0.67757  0.54392  1.0000
  H   H923      1.0  0.44557  0.88060  0.34689  1.0000
  H   H924      1.0  0.82097  0.72120  0.54278  1.0000
  N   N34       1.0  0.47191  0.86938  0.44286  1.0000
  C   C525      1.0  0.84799  0.76432  0.35334  1.0000
  H   H925      1.0  0.38426  0.95011  0.43948  1.0000
  H   H926      1.0  0.72499  0.77021  0.40429  1.0000
  C   C526      1.0  0.83673  0.99406  0.48243  1.0000
  H   H927      1.0  0.55431  0.16975  0.42344  1.0000
  C   C527      1.0  0.82322  0.77386  0.53536  1.0000
  H   H928      1.0  0.63569  0.83667  0.44120  1.0000
  C   C528      1.0  0.81157  0.76316  0.36209  1.0000
  H   H929      1.0  0.37941  0.69299  0.41968  1.0000
  H   H930      1.0  0.66564  0.92461  0.50849  1.0000
  H   H931      1.0  0.79192  0.73769  0.41342  1.0000
  C   C529      1.0  0.82935  0.02885  0.44813  1.0000
  S   S160      1.0  0.64001  0.02732  0.52134  1.0000
  S   S161      1.0  0.82817  0.84143  0.52660  1.0000
  C   C530      1.0  0.84535  0.86662  0.35439  1.0000
  H   H932      1.0  0.76986  0.78996  0.31526  1.0000
  N   N35       1.0  0.58386  0.16489  0.53931  1.0000
  H   H933      1.0  0.41527  0.04056  0.38177  1.0000
  H   H934      1.0  0.81549  0.85646  0.37404  1.0000
  N   N36       1.0  0.74092  0.13215  0.33310  1.0000
  H   H935      1.0  0.44827  0.79971  0.33341  1.0000
  C   C531      1.0  0.76780  0.09343  0.39802  1.0000
  H   H936      1.0  0.54169  0.87699  0.38389  1.0000
  C   C532      1.0  0.84028  0.82500  0.36829  1.0000
  C   C533      1.0  0.48136  0.87789  0.48750  1.0000
  H   H937      1.0  0.39844  0.13840  0.32457  1.0000
  H   H938      1.0  0.47564  0.12158  0.38594  1.0000
  C   C534      1.0  0.84810  0.82056  0.50904  1.0000
  C   C535      1.0  0.55832  0.16176  0.50507  1.0000
  H   H939      1.0  0.71096  0.88393  0.42419  1.0000
  H   H940      1.0  0.53777  0.95178  0.42322  1.0000
  H   H941      1.0  0.64034  0.93153  0.46022  1.0000
  H   H942      1.0  0.40379  0.82280  0.42061  1.0000
  H   H943      1.0  0.47735  0.81581  0.48401  1.0000
  H   H944      1.0  0.82407  0.97091  0.47071  1.0000
  C   C536      1.0  0.39482  0.68437  0.33919  1.0000
  H   H945      1.0  0.71615  0.12220  0.41466  1.0000
  C   C537      1.0  0.73489  0.08811  0.37602  1.0000
  H   H946      1.0  0.70501  0.06060  0.41886  1.0000
  C   C538      1.0  0.57505  0.17076  0.44512  1.0000
  H   H947      1.0  0.45421  0.01048  0.37403  1.0000
  H   H948      1.0  0.74946  0.96154  0.43745  1.0000
  H   H949      1.0  0.81458  0.01148  0.55326  1.0000
  C   C539      1.0  0.41498  0.78099  0.53447  1.0000
  H   H950      1.0  0.83627  0.72808  0.37922  1.0000
  H   H951      1.0  0.45276  0.85721  0.52843  1.0000
  H   H952      1.0  0.45626  0.69814  0.35326  1.0000
  C   C540      1.0  0.85461  0.97974  0.35100  1.0000
  N   N37       1.0  0.82198  0.80921  0.33383  1.0000
  N   N38       1.0  0.42515  0.72679  0.33191  1.0000
  C   C541      1.0  0.49619  0.76380  0.33059  1.0000
  C   C542      1.0  0.82825  0.93239  0.40374  1.0000
  H   H953      1.0  0.74124  0.69096  0.31931  1.0000
  C   C543      1.0  0.44163  0.87607  0.42938  1.0000
  H   H954      1.0  0.76797  0.70680  0.51763  1.0000
  C   C544      1.0  0.73987  0.97532  0.35463  1.0000
  H   H955      1.0  0.39037  0.78234  0.52948  1.0000
  H   H956      1.0  0.65796  0.86454  0.35982  1.0000
  H   H957      1.0  0.45687  0.99091  0.33182  1.0000
  H   H958      1.0  0.83181  0.92084  0.44601  1.0000
  S   S162      1.0  0.48300  0.04042  0.53811  1.0000
  C   C545      1.0  0.67683  0.94025  0.34380  1.0000
  C   C546      1.0  0.40041  0.72756  0.37123  1.0000
  C   C547      1.0  0.84833  0.92612  0.54715  1.0000
  C   C548      1.0  0.38621  0.00557  0.42062  1.0000
  H   H959      1.0  0.39135  0.99504  0.46258  1.0000
  C   C549      1.0  0.70162  0.89778  0.38767  1.0000
  H   H960      1.0  0.36757  0.68073  0.33657  1.0000
  S   S163      1.0  0.46159  0.12502  0.48623  1.0000
  H   H961      1.0  0.68305  0.89235  0.48316  1.0000
  C   C550      1.0  0.67213  0.90737  0.45060  1.0000
  H   H962      1.0  0.49714  0.86499  0.50872  1.0000
  C   C551      1.0  0.79824  0.89947  0.40156  1.0000
  H   H963      1.0  0.76714  0.94510  0.40252  1.0000
  C   C552      1.0  0.42239  0.86083  0.39369  1.0000
  H   H964      1.0  0.43782  0.75433  0.41035  1.0000
  H   H965      1.0  0.73929  0.93454  0.54385  1.0000
  C   C553      1.0  0.45915  0.01828  0.32860  1.0000
  N   N39       1.0  0.38549  0.98535  0.34827  1.0000
  H   H966      1.0  0.45044  0.81396  0.43956  1.0000
  N   N40       1.0  0.82106  0.96552  0.55250  1.0000
  H   H967      1.0  0.40303  0.76495  0.40137  1.0000
  H   H968      1.0  0.77914  0.86276  0.44208  1.0000
  H   H969      1.0  0.73332  0.07276  0.35419  1.0000
  C   C554      1.0  0.76372  0.97079  0.39273  1.0000
  H   H970      1.0  0.57808  0.75876  0.54206  1.0000
  C   C555      1.0  0.45508  0.82055  0.47275  1.0000
  C   C556      1.0  0.63109  0.15132  0.50785  1.0000
  S   S164      1.0  0.43197  0.95331  0.50505  1.0000
  H   H971      1.0  0.83829  0.04303  0.39888  1.0000
  H   H972      1.0  0.49139  0.94339  0.44090  1.0000
  C   C557      1.0  0.66331  0.85476  0.40161  1.0000
  H   H973      1.0  0.57574  0.14307  0.45578  1.0000
  C   C558      1.0  0.70417  0.12068  0.32167  1.0000
  C   C559      1.0  0.37345  0.96883  0.41376  1.0000
  H   H974      1.0  0.57420  0.93824  0.34617  1.0000
  C   C560      1.0  0.45243  0.71953  0.35859  1.0000
  H   H975      1.0  0.79315  0.74712  0.34398  1.0000
  H   H976      1.0  0.52124  0.93965  0.35454  1.0000
  C   C561      1.0  0.83990  0.75750  0.52167  1.0000
  H   H977      1.0  0.62989  0.12186  0.52159  1.0000
  C   C562      1.0  0.42442  0.76410  0.37878  1.0000
  H   H978      1.0  0.55379  0.17087  0.33227  1.0000
  H   H979      1.0  0.38000  0.73265  0.35273  1.0000
  C   C563      1.0  0.78378  0.80299  0.33910  1.0000
  H   H980      1.0  0.39141  0.93303  0.37551  1.0000
  H   H981      1.0  0.40401  0.74679  0.54968  1.0000
  N   N41       1.0  0.69743  0.93088  0.38447  1.0000
  H   H982      1.0  0.69486  0.97420  0.42824  1.0000
  C   C564      1.0  0.50946  0.90322  0.38169  1.0000
  C   C565      1.0  0.74967  0.76838  0.40647  1.0000
  H   H983      1.0  0.76543  0.06239  0.41834  1.0000
  H   H984      1.0  0.79079  0.83711  0.31417  1.0000
  C   C566      1.0  0.49303  0.14288  0.33459  1.0000
  H   H985      1.0  0.86200  0.02636  0.54306  1.0000
  H   H986      1.0  0.81847  0.89739  0.55788  1.0000
  C   C567      1.0  0.59224  0.13198  0.55612  1.0000
  C   C568      1.0  0.53195  0.14856  0.32377  1.0000
  H   H987      1.0  0.47449  0.12081  0.32329  1.0000
  Fe  Fe80      1.0  0.42942  0.97658  0.55861  1.0000
  C   C569      1.0  0.38086  0.86305  0.55344  1.0000
  C   C570      1.0  0.56775  0.00935  0.55475  1.0000
  C   C571      1.0  0.45827  0.17421  0.32013  1.0000
  H   H988      1.0  0.73807  0.17064  0.55921  1.0000
  C   C572      1.0  0.42552  0.14140  0.31264  1.0000
  C   C573      1.0  0.52488  0.09808  0.65308  1.0000
  H   H989      1.0  0.51276  0.67901  0.69525  1.0000
  S   S165      1.0  0.67110  0.82278  0.61633  1.0000
  H   H990      1.0  0.63413  0.03758  0.61263  1.0000
  C   C574      1.0  0.65427  0.10302  0.65493  1.0000
  S   S166      1.0  0.40837  0.92966  0.66207  1.0000
  H   H991      1.0  0.41880  0.10692  0.74245  1.0000
  H   H992      1.0  0.56522  0.67812  0.56627  1.0000
  C   C575      1.0  0.69124  0.08143  0.70463  1.0000
  C   C576      1.0  0.42538  0.88043  0.60025  1.0000
  H   H993      1.0  0.57853  0.93230  0.65024  1.0000
  Fe  Fe81      1.0  0.37156  0.95074  0.66723  1.0000
  H   H994      1.0  0.53702  0.92893  0.71922  1.0000
  N   N42       1.0  0.48393  0.85530  0.78029  1.0000
  H   H995      1.0  0.83053  0.12546  0.63148  1.0000
  H   H996      1.0  0.36980  0.12952  0.67983  1.0000
  H   H997      1.0  0.78173  0.79460  0.72597  1.0000
  C   C577      1.0  0.55489  0.81114  0.74308  1.0000
  H   H998      1.0  0.53678  0.08071  0.67801  1.0000
  H   H999      1.0  0.86484  0.03750  0.79289  1.0000
  C   C578      1.0  0.82895  0.99563  0.56902  1.0000
  Fe  Fe82      1.0  0.45938  0.99449  0.64244  1.0000
  H   H1000     1.0  0.77218  0.71261  0.75764  1.0000
  S   S167      1.0  0.64208  0.17395  0.78118  1.0000
  H   H1001     1.0  0.46271  0.91052  0.71023  1.0000
  S   S168      1.0  0.38902  0.99327  0.56471  1.0000
  H   H1002     1.0  0.69920  0.82159  0.72816  1.0000
  C   C579      1.0  0.62771  0.80478  0.60492  1.0000
  C   C580      1.0  0.44034  0.87993  0.76010  1.0000
  H   H1003     1.0  0.78033  0.08825  0.74502  1.0000
  H   H1004     1.0  0.75323  0.95876  0.58214  1.0000
  S   S169      1.0  0.74603  0.01346  0.65077  1.0000
  H   H1005     1.0  0.57098  0.75461  0.75609  1.0000
  H   H1006     1.0  0.41953  0.78122  0.57271  1.0000
  H   H1007     1.0  0.83202  0.92395  0.62336  1.0000
  H   H1008     1.0  0.61716  0.87128  0.67122  1.0000
  S   S170      1.0  0.66431  0.88349  0.73723  1.0000
  H   H1009     1.0  0.80446  0.71697  0.67172  1.0000
  C   C581      1.0  0.59660  0.84536  0.72091  1.0000
  H   H1010     1.0  0.83234  0.13612  0.70439  1.0000
  S   S171      1.0  0.50314  0.99863  0.68252  1.0000
  H   H1011     1.0  0.52326  0.05398  0.79892  1.0000
  Fe  Fe83      1.0  0.67609  0.69841  0.65370  1.0000
  H   H1012     1.0  0.37626  0.08770  0.70615  1.0000
  S   S172      1.0  0.42076  0.01145  0.65728  1.0000
  S   S173      1.0  0.71797  0.06118  0.71149  1.0000
  S   S174      1.0  0.65077  0.70405  0.71832  1.0000
  H   H1013     1.0  0.72205  0.70646  0.57531  1.0000
  H   H1014     1.0  0.42008  0.82233  0.67364  1.0000
  C   C582      1.0  0.78221  0.78279  0.77023  1.0000
  H   H1015     1.0  0.83332  0.11944  0.80451  1.0000
  Fe  Fe84      1.0  0.46951  0.73860  0.65413  1.0000
  H   H1016     1.0  0.50442  0.09288  0.68794  1.0000
  H   H1017     1.0  0.59577  0.11987  0.59973  1.0000
  S   S175      1.0  0.63325  0.14844  0.66676  1.0000
  C   C583      1.0  0.60724  0.02809  0.60656  1.0000
  C   C584      1.0  0.81070  0.05891  0.71649  1.0000
  H   H1018     1.0  0.83266  0.96042  0.65731  1.0000
  H   H1019     1.0  0.58047  0.16295  0.61855  1.0000
  H   H1020     1.0  0.55564  0.69873  0.79751  1.0000
  H   H1021     1.0  0.54266  0.90309  0.80520  1.0000
  C   C585      1.0  0.46533  0.14817  0.60812  1.0000
  C   C586      1.0  0.53690  0.00191  0.59173  1.0000
  H   H1022     1.0  0.49187  0.00463  0.77883  1.0000
  C   C587      1.0  0.86274  0.09514  0.74602  1.0000
  H   H1023     1.0  0.82224  0.73830  0.79638  1.0000
  C   C588      1.0  0.54155  0.00825  0.63553  1.0000
  C   C589      1.0  0.55299  0.89774  0.69614  1.0000
  C   C590      1.0  0.85162  0.74580  0.78772  1.0000
  H   H1024     1.0  0.85999  0.70589  0.64525  1.0000
  C   C591      1.0  0.60283  0.02210  0.56264  1.0000
  Fe  Fe85      1.0  0.68879  0.95638  0.66531  1.0000
  H   H1025     1.0  0.64183  0.10630  0.62215  1.0000
  C   C592      1.0  0.46050  0.86614  0.80045  1.0000
  S   S176      1.0  0.70756  0.99491  0.56289  1.0000
  N   N43       1.0  0.85336  0.75272  0.68912  1.0000
  C   C593      1.0  0.61189  0.84536  0.76326  1.0000
  H   H1026     1.0  0.71611  0.89837  0.62780  1.0000
  H   H1027     1.0  0.81319  0.68098  0.72668  1.0000
  H   H1028     1.0  0.56633  0.89003  0.72867  1.0000
  C   C594      1.0  0.81675  0.81244  0.77160  1.0000
  H   H1029     1.0  0.51963  0.68497  0.59692  1.0000
  C   C595      1.0  0.57117  0.72885  0.79609  1.0000
  H   H1030     1.0  0.45385  0.83687  0.72994  1.0000
  C   C596      1.0  0.67043  0.11665  0.72617  1.0000
  Fe  Fe86      1.0  0.45456  0.72970  0.76979  1.0000
  H   H1031     1.0  0.63447  0.78919  0.74828  1.0000
  H   H1032     1.0  0.82953  0.08924  0.61895  1.0000
  S   S177      1.0  0.51599  0.76360  0.57194  1.0000
  C   C597      1.0  0.83707  0.10149  0.64568  1.0000
  H   H1033     1.0  0.51251  0.91163  0.68018  1.0000
  C   C598      1.0  0.67341  0.08401  0.66463  1.0000
  C   C599      1.0  0.60350  0.81338  0.62064  1.0000
  Fe  Fe87      1.0  0.70683  0.72469  0.73187  1.0000
  C   C600      1.0  0.68936  0.09719  0.73620  1.0000
  H   H1034     1.0  0.46809  0.10405  0.59905  1.0000
  H   H1035     1.0  0.54310  0.00207  0.77336  1.0000
  N   N44       1.0  0.81870  0.06939  0.75960  1.0000
  H   H1036     1.0  0.78190  0.94065  0.66803  1.0000
  H   H1037     1.0  0.54034  0.87249  0.68833  1.0000
  H   H1038     1.0  0.58041  0.02584  0.67698  1.0000
  C   C601      1.0  0.52855  0.77815  0.80737  1.0000
  C   C602      1.0  0.81495  0.97107  0.63933  1.0000
  C   C603      1.0  0.80876  0.09992  0.74972  1.0000
  H   H1039     1.0  0.54664  0.16814  0.58944  1.0000
  C   C604      1.0  0.55960  0.78039  0.58291  1.0000
  H   H1040     1.0  0.85744  0.70708  0.76739  1.0000
  H   H1041     1.0  0.43075  0.12773  0.78370  1.0000
  H   H1042     1.0  0.67601  0.07303  0.63925  1.0000
  C   C605      1.0  0.52116  0.89989  0.71848  1.0000
  C   C606      1.0  0.40543  0.10064  0.78470  1.0000
  H   H1043     1.0  0.62526  0.74220  0.75586  1.0000
  S   S178      1.0  0.74252  0.80036  0.65204  1.0000
  H   H1044     1.0  0.46794  0.13497  0.65122  1.0000
  S   S179      1.0  0.72919  0.71282  0.67437  1.0000
  S   S180      1.0  0.46674  0.78175  0.67197  1.0000
  C   C607      1.0  0.85161  0.79123  0.66528  1.0000
  Fe  Fe88      1.0  0.67785  0.02247  0.57149  1.0000
  H   H1045     1.0  0.76740  0.89652  0.63761  1.0000
  H   H1046     1.0  0.82062  0.99618  0.64552  1.0000
  H   H1047     1.0  0.54996  0.80629  0.62445  1.0000
  C   C608      1.0  0.84504  0.94939  0.57139  1.0000
  H   H1048     1.0  0.83907  0.79519  0.63112  1.0000
  C   C609      1.0  0.77677  0.92268  0.58720  1.0000
  Fe  Fe89      1.0  0.39931  0.72979  0.70759  1.0000
  C   C610      1.0  0.46528  0.13045  0.57875  1.0000
  H   H1049     1.0  0.47594  0.81135  0.75975  1.0000
  H   H1050     1.0  0.84217  0.84696  0.72856  1.0000
  C   C611      1.0  0.65326  0.12001  0.68491  1.0000
  H   H1051     1.0  0.77847  0.04175  0.72540  1.0000
  H   H1052     1.0  0.83036  0.78304  0.70272  1.0000
  S   S181      1.0  0.65433  0.97861  0.67603  1.0000
  C   C612      1.0  0.56007  0.15087  0.59904  1.0000
  C   C613      1.0  0.70975  0.67739  0.57660  1.0000
  Fe  Fe90      1.0  0.71322  0.03898  0.65419  1.0000
  H   H1053     1.0  0.44916  0.90527  0.60240  1.0000
  H   H1054     1.0  0.50633  0.08025  0.63714  1.0000
  H   H1055     1.0  0.70328  0.09535  0.76719  1.0000
  C   C614      1.0  0.37210  0.10495  0.78583  1.0000
  Fe  Fe91      1.0  0.68878  0.77965  0.63343  1.0000
  H   H1056     1.0  0.50905  0.98972  0.58766  1.0000
  C   C615      1.0  0.40919  0.83378  0.64023  1.0000
  H   H1057     1.0  0.66972  0.12964  0.74967  1.0000
  Fe  Fe92      1.0  0.76169  0.78783  0.59292  1.0000
  H   H1058     1.0  0.54313  0.81048  0.71052  1.0000
  C   C616      1.0  0.81250  0.70953  0.71118  1.0000
  H   H1059     1.0  0.81420  0.03315  0.72613  1.0000
  C   C617      1.0  0.61580  0.75054  0.78205  1.0000
  H   H1060     1.0  0.61135  0.82983  0.64086  1.0000
  C   C618      1.0  0.57683  0.02148  0.64275  1.0000
  H   H1061     1.0  0.78137  0.16500  0.62629  1.0000
  C   C619      1.0  0.77648  0.68766  0.76701  1.0000
  H   H1062     1.0  0.38705  0.14216  0.74708  1.0000
  C   C620      1.0  0.56894  0.80023  0.61109  1.0000
  H   H1063     1.0  0.56871  0.04269  0.78665  1.0000
  C   C621      1.0  0.74526  0.92985  0.58399  1.0000
  C   C622      1.0  0.61820  0.78430  0.57751  1.0000
  C   C623      1.0  0.45903  0.82088  0.77119  1.0000
  S   S182      1.0  0.46270  0.69111  0.74886  1.0000
  S   S183      1.0  0.40303  0.69014  0.68327  1.0000
  H   H1064     1.0  0.79787  0.12775  0.78704  1.0000
  C   C624      1.0  0.37819  0.80168  0.63774  1.0000
  H   H1065     1.0  0.77154  0.90367  0.56970  1.0000
  C   C625      1.0  0.80470  0.10408  0.80057  1.0000
  S   S184      1.0  0.38702  0.68166  0.80630  1.0000
  C   C626      1.0  0.70152  0.80363  0.77188  1.0000
  H   H1066     1.0  0.63739  0.77843  0.56411  1.0000
  H   H1067     1.0  0.73048  0.81030  0.75844  1.0000
  S   S185      1.0  0.71051  0.77310  0.56729  1.0000
  H   H1068     1.0  0.79120  0.75043  0.56596  1.0000
  H   H1069     1.0  0.56587  0.09978  0.56681  1.0000
  H   H1070     1.0  0.86228  0.91099  0.56998  1.0000
  C   C627      1.0  0.58457  0.77304  0.56525  1.0000
  H   H1071     1.0  0.70389  0.81948  0.79331  1.0000
  H   H1072     1.0  0.48065  0.89534  0.80017  1.0000
  H   H1073     1.0  0.42340  0.97244  0.79486  1.0000
  H   H1074     1.0  0.42585  0.88942  0.77731  1.0000
  H   H1075     1.0  0.41626  0.85088  0.76324  1.0000
  H   H1076     1.0  0.66926  0.73796  0.79387  1.0000
  C   C628      1.0  0.55187  0.00603  0.80720  1.0000
  H   H1077     1.0  0.40762  0.29183  0.91207  1.0000
  C   C629      1.0  0.41807  0.43635  0.88504  1.0000
  H   H1078     1.0  0.83780  0.57187  0.95479  1.0000
  H   H1079     1.0  0.49704  0.61328  0.01214  1.0000
  H   H1080     1.0  0.74121  0.27943  0.81885  1.0000
  H   H1081     1.0  0.73453  0.53375  0.96006  1.0000
  H   H1082     1.0  0.78456  0.42237  0.01183  1.0000
  H   H1083     1.0  0.57355  0.31065  0.83036  1.0000
  H   H1084     1.0  0.57905  0.19290  0.91671  1.0000
  C   C630      1.0  0.52347  0.34714  0.04657  1.0000
  H   H1085     1.0  0.36984  0.60754  0.92138  1.0000
  H   H1086     1.0  0.82881  0.60745  0.03982  1.0000
  H   H1087     1.0  0.49920  0.63574  0.90410  1.0000
  H   H1088     1.0  0.51562  0.29650  0.04099  1.0000
  S   S186      1.0  0.49011  0.30846  0.94389  1.0000
  H   H1089     1.0  0.58337  0.42532  0.88015  1.0000
  Fe  Fe93      1.0  0.46311  0.23350  0.01043  1.0000
  H   H1090     1.0  0.69128  0.59433  0.91117  1.0000
  C   C631      1.0  0.45551  0.48166  0.83992  1.0000
  H   H1091     1.0  0.67567  0.61036  0.94763  1.0000
  C   C632      1.0  0.84858  0.47343  0.98960  1.0000
  C   C633      1.0  0.78973  0.18588  0.82853  1.0000
  H   H1092     1.0  0.66631  0.23656  0.90321  1.0000
  C   C634      1.0  0.38971  0.28560  0.03080  1.0000
  C   C635      1.0  0.39773  0.40881  0.86873  1.0000
  C   C636      1.0  0.60782  0.24254  0.02048  1.0000
  H   H1093     1.0  0.55722  0.55243  0.02828  1.0000
  C   C637      1.0  0.85821  0.41779  0.00699  1.0000
  S   S187      1.0  0.49453  0.20847  0.99862  1.0000
  H   H1094     1.0  0.56752  0.51167  0.84233  1.0000
  C   C638      1.0  0.58482  0.27464  0.81142  1.0000
  C   C639      1.0  0.61642  0.45432  0.84725  1.0000
  H   H1095     1.0  0.37198  0.28458  0.00387  1.0000
  S   S188      1.0  0.71596  0.18257  0.02865  1.0000
  C   C640      1.0  0.36814  0.18760  0.89702  1.0000
  H   H1096     1.0  0.51025  0.42414  0.95387  1.0000
  S   S189      1.0  0.52833  0.40784  0.05734  1.0000
  H   H1097     1.0  0.47947  0.57879  0.96869  1.0000
  S   S190      1.0  0.77639  0.62849  0.04653  1.0000
  C   C641      1.0  0.42349  0.31706  0.81524  1.0000
  H   H1098     1.0  0.55444  0.24132  0.84551  1.0000
  H   H1099     1.0  0.84007  0.37743  0.86180  1.0000
  C   C642      1.0  0.64282  0.50298  0.97721  1.0000
  H   H1100     1.0  0.61695  0.46878  0.99210  1.0000
  Fe  Fe94      1.0  0.70293  0.22195  0.04094  1.0000
  C   C643      1.0  0.65879  0.49404  0.02630  1.0000
  C   C644      1.0  0.64360  0.23341  0.88561  1.0000
  H   H1101     1.0  0.75843  0.31101  0.88522  1.0000
  H   H1102     1.0  0.72789  0.63893  0.91287  1.0000
  S   S191      1.0  0.73225  0.19531  0.82247  1.0000
  H   H1103     1.0  0.56400  0.40216  0.82088  1.0000
  H   H1104     1.0  0.40847  0.27814  0.01870  1.0000
  C   C645      1.0  0.38652  0.60645  0.94965  1.0000
  H   H1105     1.0  0.73610  0.54741  0.05609  1.0000
  H   H1106     1.0  0.49812  0.59588  0.86919  1.0000
  H   H1107     1.0  0.66045  0.54867  0.04046  1.0000
  C   C646      1.0  0.40245  0.53866  0.02413  1.0000
  C   C647      1.0  0.80442  0.45453  0.00516  1.0000
  C   C648      1.0  0.85138  0.40905  0.81439  1.0000
  H   H1108     1.0  0.55307  0.23285  0.04240  1.0000
  H   H1109     1.0  0.59490  0.49421  0.87578  1.0000
  H   H1110     1.0  0.77384  0.62556  0.93656  1.0000
  H   H1111     1.0  0.80202  0.31841  0.86301  1.0000
  H   H1112     1.0  0.82609  0.36939  0.99103  1.0000
  H   H1113     1.0  0.46072  0.34114  0.85678  1.0000
  C   C649      1.0  0.47183  0.59828  0.93443  1.0000
  C   C650      1.0  0.37173  0.50785  0.01197  1.0000
  H   H1114     1.0  0.42582  0.61335  0.01389  1.0000
  H   H1115     1.0  0.81081  0.40298  0.97572  1.0000
  C   C651      1.0  0.46884  0.58641  0.89118  1.0000
  H   H1116     1.0  0.44549  0.54872  0.91710  1.0000
  H   H1117     1.0  0.47400  0.65580  0.94844  1.0000
  C   C652      1.0  0.52089  0.38232  0.02314  1.0000
  H   H1118     1.0  0.64519  0.42422  0.88262  1.0000
  N   N45       1.0  0.42062  0.27742  0.82865  1.0000
  H   H1119     1.0  0.80475  0.48148  0.96606  1.0000
  H   H1120     1.0  0.79057  0.44788  0.04778  1.0000
  C   C653      1.0  0.81962  0.38441  0.00790  1.0000
  C   C654      1.0  0.59455  0.51447  0.83089  1.0000
  H   H1121     1.0  0.60853  0.39540  0.86394  1.0000
  Fe  Fe95      1.0  0.49080  0.43014  0.04669  1.0000
  H   H1122     1.0  0.41544  0.52256  0.04854  1.0000
  C   C655      1.0  0.77924  0.31892  0.84699  1.0000
  H   H1123     1.0  0.60158  0.67245  0.92914  1.0000
  C   C656      1.0  0.46871  0.60504  0.03472  1.0000
  H   H1124     1.0  0.85787  0.24842  0.85564  1.0000
  H   H1125     1.0  0.59548  0.19928  0.96936  1.0000
  H   H1126     1.0  0.40431  0.42304  0.93196  1.0000
  C   C657      1.0  0.82903  0.53277  0.04990  1.0000
  H   H1127     1.0  0.73075  0.24514  0.89751  1.0000
  C   C658      1.0  0.38066  0.23164  0.88544  1.0000
  C   C659      1.0  0.56238  0.57278  0.04202  1.0000
  C   C660      1.0  0.60912  0.63591  0.04082  1.0000
  C   C661      1.0  0.50265  0.33670  0.97454  1.0000
  H   H1128     1.0  0.64829  0.26597  0.86352  1.0000
  H   H1129     1.0  0.85155  0.27271  0.03203  1.0000
  H   H1130     1.0  0.71320  0.58990  0.01492  1.0000
  S   S192      1.0  0.47930  0.51887  0.85669  1.0000
  S   S193      1.0  0.67507  0.25120  0.99078  1.0000
  H   H1131     1.0  0.72697  0.57273  0.91157  1.0000
  H   H1132     1.0  0.66286  0.46875  0.03511  1.0000
  C   C662      1.0  0.69124  0.56881  0.00485  1.0000
  H   H1133     1.0  0.45259  0.25055  0.85152  1.0000
  H   H1134     1.0  0.86292  0.50268  0.99020  1.0000
  C   C663      1.0  0.73201  0.55958  0.95350  1.0000
  C   C664      1.0  0.59946  0.19161  0.93861  1.0000
  H   H1135     1.0  0.55983  0.46133  0.82497  1.0000
  C   C665      1.0  0.51412  0.32408  0.02248  1.0000
  H   H1136     1.0  0.42405  0.34893  0.85441  1.0000
  S   S194      1.0  0.44273  0.40675  0.01658  1.0000
  H   H1137     1.0  0.66560  0.52264  0.93008  1.0000
  S   S195      1.0  0.76659  0.27438  0.01817  1.0000
  H   H1138     1.0  0.39577  0.31206  0.81270  1.0000
  H   H1139     1.0  0.64980  0.23200  0.84821  1.0000
  Fe  Fe96      1.0  0.77830  0.23151  0.01427  1.0000
  H   H1140     1.0  0.58248  0.66136  0.83273  1.0000
  C   C666      1.0  0.50134  0.37282  0.94992  1.0000
  H   H1141     1.0  0.63048  0.52023  0.97503  1.0000
  H   H1142     1.0  0.45164  0.27381  0.88637  1.0000
  H   H1143     1.0  0.62785  0.61658  0.99603  1.0000
  C   C667      1.0  0.42101  0.60897  0.92271  1.0000
  H   H1144     1.0  0.38452  0.51711  0.96685  1.0000
  H   H1145     1.0  0.38078  0.22595  0.92887  1.0000
  H   H1146     1.0  0.79313  0.39054  0.83227  1.0000
  H   H1147     1.0  0.62384  0.27523  0.97320  1.0000
  H   H1148     1.0  0.49259  0.38273  0.91270  1.0000
  N   N46       1.0  0.43576  0.58985  0.96779  1.0000
  C   C668      1.0  0.45070  0.61760  0.98937  1.0000
  H   H1149     1.0  0.40992  0.59083  0.90402  1.0000
  C   C669      1.0  0.85216  0.56510  0.98453  1.0000
  H   H1150     1.0  0.36849  0.37416  0.90327  1.0000
  H   H1151     1.0  0.56569  0.61634  0.91296  1.0000
  C   C670      1.0  0.60228  0.60876  0.02425  1.0000
  N   N47       1.0  0.69720  0.53618  0.01111  1.0000
  S   S196      1.0  0.42350  0.46493  0.03085  1.0000
  C   C671      1.0  0.75610  0.27681  0.84951  1.0000
  S   S197      1.0  0.83631  0.27152  0.93443  1.0000
  C   C672      1.0  0.77437  0.60108  0.93514  1.0000
  Fe  Fe97      1.0  0.46672  0.47998  0.95702  1.0000
  C   C673      1.0  0.51071  0.39578  0.97389  1.0000
  S   S198      1.0  0.51753  0.50486  0.98207  1.0000
  C   C674      1.0  0.62680  0.22380  0.04218  1.0000
  H   H1152     1.0  0.44666  0.64610  0.88080  1.0000
  H   H1153     1.0  0.78724  0.58878  0.96596  1.0000
  H   H1154     1.0  0.86296  0.20506  0.89473  1.0000
  C   C675      1.0  0.69703  0.60446  0.94019  1.0000
  H   H1155     1.0  0.40943  0.32154  0.01406  1.0000
  H   H1156     1.0  0.77650  0.27068  0.83855  1.0000
  C   C676      1.0  0.63338  0.43059  0.84756  1.0000
  S   S199      1.0  0.40619  0.18233  0.01599  1.0000
  C   C677      1.0  0.59033  0.65401  0.87194  1.0000
  H   H1157     1.0  0.79585  0.62100  0.88667  1.0000
  H   H1158     1.0  0.39901  0.63672  0.94743  1.0000
  H   H1159     1.0  0.62928  0.46915  0.86982  1.0000
  C   C678      1.0  0.45454  0.27945  0.84236  1.0000
  H   H1160     1.0  0.39216  0.18473  0.89755  1.0000
  H   H1161     1.0  0.71785  0.32358  0.84954  1.0000
  H   H1162     1.0  0.46428  0.60671  0.85208  1.0000
  H   H1163     1.0  0.61870  0.65932  0.86045  1.0000
  H   H1164     1.0  0.86417  0.49017  0.93981  1.0000
  C   C679      1.0  0.42922  0.32462  0.86284  1.0000
  H   H1165     1.0  0.56275  0.67055  0.91081  1.0000
  H   H1166     1.0  0.86276  0.43707  0.81691  1.0000
  C   C680      1.0  0.40333  0.65207  0.05040  1.0000
  H   H1167     1.0  0.47672  0.62614  0.04937  1.0000
  N   N48       1.0  0.85471  0.43963  0.03202  1.0000
  H   H1168     1.0  0.77954  0.67270  0.81072  1.0000
  H   H1169     1.0  0.42633  0.64955  0.05885  1.0000
  C   C681      1.0  0.56763  0.21832  0.05935  1.0000
  H   H1170     1.0  0.79376  0.35456  0.05580  1.0000
  H   H1171     1.0  0.38375  0.53483  0.05934  1.0000
  C   C682      1.0  0.76443  0.51608  0.24851  1.0000
  H   H1172     1.0  0.43052  0.26691  0.08947  1.0000
  H   H1173     1.0  0.57779  0.46391  0.22164  1.0000
  H   H1174     1.0  0.43846  0.44724  0.25174  1.0000
  S   S200      1.0  0.47943  0.52021  0.09812  1.0000
  C   C683      1.0  0.60585  0.18149  0.10328  1.0000
  H   H1175     1.0  0.75189  0.48041  0.28842  1.0000
  C   C684      1.0  0.83446  0.62106  0.06400  1.0000
  H   H1176     1.0  0.37333  0.59257  0.19449  1.0000
  C   C685      1.0  0.80448  0.35956  0.29183  1.0000
  H   H1177     1.0  0.43952  0.33018  0.15717  1.0000
  C   C686      1.0  0.40771  0.29841  0.17940  1.0000
  H   H1178     1.0  0.39427  0.53263  0.18369  1.0000
  S   S201      1.0  0.65970  0.63137  0.17610  1.0000
  S   S202      1.0  0.73889  0.38002  0.19500  1.0000
  H   H1179     1.0  0.51371  0.40868  0.15985  1.0000
  H   H1180     1.0  0.38175  0.30704  0.11600  1.0000
  H   H1181     1.0  0.77840  0.19604  0.23565  1.0000
  H   H1182     1.0  0.79722  0.34261  0.19357  1.0000
  H   H1183     1.0  0.47273  0.41902  0.30482  1.0000
  C   C687      1.0  0.40517  0.41822  0.28293  1.0000
  C   C688      1.0  0.56037  0.36617  0.27756  1.0000
  H   H1184     1.0  0.55570  0.28755  0.16828  1.0000
  H   H1185     1.0  0.68643  0.27675  0.27112  1.0000
  N   N49       1.0  0.38535  0.43557  0.29354  1.0000
  H   H1186     1.0  0.52868  0.27745  0.25623  1.0000
  H   H1187     1.0  0.68964  0.48742  0.16199  1.0000
  H   H1188     1.0  0.42982  0.50303  0.20027  1.0000
  H   H1189     1.0  0.48696  0.31340  0.27182  1.0000
  Fe  Fe98      1.0  0.68123  0.65565  0.07937  1.0000
  N   N50       1.0  0.52818  0.40434  0.23432  1.0000
  S   S203      1.0  0.43862  0.18750  0.11473  1.0000
  H   H1190     1.0  0.85402  0.66859  0.15211  1.0000
  S   S204      1.0  0.76303  0.18647  0.11594  1.0000
  H   H1191     1.0  0.40405  0.26904  0.21918  1.0000
  C   C689      1.0  0.52569  0.25692  0.18195  1.0000
  Fe  Fe99      1.0  0.72771  0.35428  0.29224  1.0000
  H   H1192     1.0  0.75297  0.51456  0.21485  1.0000
  C   C690      1.0  0.86439  0.43339  0.19493  1.0000
  H   H1193     1.0  0.80418  0.66303  0.11050  1.0000
  C   C691      1.0  0.82011  0.65171  0.10464  1.0000
  H   H1194     1.0  0.66778  0.51323  0.12887  1.0000
  H   H1195     1.0  0.48394  0.32948  0.20101  1.0000
  H   H1196     1.0  0.64823  0.45755  0.14998  1.0000
  S   S205      1.0  0.73297  0.41347  0.27314  1.0000
  H   H1197     1.0  0.50168  0.25667  0.19891  1.0000
  H   H1198     1.0  0.45279  0.52515  0.25647  1.0000
  C   C692      1.0  0.67675  0.27219  0.15532  1.0000
  H   H1199     1.0  0.63135  0.67569  0.30291  1.0000
  C   C693      1.0  0.85507  0.51119  0.22692  1.0000
  C   C694      1.0  0.82104  0.40333  0.09834  1.0000
  H   H1200     1.0  0.54896  0.22172  0.21410  1.0000
  C   C695      1.0  0.53639  0.58996  0.09508  1.0000
  C   C696      1.0  0.49412  0.40263  0.25665  1.0000
  H   H1201     1.0  0.78866  0.62366  0.23863  1.0000
  H   H1202     1.0  0.50134  0.18756  0.21967  1.0000
  H   H1203     1.0  0.54782  0.39798  0.16888  1.0000
  Fe  Fe100     1.0  0.67139  0.33576  0.23262  1.0000
  N   N51       1.0  0.49937  0.18749  0.29764  1.0000
  S   S206      1.0  0.75744  0.25058  0.17465  1.0000
  Fe  Fe101     1.0  0.72502  0.66755  0.15642  1.0000
  H   H1204     1.0  0.44633  0.56785  0.07799  1.0000
  N   N52       1.0  0.37731  0.24830  0.14599  1.0000
  C   C697      1.0  0.39941  0.29507  0.12900  1.0000
  H   H1205     1.0  0.82234  0.59609  0.25845  1.0000
  C   C698      1.0  0.57049  0.49118  0.13731  1.0000
  S   S207      1.0  0.71823  0.60394  0.19426  1.0000
  Fe  Fe102     1.0  0.73788  0.43483  0.17884  1.0000
  H   H1206     1.0  0.56470  0.48484  0.10428  1.0000
  C   C699      1.0  0.44580  0.49296  0.29720  1.0000
  H   H1207     1.0  0.66156  0.27572  0.12607  1.0000
  Fe  Fe103     1.0  0.73519  0.63027  0.09586  1.0000
  C   C700      1.0  0.82399  0.40502  0.23744  1.0000
  H   H1208     1.0  0.81901  0.34361  0.13589  1.0000
  C   C701      1.0  0.81282  0.63425  0.07331  1.0000
  C   C702      1.0  0.75141  0.53568  0.26923  1.0000
  C   C703      1.0  0.80371  0.55990  0.30365  1.0000
  Fe  Fe104     1.0  0.74621  0.22571  0.12090  1.0000
  H   H1209     1.0  0.39686  0.42261  0.20358  1.0000
  C   C704      1.0  0.40580  0.23928  0.13825  1.0000
  H   H1210     1.0  0.38834  0.30301  0.19779  1.0000
  H   H1211     1.0  0.63309  0.47491  0.07028  1.0000
  H   H1212     1.0  0.79060  0.38345  0.10093  1.0000
  C   C705      1.0  0.49930  0.42167  0.29141  1.0000
  S   S208      1.0  0.60002  0.49836  0.29142  1.0000
  C   C706      1.0  0.39633  0.47633  0.23063  1.0000
  C   C707      1.0  0.84817  0.65473  0.12830  1.0000
  H   H1213     1.0  0.38906  0.20584  0.14711  1.0000
  S   S209      1.0  0.44955  0.41086  0.12842  1.0000
  C   C708      1.0  0.51838  0.21158  0.22904  1.0000
  H   H1214     1.0  0.71134  0.49405  0.07052  1.0000
  H   H1215     1.0  0.48884  0.42154  0.21721  1.0000
  C   C709      1.0  0.52033  0.38916  0.19612  1.0000
  H   H1216     1.0  0.59181  0.39658  0.26005  1.0000
  C   C710      1.0  0.72386  0.26048  0.18424  1.0000
  H   H1217     1.0  0.80588  0.18945  0.27874  1.0000
  C   C711      1.0  0.64121  0.46988  0.27837  1.0000
  C   C712      1.0  0.84758  0.52415  0.08834  1.0000
  C   C713      1.0  0.57618  0.62622  0.07670  1.0000
  C   C714      1.0  0.64573  0.43633  0.29843  1.0000
  C   C715      1.0  0.38133  0.50108  0.23241  1.0000
  H   H1218     1.0  0.82971  0.49936  0.13874  1.0000
  H   H1219     1.0  0.52548  0.26143  0.13923  1.0000
  H   H1220     1.0  0.52664  0.45899  0.26184  1.0000
  C   C716      1.0  0.77078  0.60760  0.28665  1.0000
  Fe  Fe105     1.0  0.65469  0.57026  0.20595  1.0000
  H   H1221     1.0  0.75069  0.61647  0.28345  1.0000
  C   C717      1.0  0.38966  0.39646  0.25233  1.0000
  S   S210      1.0  0.77743  0.50516  0.08240  1.0000
  H   H1222     1.0  0.68028  0.66372  0.29107  1.0000
  C   C718      1.0  0.70709  0.51844  0.06497  1.0000
  C   C719      1.0  0.70352  0.26420  0.14735  1.0000
  H   H1223     1.0  0.59278  0.45445  0.17431  1.0000
  C   C720      1.0  0.52991  0.37277  0.29069  1.0000
  H   H1224     1.0  0.54936  0.49516  0.15238  1.0000
  H   H1225     1.0  0.44832  0.27054  0.16918  1.0000
  Fe  Fe106     1.0  0.40351  0.39332  0.09321  1.0000
  C   C721      1.0  0.42748  0.23680  0.17980  1.0000
  C   C722      1.0  0.82272  0.36583  0.14678  1.0000
  C   C723      1.0  0.67097  0.27738  0.19936  1.0000
  H   H1226     1.0  0.38353  0.46513  0.20447  1.0000
  H   H1227     1.0  0.40592  0.20784  0.23034  1.0000
  H   H1228     1.0  0.82053  0.42070  0.11607  1.0000
  S   S211      1.0  0.67097  0.59155  0.11070  1.0000
  C   C724      1.0  0.52948  0.56356  0.07721  1.0000
  H   H1229     1.0  0.46622  0.48825  0.28204  1.0000
  H   H1230     1.0  0.73306  0.26206  0.25761  1.0000
  H   H1231     1.0  0.67201  0.44537  0.26989  1.0000
  H   H1232     1.0  0.85076  0.38070  0.15172  1.0000
  H   H1233     1.0  0.58149  0.64711  0.08969  1.0000
  H   H1234     1.0  0.40552  0.38354  0.24970  1.0000
  C   C725      1.0  0.56844  0.45310  0.19368  1.0000
  S   S212      1.0  0.67048  0.39187  0.21111  1.0000
  C   C726      1.0  0.67574  0.49274  0.12970  1.0000
  H   H1235     1.0  0.51101  0.58282  0.12248  1.0000
  H   H1236     1.0  0.55968  0.23698  0.28175  1.0000
  H   H1237     1.0  0.79801  0.53930  0.22320  1.0000
  H   H1238     1.0  0.80820  0.41861  0.22856  1.0000
  H   H1239     1.0  0.82318  0.48037  0.24721  1.0000
  H   H1240     1.0  0.39132  0.51312  0.25871  1.0000
  H   H1241     1.0  0.71877  0.51768  0.28072  1.0000
  C   C727      1.0  0.82498  0.34207  0.30289  1.0000
  H   H1242     1.0  0.45523  0.32857  0.25135  1.0000
  H   H1243     1.0  0.60142  0.52534  0.11060  1.0000
  H   H1244     1.0  0.46502  0.36621  0.28911  1.0000
  H   H1245     1.0  0.81405  0.54392  0.29504  1.0000
  H   H1246     1.0  0.66384  0.50486  0.23380  1.0000
  C   C728      1.0  0.48450  0.33707  0.23310  1.0000
  H   H1247     1.0  0.76760  0.57215  0.22673  1.0000
  H   H1248     1.0  0.55974  0.36000  0.24405  1.0000
  C   C729      1.0  0.71748  0.26489  0.22896  1.0000
  S   S213      1.0  0.64165  0.29304  0.20464  1.0000
  H   H1249     1.0  0.70897  0.26201  0.11159  1.0000
  H   H1250     1.0  0.42930  0.32134  0.08679  1.0000
  H   H1251     1.0  0.46025  0.20513  0.29645  1.0000
  H   H1252     1.0  0.44694  0.22962  0.16931  1.0000
  C   C730      1.0  0.69109  0.27331  0.23651  1.0000
  H   H1253     1.0  0.77165  0.22273  0.28592  1.0000
  C   C731      1.0  0.52462  0.25333  0.30329  1.0000
  Fe  Fe107     1.0  0.66561  0.36612  0.30654  1.0000
  H   H1254     1.0  0.53172  0.33699  0.08428  1.0000
  H   H1255     1.0  0.85136  0.51546  0.30022  1.0000
  H   H1256     1.0  0.79108  0.62457  0.30222  1.0000
  H   H1257     1.0  0.81098  0.18274  0.19152  1.0000
  H   H1258     1.0  0.38841  0.64589  0.30859  1.0000
  H   H1259     1.0  0.85778  0.54254  0.19677  1.0000
  Fe  Fe108     1.0  0.47217  0.48361  0.06143  1.0000
  C   C732      1.0  0.86257  0.62407  0.08772  1.0000
  C   C733      1.0  0.58003  0.43878  0.47579  1.0000
  C   C734      1.0  0.69084  0.44818  0.39909  1.0000
  S   S214      1.0  0.38962  0.58430  0.45642  1.0000
  S   S215      1.0  0.46487  0.31147  0.51601  1.0000
  S   S216      1.0  0.65638  0.48908  0.46316  1.0000
  C   C735      1.0  0.74559  0.19316  0.33371  1.0000
  H   H1260     1.0  0.59360  0.52786  0.37371  1.0000
  C   C736      1.0  0.65669  0.60564  0.44581  1.0000
  C   C737      1.0  0.37855  0.28042  0.35709  1.0000
  H   H1261     1.0  0.42991  0.58830  0.36469  1.0000
  C   C738      1.0  0.72048  0.64006  0.54559  1.0000
  H   H1262     1.0  0.71294  0.53837  0.34062  1.0000
  H   H1263     1.0  0.79133  0.43063  0.41596  1.0000
  H   H1264     1.0  0.40237  0.53907  0.33468  1.0000
  C   C739      1.0  0.74428  0.55389  0.33578  1.0000
  H   H1265     1.0  0.40217  0.39208  0.32772  1.0000
  H   H1266     1.0  0.68363  0.63847  0.43302  1.0000
  H   H1267     1.0  0.75040  0.20539  0.36061  1.0000
  C   C740      1.0  0.59008  0.32800  0.55449  1.0000
  C   C741      1.0  0.82047  0.42391  0.35809  1.0000
  Fe  Fe109     1.0  0.76714  0.52848  0.52818  1.0000
  H   H1268     1.0  0.78643  0.28792  0.44309  1.0000
  H   H1269     1.0  0.45594  0.22656  0.50560  1.0000
  H   H1270     1.0  0.71905  0.25233  0.48583  1.0000
  H   H1271     1.0  0.60130  0.25352  0.46427  1.0000
  H   H1272     1.0  0.60550  0.20545  0.40980  1.0000
  C   C742      1.0  0.37074  0.55525  0.42745  1.0000
  H   H1273     1.0  0.51983  0.40013  0.48444  1.0000
  C   C743      1.0  0.61633  0.39105  0.35609  1.0000
  H   H1274     1.0  0.75709  0.38696  0.41230  1.0000
  H   H1275     1.0  0.55957  0.34410  0.43799  1.0000
  C   C744      1.0  0.84311  0.18236  0.42029  1.0000
  C   C745      1.0  0.62335  0.21413  0.50143  1.0000
  C   C746      1.0  0.39738  0.56262  0.38349  1.0000
  H   H1276     1.0  0.64439  0.54933  0.35593  1.0000
  H   H1277     1.0  0.85674  0.24806  0.37697  1.0000
  H   H1278     1.0  0.70117  0.62130  0.32079  1.0000
  C   C747      1.0  0.86250  0.22524  0.40632  1.0000
  H   H1279     1.0  0.85602  0.47629  0.39374  1.0000
  Fe  Fe110     1.0  0.40820  0.28794  0.50351  1.0000
  S   S217      1.0  0.78416  0.37122  0.53953  1.0000
  H   H1280     1.0  0.42608  0.22143  0.40996  1.0000
  C   C748      1.0  0.73580  0.48344  0.38112  1.0000
  C   C749      1.0  0.40046  0.44959  0.33117  1.0000
  H   H1281     1.0  0.59025  0.56524  0.49439  1.0000
  H   H1282     1.0  0.85026  0.58456  0.33217  1.0000
  H   H1283     1.0  0.75083  0.46976  0.37804  1.0000
  H   H1284     1.0  0.39616  0.42071  0.37432  1.0000
  H   H1285     1.0  0.59400  0.55667  0.42467  1.0000
  H   H1286     1.0  0.53885  0.38666  0.31523  1.0000
  H   H1287     1.0  0.52213  0.19539  0.36046  1.0000
  C   C750      1.0  0.60720  0.45784  0.31604  1.0000
  S   S218      1.0  0.66032  0.30594  0.33075  1.0000
  H   H1288     1.0  0.80108  0.24095  0.42025  1.0000
  S   S219      1.0  0.62094  0.34852  0.38180  1.0000
  N   N53       1.0  0.78848  0.24029  0.52295  1.0000
  H   H1289     1.0  0.55132  0.40305  0.40209  1.0000
  C   C751      1.0  0.62446  0.55768  0.35950  1.0000
  H   H1290     1.0  0.73987  0.65173  0.39121  1.0000
  H   H1291     1.0  0.86014  0.64689  0.48905  1.0000
  S   S220      1.0  0.39185  0.20319  0.33593  1.0000
  H   H1292     1.0  0.80951  0.30661  0.34400  1.0000
  H   H1293     1.0  0.85414  0.45292  0.51099  1.0000
  H   H1294     1.0  0.78593  0.18663  0.53219  1.0000
  H   H1295     1.0  0.61948  0.58932  0.52485  1.0000
  C   C752      1.0  0.81663  0.56242  0.35217  1.0000
  C   C753      1.0  0.69662  0.61633  0.36455  1.0000
  H   H1296     1.0  0.75082  0.22311  0.44751  1.0000
  H   H1297     1.0  0.84261  0.28947  0.43512  1.0000
  H   H1298     1.0  0.65715  0.57764  0.48074  1.0000
  C   C754      1.0  0.41483  0.26272  0.41352  1.0000
  C   C755      1.0  0.84388  0.52503  0.53731  1.0000
  C   C756      1.0  0.85928  0.31284  0.48674  1.0000
  H   H1299     1.0  0.75660  0.18179  0.46384  1.0000
  H   H1300     1.0  0.54918  0.27488  0.31003  1.0000
  H   H1301     1.0  0.49942  0.33788  0.32748  1.0000
  H   H1302     1.0  0.40502  0.51336  0.55021  1.0000
  C   C757      1.0  0.76982  0.21308  0.45934  1.0000
  H   H1303     1.0  0.65069  0.28549  0.45844  1.0000
  C   C758      1.0  0.77407  0.26736  0.49472  1.0000
  H   H1304     1.0  0.38211  0.65210  0.38713  1.0000
  C   C759      1.0  0.37482  0.25353  0.34152  1.0000
  H   H1305     1.0  0.60789  0.61989  0.32580  1.0000
  H   H1306     1.0  0.64141  0.22789  0.45500  1.0000
  S   S221      1.0  0.75469  0.64127  0.50572  1.0000
  H   H1307     1.0  0.81350  0.41562  0.32704  1.0000
  H   H1308     1.0  0.45858  0.19681  0.45170  1.0000
  C   C760      1.0  0.61980  0.25058  0.48911  1.0000
  H   H1309     1.0  0.67556  0.41516  0.44762  1.0000
  C   C761      1.0  0.83386  0.27286  0.48539  1.0000
  C   C762      1.0  0.72754  0.23875  0.52361  1.0000
  H   H1310     1.0  0.74213  0.54494  0.38159  1.0000
  C   C763      1.0  0.53758  0.40983  0.50672  1.0000
  H   H1311     1.0  0.71758  0.24171  0.55736  1.0000
  C   C764      1.0  0.86014  0.42941  0.52350  1.0000
  H   H1312     1.0  0.81599  0.39355  0.39886  1.0000
  C   C765      1.0  0.58254  0.37924  0.39364  1.0000
  H   H1313     1.0  0.39898  0.45048  0.51227  1.0000
  C   C766      1.0  0.73718  0.65868  0.34825  1.0000
  H   H1314     1.0  0.59731  0.35194  0.50461  1.0000
  H   H1315     1.0  0.43061  0.26647  0.44092  1.0000
  H   H1316     1.0  0.78632  0.29440  0.49949  1.0000
  H   H1317     1.0  0.64273  0.21450  0.52587  1.0000
  H   H1318     1.0  0.85670  0.29948  0.53411  1.0000
  H   H1319     1.0  0.45321  0.49869  0.33036  1.0000
  H   H1320     1.0  0.59491  0.45108  0.42996  1.0000
  H   H1321     1.0  0.86058  0.64065  0.41527  1.0000
  S   S222      1.0  0.75331  0.57176  0.46298  1.0000
  H   H1322     1.0  0.80831  0.57834  0.36434  1.0000
  C   C767      1.0  0.39251  0.23279  0.36009  1.0000
  C   C768      1.0  0.60336  0.45245  0.50349  1.0000
  C   C769      1.0  0.61970  0.59629  0.48065  1.0000
  H   H1323     1.0  0.60756  0.24349  0.53287  1.0000
  S   S223      1.0  0.82228  0.53982  0.48785  1.0000
  C   C770      1.0  0.76983  0.20087  0.52165  1.0000
  C   C771      1.0  0.52746  0.21746  0.31121  1.0000
  C   C772      1.0  0.38184  0.53491  0.36645  1.0000
  Fe  Fe111     1.0  0.68966  0.50482  0.51511  1.0000
  H   H1324     1.0  0.73590  0.48127  0.42247  1.0000
  Fe  Fe112     1.0  0.73377  0.57253  0.53785  1.0000
  C   C773      1.0  0.62348  0.64154  0.33889  1.0000
  C   C774      1.0  0.41252  0.23748  0.39585  1.0000
  C   C775      1.0  0.39794  0.28423  0.39404  1.0000
  C   C776      1.0  0.82990  0.38555  0.54222  1.0000
  H   H1325     1.0  0.38228  0.45577  0.34869  1.0000
  H   H1326     1.0  0.62225  0.62764  0.45302  1.0000
  H   H1327     1.0  0.61830  0.53374  0.45141  1.0000
  H   H1328     1.0  0.80366  0.52746  0.39559  1.0000
  S   S224      1.0  0.40190  0.31662  0.41501  1.0000
  H   H1329     1.0  0.84471  0.25288  0.50197  1.0000
  C   C777      1.0  0.62268  0.56327  0.40932  1.0000
  C   C778      1.0  0.38092  0.46180  0.50974  1.0000
  C   C779      1.0  0.45862  0.19982  0.52600  1.0000
  H   H1330     1.0  0.60186  0.62549  0.38424  1.0000
  H   H1331     1.0  0.69311  0.58484  0.39889  1.0000
  C   C780      1.0  0.66311  0.65006  0.33801  1.0000
  H   H1332     1.0  0.40138  0.49963  0.48470  1.0000
  N   N54       1.0  0.75893  0.53329  0.32229  1.0000
  H   H1333     1.0  0.70967  0.20134  0.54810  1.0000
  N   N55       1.0  0.65911  0.60908  0.38912  1.0000
  H   H1334     1.0  0.55185  0.33427  0.32180  1.0000
  H   H1335     1.0  0.71694  0.18466  0.33148  1.0000
  H   H1336     1.0  0.78428  0.44675  0.34642  1.0000
  H   H1337     1.0  0.67393  0.46064  0.39788  1.0000
  C   C781      1.0  0.57788  0.41253  0.37341  1.0000
  S   S225      1.0  0.75465  0.32514  0.34587  1.0000
  H   H1338     1.0  0.68818  0.43935  0.36835  1.0000
  C   C782      1.0  0.78687  0.42273  0.38427  1.0000
  H   H1339     1.0  0.49986  0.40082  0.33578  1.0000
  C   C783      1.0  0.46001  0.18305  0.49560  1.0000
  H   H1340     1.0  0.36590  0.29756  0.34144  1.0000
  H   H1341     1.0  0.85159  0.33586  0.46949  1.0000
  H   H1342     1.0  0.76283  0.66527  0.32050  1.0000
  H   H1343     1.0  0.49538  0.23570  0.33976  1.0000
  H   H1344     1.0  0.63526  0.58925  0.31256  1.0000
  H   H1345     1.0  0.55226  0.18601  0.49254  1.0000
  H   H1346     1.0  0.86232  0.39282  0.35828  1.0000
  N   N56       1.0  0.86364  0.46845  0.32474  1.0000
  H   H1347     1.0  0.36613  0.45633  0.48092  1.0000
  C   C784      1.0  0.83771  0.35516  0.55807  1.0000
  H   H1348     1.0  0.58603  0.29825  0.56295  1.0000
  H   H1349     1.0  0.55183  0.30334  0.72571  1.0000
  C   C785      1.0  0.49416  0.25437  0.70089  1.0000
  H   H1350     1.0  0.44190  0.20294  0.79261  1.0000
  C   C786      1.0  0.49820  0.32479  0.79064  1.0000
  H   H1351     1.0  0.37064  0.37937  0.61501  1.0000
  H   H1352     1.0  0.60195  0.44830  0.58354  1.0000
  H   H1353     1.0  0.57574  0.42162  0.74345  1.0000
  C   C787      1.0  0.81716  0.40118  0.79489  1.0000
  C   C788      1.0  0.57426  0.43160  0.77214  1.0000
  H   H1354     1.0  0.48077  0.19895  0.79539  1.0000
  S   S226      1.0  0.71422  0.28205  0.71902  1.0000
  H   H1355     1.0  0.75706  0.34478  0.74888  1.0000
  C   C789      1.0  0.47333  0.49860  0.77937  1.0000
  H   H1356     1.0  0.44195  0.65262  0.59129  1.0000
  C   C790      1.0  0.61311  0.27858  0.77574  1.0000
  C   C791      1.0  0.38323  0.38856  0.64283  1.0000
  H   H1357     1.0  0.81386  0.38023  0.66764  1.0000
  H   H1358     1.0  0.72865  0.58183  0.69368  1.0000
  H   H1359     1.0  0.50268  0.53317  0.74477  1.0000
  H   H1360     1.0  0.42441  0.25504  0.77654  1.0000
  S   S227      1.0  0.45826  0.20108  0.62255  1.0000
  C   C792      1.0  0.39087  0.28002  0.75126  1.0000
  H   H1361     1.0  0.49115  0.65028  0.57910  1.0000
  C   C793      1.0  0.66391  0.53780  0.74954  1.0000
  H   H1362     1.0  0.63875  0.47343  0.73257  1.0000
  C   C794      1.0  0.59562  0.31380  0.80299  1.0000
  H   H1363     1.0  0.61219  0.38587  0.58602  1.0000
  H   H1364     1.0  0.42056  0.60250  0.73171  1.0000
  H   H1365     1.0  0.50602  0.32771  0.74931  1.0000
  H   H1366     1.0  0.39160  0.49275  0.76428  1.0000
  H   H1367     1.0  0.40530  0.43911  0.65467  1.0000
  S   S228      1.0  0.66904  0.50850  0.58566  1.0000
  S   S229      1.0  0.64649  0.40698  0.74321  1.0000
  H   H1368     1.0  0.62276  0.50562  0.69802  1.0000
  H   H1369     1.0  0.61259  0.38266  0.65170  1.0000
  H   H1370     1.0  0.58776  0.28169  0.66489  1.0000
  C   C795      1.0  0.45311  0.47125  0.76307  1.0000
  H   H1371     1.0  0.39983  0.31521  0.72083  1.0000
  H   H1372     1.0  0.48632  0.24529  0.78750  1.0000
  H   H1373     1.0  0.40332  0.63668  0.64878  1.0000
  C   C796      1.0  0.44463  0.56655  0.69352  1.0000
  H   H1374     1.0  0.69364  0.39376  0.69049  1.0000
  H   H1375     1.0  0.71316  0.35425  0.78126  1.0000
  H   H1376     1.0  0.46262  0.66142  0.66763  1.0000
  H   H1377     1.0  0.45307  0.31516  0.73045  1.0000
  C   C797      1.0  0.47543  0.22413  0.77296  1.0000
  H   H1378     1.0  0.66517  0.56560  0.71005  1.0000
  S   S230      1.0  0.63651  0.63760  0.65722  1.0000
  C   C798      1.0  0.55063  0.31148  0.59672  1.0000
  H   H1379     1.0  0.49576  0.58923  0.73654  1.0000
  S   S231      1.0  0.46545  0.35763  0.60548  1.0000
  N   N57       1.0  0.79983  0.36634  0.78480  1.0000
  Fe  Fe113     1.0  0.43095  0.23532  0.59346  1.0000
  H   H1380     1.0  0.61681  0.34710  0.55996  1.0000
  H   H1381     1.0  0.46679  0.48491  0.71580  1.0000
  C   C799      1.0  0.77687  0.20699  0.78873  1.0000
  H   H1382     1.0  0.85098  0.36974  0.75998  1.0000
  C   C800      1.0  0.39253  0.49638  0.63932  1.0000
  H   H1383     1.0  0.70631  0.52364  0.75819  1.0000
  Fe  Fe114     1.0  0.68886  0.46926  0.64124  1.0000
  C   C801      1.0  0.83481  0.51868  0.59212  1.0000
  H   H1384     1.0  0.65835  0.45046  0.80267  1.0000
  C   C802      1.0  0.55419  0.25891  0.69031  1.0000
  H   H1385     1.0  0.46037  0.58880  0.77229  1.0000
  H   H1386     1.0  0.50331  0.35646  0.77568  1.0000
  Fe  Fe115     1.0  0.73018  0.29873  0.62642  1.0000
  H   H1387     1.0  0.43530  0.56899  0.65656  1.0000
  H   H1388     1.0  0.84893  0.62422  0.59096  1.0000
  C   C803      1.0  0.53453  0.64323  0.60144  1.0000
  N   N58       1.0  0.46920  0.61275  0.67881  1.0000
  S   S232      1.0  0.38961  0.39497  0.78358  1.0000
  H   H1389     1.0  0.48377  0.27499  0.68298  1.0000
  H   H1390     1.0  0.79111  0.25469  0.69229  1.0000
  H   H1391     1.0  0.52717  0.39887  0.63705  1.0000
  C   C804      1.0  0.79963  0.23654  0.72356  1.0000
  H   H1392     1.0  0.38681  0.26744  0.72493  1.0000
  C   C805      1.0  0.65216  0.60309  0.61012  1.0000
  Fe  Fe116     1.0  0.70830  0.21933  0.75551  1.0000
  H   H1393     1.0  0.55772  0.21525  0.67894  1.0000
  S   S233      1.0  0.66571  0.26012  0.64075  1.0000
  C   C806      1.0  0.60364  0.36187  0.63643  1.0000
  C   C807      1.0  0.48513  0.60922  0.72613  1.0000
  C   C808      1.0  0.55758  0.32090  0.67607  1.0000
  C   C809      1.0  0.84672  0.22192  0.73894  1.0000
  Fe  Fe117     1.0  0.64952  0.23849  0.73653  1.0000
  H   H1394     1.0  0.62145  0.35001  0.64306  1.0000
  H   H1395     1.0  0.81468  0.32148  0.57188  1.0000
  C   C810      1.0  0.85752  0.51429  0.62497  1.0000
  C   C811      1.0  0.51846  0.39501  0.56516  1.0000
  N   N59       1.0  0.62249  0.49061  0.78474  1.0000
  C   C812      1.0  0.52020  0.65600  0.70812  1.0000
  H   H1396     1.0  0.50966  0.18466  0.73666  1.0000
  H   H1397     1.0  0.61971  0.57440  0.63554  1.0000
  C   C813      1.0  0.40619  0.52514  0.75746  1.0000
  H   H1398     1.0  0.46355  0.55661  0.69261  1.0000
  H   H1399     1.0  0.55114  0.43604  0.77055  1.0000
  C   C814      1.0  0.42092  0.62648  0.64215  1.0000
  H   H1400     1.0  0.52622  0.28926  0.59035  1.0000
  H   H1401     1.0  0.74804  0.65827  0.77565  1.0000
  H   H1402     1.0  0.82949  0.43597  0.75150  1.0000
  H   H1403     1.0  0.42265  0.46420  0.57549  1.0000
  H   H1404     1.0  0.85189  0.26633  0.64847  1.0000
  H   H1405     1.0  0.38352  0.52996  0.75951  1.0000
  H   H1406     1.0  0.53784  0.62444  0.64348  1.0000
  H   H1407     1.0  0.67447  0.32477  0.70482  1.0000
  H   H1408     1.0  0.44874  0.35076  0.76790  1.0000
  C   C815      1.0  0.83437  0.24364  0.69863  1.0000
  C   C816      1.0  0.50331  0.64937  0.61307  1.0000
  C   C817      1.0  0.44360  0.62599  0.68243  1.0000
  H   H1409     1.0  0.41075  0.39175  0.63701  1.0000
  H   H1410     1.0  0.82575  0.21824  0.60519  1.0000
  S   S234      1.0  0.70508  0.46135  0.57325  1.0000
  H   H1411     1.0  0.69972  0.53850  0.68768  1.0000
  H   H1412     1.0  0.42551  0.51463  0.62360  1.0000
  C   C818      1.0  0.42358  0.28135  0.77178  1.0000
  H   H1413     1.0  0.80191  0.32576  0.72983  1.0000
  H   H1414     1.0  0.39864  0.59151  0.65665  1.0000
  H   H1415     1.0  0.74322  0.19519  0.61768  1.0000
  S   S235      1.0  0.72797  0.23850  0.66209  1.0000
  H   H1416     1.0  0.66978  0.54668  0.78024  1.0000
  C   C819      1.0  0.59118  0.49549  0.79646  1.0000
  H   H1417     1.0  0.41325  0.51910  0.79720  1.0000
  C   C820      1.0  0.77070  0.36852  0.75917  1.0000
  C   C821      1.0  0.53472  0.21839  0.68947  1.0000
  C   C822      1.0  0.54187  0.40985  0.59214  1.0000
  H   H1418     1.0  0.47907  0.22967  0.69218  1.0000
  C   C823      1.0  0.66309  0.36078  0.72354  1.0000
  H   H1419     1.0  0.52378  0.22338  0.65365  1.0000
  C   C824      1.0  0.82449  0.19331  0.80383  1.0000
  C   C825      1.0  0.46116  0.18214  0.58242  1.0000
  C   C826      1.0  0.37828  0.48514  0.59745  1.0000
  H   H1420     1.0  0.37597  0.46534  0.68968  1.0000
  H   H1421     1.0  0.78790  0.24797  0.59303  1.0000
  H   H1422     1.0  0.78744  0.40404  0.71291  1.0000
  H   H1423     1.0  0.54266  0.33645  0.66705  1.0000
  H   H1424     1.0  0.85256  0.37607  0.66897  1.0000
  S   S236      1.0  0.59858  0.22946  0.78582  1.0000
  C   C827      1.0  0.77685  0.22027  0.58997  1.0000
  S   S237      1.0  0.40279  0.23175  0.66798  1.0000
  C   C828      1.0  0.61670  0.47729  0.74426  1.0000
  H   H1425     1.0  0.85227  0.51241  0.66498  1.0000
  H   H1426     1.0  0.52643  0.64898  0.74881  1.0000
  C   C829      1.0  0.79214  0.19445  0.62513  1.0000
  H   H1427     1.0  0.54756  0.24372  0.73965  1.0000
  Fe  Fe118     1.0  0.39592  0.64588  0.77977  1.0000
  H   H1428     1.0  0.81184  0.51955  0.60739  1.0000
  C   C830      1.0  0.63455  0.35714  0.75817  1.0000
  C   C831      1.0  0.83458  0.38093  0.73728  1.0000
  Fe  Fe119     1.0  0.66232  0.19815  0.68465  1.0000
  C   C832      1.0  0.70112  0.54471  0.72130  1.0000
  C   C833      1.0  0.67851  0.60295  0.57810  1.0000
  C   C834      1.0  0.66804  0.63978  0.61079  1.0000
  S   S238      1.0  0.37933  0.28868  0.57152  1.0000
  C   C835      1.0  0.65242  0.32154  0.73230  1.0000
  H   H1429     1.0  0.59229  0.51890  0.75144  1.0000
  C   C836      1.0  0.82434  0.36417  0.69971  1.0000
  N   N60       1.0  0.53994  0.28639  0.66552  1.0000
  S   S239      1.0  0.75230  0.53402  0.59996  1.0000
  C   C837      1.0  0.39498  0.43486  0.62174  1.0000
  Fe  Fe120     1.0  0.43350  0.30680  0.58948  1.0000
  S   S240      1.0  0.37724  0.21179  0.57411  1.0000
  H   H1430     1.0  0.66634  0.57443  0.57827  1.0000
  H   H1431     1.0  0.74504  0.38555  0.80249  1.0000
  H   H1432     1.0  0.62152  0.55212  0.80052  1.0000
  H   H1433     1.0  0.85760  0.41964  0.70094  1.0000
  C   C838      1.0  0.73490  0.35721  0.80121  1.0000
  H   H1434     1.0  0.52612  0.62416  0.58359  1.0000
  H   H1435     1.0  0.55216  0.34218  0.57525  1.0000
  H   H1436     1.0  0.38669  0.51895  0.63666  1.0000
  H   H1437     1.0  0.86000  0.28455  0.76557  1.0000
  C   C839      1.0  0.58427  0.43804  0.56171  1.0000
  C   C840      1.0  0.41503  0.42667  0.80732  1.0000
  H   H1438     1.0  0.54882  0.67486  0.66913  1.0000
  H   H1439     1.0  0.77984  0.17938  0.67467  1.0000
  H   H1440     1.0  0.51995  0.32400  0.80934  1.0000
