data_image0
_chemical_formula_structural       H2FeS2FeCH2SFeS2FeS2FeS3CSFeH2SC2HCH3C6H4C6H4C6H4CH3CH4C2NHCHCHSH6CH2SH5FeC2HCH2CHCH5CHCH4C2H2NH9C3NH5CHCHSH3CH2CH4C2H4CH2FeH2CH2FeS2FeS2FeSFeS3HSHSCSCS2H3C6H4C6H4C6H5C3H3C2NC4H11NCHCH2FeH2CH2FeC2H2NC8H16CH3CHCH2CH4NH3CFeC2H3CHC2H3CH3C2H3NH4CH4CHSHC2H4CH2CH9CH3CH2C3HNCHSH3CHFeSC3FeH5NH5CH2SHC2NH2CH3CH2C2H2C2HCH4CHCHCSHCH5CSH2CH2SHCHSH2SHSHCFeSCH2FeS2FeS2FeSFeS3C6H4C3HCH3C6H7C3HFeH4C6H4C4S2H3C3HNH2CHC2HNH2CH4C2H2NH2C2SCH2NC4HC2H9NH4C2H4CNC4HC2H7CH3CH4CH2CH8CHNH3C2HSC3H4SH3CHFeH7C3H6C2H2CHC2H4CNH2CH3CH2SCH2CHC2H3CH6CH2CHFeCHCSHC3H2CFeS2FeS2FeSFeCS2FeS2FeS2FeSFeHS3FeS2FeSHFeSFeS3FeSFeSCHNC6H4C6H4C3FeH2C4H3C6H4C6H4C2NH2C4H3SH5C2H2C3NC5HCH2CH9SH5CH4CH4C2HCH5S2C2H2NC8H20CNC2HC3HCH3CHCH9CH5FeH2CH2SH8CH2CHC2HC2H2CH4CHC2HNH3CHC3HC3H2NCS2H9C3H3NHCH6C2H6SCH6CHC2H5CHFeS2FeS2FeHFeS3FeS2FeSHFeSFeHS2FeS2FeS2FeSFeS3HC3HC6H5C3H3C6H6CH2CH3C6H4CH2C6H4C2NHSCH5CH6CH6CH3C2H4C6H2CH2C2HCHCH3CHC3HCH3CHCH4NC8H22CH2CHCH2CHC2H2NH5NC2H2SH2C2HNH3CH2C2NH2CH2C2H3C2H2C3H2CH2CH5SH2CH2S2FeS2FeS2FeSFeS3FeS2H2FeS2CFeSCSFeHFeS2FeS2FeSFeS3FeSFeCSFeHS2C6H5C2H5C6H6C2H4FeHC6H4C6H4CFeH5SC3H2C6H10CH3CHCHFeHCH2CH3CH2SH5CH2SH3CH2C2NC5HC2H10C2HCH5SFeCH4CH3NCH2CHSC2SC2H3CHC4H2CHCH3CH2CH2FeCHC3NCHSH4CNHNCH7C2H6CHCH2NCHCHCH2CHSC2HCH2C2H8CH4CH2C2H2FeHSHCH3CH2SH5CH5CH3SHC7H3CH6CHCH3FeH4CH2CH2FeS2H2SCFeS2FeSFeSFeS3HNSHSCFeSFeS2FeSFeCSFeNS2H2C2HC3HCNH2CH2CH2C6H4C6H4CH3CHC6H5NC4HC5H8CHCH2CH6CH3FeC2HC2H3CH2SH4CHCSH2C2SH8SHSCHC2H2CSCH3NC8H18CH4CH5FeHCH2C4HFeHC3HCHCHFeNHCH4C2HCS2H4CH18C2HSHCHSH2C2S2H2FeSH2SCHC2FeSHCHCH4CH3C6H2CHNCSCH3C3H3CHC2HSC2H3FeHSHCH2CH3SH4CH2CSH4CFeH4CHCHSNFeCHFeNH2S2H2CHC2H2C2H2SCH4FeH2CH
_chemical_formula_sum              "H1152 Fe96 S192 C672 N48"
_cell_length_a       72.5659
_cell_length_b       72.6129
_cell_length_c       31.0221
_cell_angle_alpha    91.0256
_cell_angle_beta     91.2417
_cell_angle_gamma    117.944

_space_group_name_H-M_alt    "P 1"
_space_group_IT_number       1

loop_
  _space_group_symop_operation_xyz
  'x, y, z'

loop_
  _atom_site_type_symbol
  _atom_site_label
  _atom_site_symmetry_multiplicity
  _atom_site_fract_x
  _atom_site_fract_y
  _atom_site_fract_z
  _atom_site_occupancy
  H   H1        1.0  0.04853  0.38413  0.11136  1.0000
  H   H2        1.0  0.04896  0.45098  0.09929  1.0000
  Fe  Fe1       1.0  0.28897  0.46339  0.10127  1.0000
  S   S1        1.0  0.31291  0.47535  0.15648  1.0000
  S   S2        1.0  0.26006  0.46766  0.11771  1.0000
  Fe  Fe2       1.0  0.31578  0.44607  0.14892  1.0000
  C   C1        1.0  0.17914  0.47892  0.97602  1.0000
  H   H3        1.0  0.02698  0.40084  0.75111  1.0000
  H   H4        1.0  0.29965  0.45314  0.24124  1.0000
  S   S3        1.0  0.29044  0.43312  0.09729  1.0000
  Fe  Fe3       1.0  0.13946  0.45074  0.08182  1.0000
  S   S4        1.0  0.12744  0.46644  0.03466  1.0000
  S   S5        1.0  0.16506  0.44240  0.05991  1.0000
  Fe  Fe4       1.0  0.10939  0.45057  0.15066  1.0000
  S   S6        1.0  0.09677  0.46739  0.10951  1.0000
  S   S7        1.0  0.09574  0.43576  0.21432  1.0000
  Fe  Fe5       1.0  0.09503  0.44520  0.05588  1.0000
  S   S8        1.0  0.06296  0.43297  0.02199  1.0000
  S   S9        1.0  0.10640  0.42743  0.09809  1.0000
  S   S10       1.0  0.14322  0.47264  0.13740  1.0000
  C   C2        1.0  0.03422  0.38981  0.16952  1.0000
  S   S11       1.0  0.01656  0.38519  0.84609  1.0000
  Fe  Fe6       1.0  0.12989  0.48735  0.09112  1.0000
  H   H5        1.0  0.22301  0.41363  0.27125  1.0000
  H   H6        1.0  0.28093  0.44084  0.28073  1.0000
  S   S12       1.0  0.02360  0.44300  0.31512  1.0000
  C   C3        1.0  0.99831  0.46643  0.84278  1.0000
  C   C4        1.0  0.05277  0.38344  0.65298  1.0000
  H   H7        1.0  0.31701  0.39784  0.26665  1.0000
  C   C5        1.0  0.02515  0.40799  0.72094  1.0000
  H   H8        1.0  0.02702  0.42059  0.20825  1.0000
  H   H9        1.0  0.99430  0.37651  0.67842  1.0000
  H   H10       1.0  0.00365  0.45503  0.84837  1.0000
  C   C6        1.0  0.07549  0.43789  0.24133  1.0000
  C   C7        1.0  0.06337  0.42239  0.27008  1.0000
  C   C8        1.0  0.04705  0.42341  0.29204  1.0000
  C   C9        1.0  0.04322  0.44040  0.28667  1.0000
  C   C10       1.0  0.05555  0.45609  0.25843  1.0000
  C   C11       1.0  0.07141  0.45471  0.23537  1.0000
  H   H11       1.0  0.06655  0.40944  0.27522  1.0000
  H   H12       1.0  0.03779  0.41132  0.31393  1.0000
  H   H13       1.0  0.05276  0.46935  0.25424  1.0000
  H   H14       1.0  0.08077  0.46685  0.21370  1.0000
  C   C12       1.0  0.05111  0.42011  0.97207  1.0000
  C   C13       1.0  0.05984  0.41074  0.94532  1.0000
  C   C14       1.0  0.04917  0.40006  0.90675  1.0000
  C   C15       1.0  0.02989  0.39894  0.89436  1.0000
  C   C16       1.0  0.02130  0.40845  0.92100  1.0000
  C   C17       1.0  0.03175  0.41877  0.95978  1.0000
  H   H15       1.0  0.07467  0.41154  0.95456  1.0000
  H   H16       1.0  0.05593  0.39271  0.88642  1.0000
  H   H17       1.0  0.00654  0.40782  0.91188  1.0000
  H   H18       1.0  0.02487  0.42596  0.98022  1.0000
  C   C18       1.0  0.19114  0.44881  0.07780  1.0000
  C   C19       1.0  0.20319  0.44279  0.05164  1.0000
  C   C20       1.0  0.22415  0.44821  0.06326  1.0000
  C   C21       1.0  0.23346  0.45977  0.10142  1.0000
  C   C22       1.0  0.22132  0.46553  0.12791  1.0000
  C   C23       1.0  0.20037  0.46013  0.11627  1.0000
  H   H19       1.0  0.19632  0.43399  0.02186  1.0000
  H   H20       1.0  0.23313  0.44357  0.04247  1.0000
  H   H21       1.0  0.24844  0.42845  0.29294  1.0000
  H   H22       1.0  0.19140  0.46480  0.13701  1.0000
  C   C24       1.0  0.02740  0.40917  0.64250  1.0000
  H   H23       1.0  0.23310  0.45061  0.29785  1.0000
  H   H24       1.0  0.27685  0.40961  0.25868  1.0000
  H   H25       1.0  0.24964  0.46057  0.25284  1.0000
  C   C25       1.0  0.05219  0.38875  0.14584  1.0000
  H   H26       1.0  0.01552  0.41470  0.64597  1.0000
  H   H27       1.0  0.03788  0.44068  0.70078  1.0000
  H   H28       1.0  0.02037  0.46933  0.41283  1.0000
  H   H29       1.0  0.03744  0.43738  0.75753  1.0000
  C   C26       1.0  0.23489  0.41306  0.14273  1.0000
  C   C27       1.0  0.04813  0.39657  0.68649  1.0000
  N   N1        1.0  0.02762  0.39698  0.68136  1.0000
  H   H30       1.0  0.27550  0.43382  0.18909  1.0000
  C   C28       1.0  0.24674  0.40182  0.22604  1.0000
  H   H31       1.0  0.20362  0.48091  0.01811  1.0000
  C   C29       1.0  0.25994  0.39953  0.26303  1.0000
  H   H32       1.0  0.28534  0.46560  0.25979  1.0000
  S   S13       1.0  0.31317  0.42372  0.20176  1.0000
  H   H33       1.0  0.06205  0.37675  0.66895  1.0000
  H   H34       1.0  0.23049  0.38895  0.22859  1.0000
  H   H35       1.0  0.25293  0.39835  0.19616  1.0000
  H   H36       1.0  0.25099  0.42278  0.13224  1.0000
  H   H37       1.0  0.25760  0.38327  0.26207  1.0000
  H   H38       1.0  0.22429  0.41460  0.11834  1.0000
  C   C30       1.0  0.04221  0.42267  0.13294  1.0000
  H   H39       1.0  0.00913  0.40638  0.72119  1.0000
  H   H40       1.0  0.23107  0.39637  0.14215  1.0000
  S   S14       1.0  0.31352  0.47832  0.05083  1.0000
  H   H41       1.0  0.02406  0.40923  0.57273  1.0000
  H   H42       1.0  0.02725  0.48881  0.81607  1.0000
  H   H43       1.0  0.25535  0.40223  0.29538  1.0000
  H   H44       1.0  0.21244  0.49712  0.97298  1.0000
  H   H45       1.0  0.32653  0.31879  0.46746  1.0000
  Fe  Fe7       1.0  0.31666  0.44860  0.05137  1.0000
  C   C31       1.0  0.03509  0.43747  0.11192  1.0000
  C   C32       1.0  0.00844  0.39039  0.11604  1.0000
  H   H46       1.0  0.03090  0.39608  0.06356  1.0000
  C   C33       1.0  0.00813  0.36092  0.71561  1.0000
  H   H47       1.0  0.05693  0.43487  0.72797  1.0000
  H   H48       1.0  0.22823  0.47440  0.15758  1.0000
  C   C34       1.0  0.23571  0.44684  0.26440  1.0000
  H   H49       1.0  0.01121  0.45941  0.46414  1.0000
  C   C35       1.0  0.04040  0.43155  0.72642  1.0000
  H   H50       1.0  0.05007  0.39147  0.71923  1.0000
  H   H51       1.0  0.03877  0.36987  0.63901  1.0000
  H   H52       1.0  0.06671  0.40385  0.14914  1.0000
  H   H53       1.0  0.01691  0.49154  0.52299  1.0000
  H   H54       1.0  0.17831  0.46425  0.96257  1.0000
  C   C36       1.0  0.31134  0.39467  0.09774  1.0000
  H   H55       1.0  0.29898  0.39088  0.12165  1.0000
  C   C37       1.0  0.01551  0.38426  0.07406  1.0000
  H   H56       1.0  0.23614  0.49834  0.04600  1.0000
  H   H57       1.0  0.05382  0.43166  0.15924  1.0000
  H   H58       1.0  0.02819  0.44395  0.13543  1.0000
  H   H59       1.0  0.05575  0.37704  0.16129  1.0000
  C   C38       1.0  0.23846  0.42699  0.26429  1.0000
  C   C39       1.0  0.99927  0.46151  0.71305  1.0000
  H   H60       1.0  0.00621  0.41695  0.17234  1.0000
  H   H61       1.0  0.00831  0.36681  0.64854  1.0000
  N   N2        1.0  0.02509  0.40282  0.15000  1.0000
  H   H62       1.0  0.06138  0.41262  0.68533  1.0000
  H   H63       1.0  0.26667  0.45255  0.19714  1.0000
  H   H64       1.0  0.17267  0.49808  0.05431  1.0000
  H   H65       1.0  0.04263  0.42352  0.64018  1.0000
  H   H66       1.0  0.22179  0.44439  0.24453  1.0000
  H   H67       1.0  0.32285  0.37490  0.12544  1.0000
  H   H68       1.0  0.30390  0.38399  0.06935  1.0000
  H   H69       1.0  0.06204  0.39329  0.62647  1.0000
  H   H70       1.0  0.18858  0.48779  0.07542  1.0000
  C   C40       1.0  0.02250  0.39789  0.59784  1.0000
  C   C41       1.0  0.26805  0.43961  0.21303  1.0000
  C   C42       1.0  0.28389  0.45004  0.25141  1.0000
  N   N3        1.0  0.24666  0.42251  0.22329  1.0000
  H   H71       1.0  0.23168  0.43575  0.18169  1.0000
  H   H72       1.0  0.03324  0.39162  0.58966  1.0000
  H   H73       1.0  0.21507  0.40958  0.19573  1.0000
  H   H74       1.0  0.05151  0.41963  0.10873  1.0000
  H   H75       1.0  0.04076  0.39586  0.20262  1.0000
  C   C43       1.0  0.23140  0.42050  0.18719  1.0000
  H   H76       1.0  0.01083  0.47826  0.71747  1.0000
  C   C44       1.0  0.01168  0.48556  0.82476  1.0000
  H   H77       1.0  0.31651  0.41098  0.08864  1.0000
  S   S15       1.0  0.31663  0.42601  0.99948  1.0000
  H   H78       1.0  0.02167  0.35776  0.71586  1.0000
  H   H79       1.0  0.02993  0.48598  0.46071  1.0000
  H   H80       1.0  0.00693  0.36705  0.74780  1.0000
  C   C45       1.0  0.01594  0.47341  0.44431  1.0000
  H   H81       1.0  0.00613  0.38535  0.59464  1.0000
  H   H82       1.0  0.99809  0.45649  0.67872  1.0000
  C   C46       1.0  0.99705  0.47769  0.43793  1.0000
  H   H83       1.0  0.02420  0.42987  0.08390  1.0000
  H   H84       1.0  0.16633  0.47433  0.99877  1.0000
  H   H85       1.0  0.00457  0.38286  0.04708  1.0000
  H   H86       1.0  0.02185  0.37347  0.17345  1.0000
  C   C47       1.0  0.01494  0.40903  0.18548  1.0000
  C   C48       1.0  0.00913  0.37543  0.67893  1.0000
  H   H87       1.0  0.00698  0.38354  0.23152  1.0000
  H   H88       1.0  0.99907  0.39836  0.10706  1.0000
  H   H89       1.0  0.99666  0.37546  0.12926  1.0000
  H   H90       1.0  0.00553  0.45268  0.73184  1.0000
  C   C49       1.0  0.20069  0.49204  0.99866  1.0000
  H   H91       1.0  0.17656  0.48714  0.94862  1.0000
  H   H92       1.0  0.32362  0.39739  0.94615  1.0000
  Fe  Fe8       1.0  0.99441  0.41658  0.34224  1.0000
  H   H93       1.0  0.01795  0.49412  0.36423  1.0000
  H   H94       1.0  0.01562  0.36909  0.07710  1.0000
  C   C50       1.0  0.99937  0.39123  0.21306  1.0000
  H   H95       1.0  0.99599  0.48209  0.28702  1.0000
  H   H96       1.0  0.99387  0.34568  0.71037  1.0000
  Fe  Fe9       1.0  0.10642  0.64648  0.11470  1.0000
  S   S16       1.0  0.12650  0.66691  0.06235  1.0000
  S   S17       1.0  0.07895  0.64809  0.14428  1.0000
  Fe  Fe10      1.0  0.12592  0.61750  0.11177  1.0000
  S   S18       1.0  0.14770  0.63525  0.05964  1.0000
  S   S19       1.0  0.12082  0.58850  0.14745  1.0000
  Fe  Fe11      1.0  0.15339  0.66485  0.09646  1.0000
  S   S20       1.0  0.18693  0.68999  0.11761  1.0000
  Fe  Fe12      1.0  0.11960  0.63630  0.02911  1.0000
  S   S21       1.0  0.11057  0.62633  0.95851  1.0000
  S   S22       1.0  0.13335  0.64654  0.15123  1.0000
  S   S23       1.0  0.09780  0.61644  0.07862  1.0000
  H   H97       1.0  0.21661  0.62000  0.25516  1.0000
  S   S24       1.0  0.14578  0.52150  0.07381  1.0000
  H   H98       1.0  0.00970  0.55871  0.95192  1.0000
  S   S25       1.0  0.02187  0.60759  0.87736  1.0000
  C   C51       1.0  0.19981  0.54439  0.01917  1.0000
  S   S26       1.0  0.01997  0.57585  0.76878  1.0000
  C   C52       1.0  0.99368  0.63542  0.76944  1.0000
  S   S27       1.0  0.04774  0.61142  0.32896  1.0000
  S   S28       1.0  0.01092  0.55815  0.36762  1.0000
  H   H99       1.0  0.20587  0.63542  0.27686  1.0000
  H   H100      1.0  0.07590  0.52794  0.21454  1.0000
  H   H101      1.0  0.18914  0.61008  0.25230  1.0000
  C   C53       1.0  0.07037  0.63711  0.19507  1.0000
  C   C54       1.0  0.04910  0.62851  0.20415  1.0000
  C   C55       1.0  0.04190  0.62015  0.24471  1.0000
  C   C56       1.0  0.05603  0.62091  0.27697  1.0000
  C   C57       1.0  0.07732  0.62963  0.26797  1.0000
  C   C58       1.0  0.08443  0.63735  0.22695  1.0000
  H   H102      1.0  0.03818  0.62841  0.17975  1.0000
  H   H103      1.0  0.02552  0.61375  0.25142  1.0000
  H   H104      1.0  0.08837  0.63043  0.29285  1.0000
  H   H105      1.0  0.10086  0.64413  0.22045  1.0000
  C   C59       1.0  0.08604  0.62175  0.93624  1.0000
  C   C60       1.0  0.07194  0.62543  0.96025  1.0000
  C   C61       1.0  0.05240  0.62123  0.94170  1.0000
  C   C62       1.0  0.04657  0.61278  0.89949  1.0000
  C   C63       1.0  0.06066  0.60906  0.87548  1.0000
  C   C64       1.0  0.08040  0.61377  0.89364  1.0000
  H   H106      1.0  0.07613  0.63167  0.99301  1.0000
  H   H107      1.0  0.04167  0.62431  0.96040  1.0000
  H   H108      1.0  0.05643  0.60270  0.84284  1.0000
  H   H109      1.0  0.09128  0.61102  0.87475  1.0000
  C   C65       1.0  0.12572  0.56900  0.12375  1.0000
  C   C66       1.0  0.13626  0.57216  0.08517  1.0000
  C   C67       1.0  0.14196  0.55725  0.06974  1.0000
  C   C68       1.0  0.13662  0.53883  0.09203  1.0000
  C   C69       1.0  0.12536  0.53532  0.12969  1.0000
  C   C70       1.0  0.12013  0.55047  0.14572  1.0000
  H   H110      1.0  0.14058  0.58634  0.06790  1.0000
  H   H111      1.0  0.15066  0.56004  0.04056  1.0000
  H   H112      1.0  0.12130  0.52124  0.14722  1.0000
  H   H113      1.0  0.11209  0.54798  0.17570  1.0000
  H   H114      1.0  0.20578  0.52752  0.96834  1.0000
  C   C71       1.0  0.20387  0.72679  0.07046  1.0000
  C   C72       1.0  0.20693  0.71515  0.10273  1.0000
  C   C73       1.0  0.03902  0.68136  0.77867  1.0000
  H   H115      1.0  0.03507  0.51778  0.50651  1.0000
  H   H116      1.0  0.18896  0.72046  0.05316  1.0000
  H   H117      1.0  0.05579  0.67129  0.73539  1.0000
  C   C74       1.0  0.02095  0.55388  0.96599  1.0000
  C   C75       1.0  0.03383  0.54128  0.19580  1.0000
  N   N4        1.0  0.05595  0.55449  0.94887  1.0000
  C   C76       1.0  0.06612  0.56641  0.99063  1.0000
  C   C77       1.0  0.03936  0.56043  0.93560  1.0000
  C   C78       1.0  0.07263  0.56124  0.91560  1.0000
  C   C79       1.0  0.04703  0.53151  0.95694  1.0000
  H   H118      1.0  0.04661  0.65242  0.85265  1.0000
  H   H119      1.0  0.00881  0.62023  0.80247  1.0000
  H   H120      1.0  0.02394  0.53132  0.42422  1.0000
  H   H121      1.0  0.07918  0.56162  0.84748  1.0000
  H   H122      1.0  0.07061  0.58330  0.98778  1.0000
  H   H123      1.0  0.05507  0.56082  0.01746  1.0000
  H   H124      1.0  0.03236  0.55408  0.90312  1.0000
  H   H125      1.0  0.04643  0.57759  0.93276  1.0000
  H   H126      1.0  0.23563  0.52827  0.01042  1.0000
  H   H127      1.0  0.08258  0.55349  0.92057  1.0000
  H   H128      1.0  0.05978  0.52743  0.96360  1.0000
  N   N5        1.0  0.20316  0.51047  0.02638  1.0000
  C   C80       1.0  0.24287  0.74369  0.11459  1.0000
  H   H129      1.0  0.07303  0.58060  0.14690  1.0000
  C   C81       1.0  0.02139  0.51498  0.42046  1.0000
  H   H130      1.0  0.08345  0.57830  0.91943  1.0000
  H   H131      1.0  0.02413  0.52172  0.90086  1.0000
  Fe  Fe13      1.0  0.00390  0.54255  0.78822  1.0000
  H   H132      1.0  0.03904  0.52006  0.36195  1.0000
  H   H133      1.0  0.05903  0.56914  0.33293  1.0000
  C   C82       1.0  0.22600  0.52259  0.03952  1.0000
  H   H134      1.0  0.05299  0.69663  0.77416  1.0000
  H   H135      1.0  0.19517  0.55257  0.99470  1.0000
  Fe  Fe14      1.0  0.01415  0.58750  0.33817  1.0000
  C   C83       1.0  0.06476  0.57173  0.29953  1.0000
  C   C84       1.0  0.05847  0.65511  0.82828  1.0000
  H   H136      1.0  0.16945  0.57771  0.15057  1.0000
  H   H137      1.0  0.18925  0.54168  0.04630  1.0000
  N   N6        1.0  0.18817  0.63080  0.17867  1.0000
  C   C85       1.0  0.19332  0.64860  0.14863  1.0000
  C   C86       1.0  0.17004  0.62884  0.20471  1.0000
  C   C87       1.0  0.18143  0.61123  0.15112  1.0000
  C   C88       1.0  0.20742  0.63552  0.20608  1.0000
  C   C89       1.0  0.20970  0.65195  0.11455  1.0000
  C   C90       1.0  0.17385  0.64844  0.23170  1.0000
  C   C91       1.0  0.17459  0.59073  0.17491  1.0000
  C   C92       1.0  0.20407  0.62447  0.24968  1.0000
  H   H138      1.0  0.17899  0.64669  0.13089  1.0000
  H   H139      1.0  0.19943  0.66371  0.16708  1.0000
  H   H140      1.0  0.16458  0.61572  0.22694  1.0000
  H   H141      1.0  0.15620  0.62488  0.18300  1.0000
  H   H142      1.0  0.16830  0.60901  0.12861  1.0000
  H   H143      1.0  0.19425  0.61245  0.13046  1.0000
  H   H144      1.0  0.21837  0.63193  0.18748  1.0000
  H   H145      1.0  0.21615  0.65256  0.21429  1.0000
  H   H146      1.0  0.22416  0.65268  0.12884  1.0000
  H   H147      1.0  0.20317  0.63983  0.08824  1.0000
  H   H148      1.0  0.21414  0.66711  0.09913  1.0000
  H   H149      1.0  0.17393  0.66078  0.21090  1.0000
  H   H150      1.0  0.16078  0.64431  0.25395  1.0000
  H   H151      1.0  0.18854  0.65487  0.25145  1.0000
  H   H152      1.0  0.16104  0.58694  0.19544  1.0000
  H   H153      1.0  0.18775  0.59066  0.19353  1.0000
  C   C93       1.0  0.22657  0.72384  0.12471  1.0000
  H   H154      1.0  0.22965  0.53694  0.05865  1.0000
  H   H155      1.0  0.02539  0.68394  0.77105  1.0000
  H   H156      1.0  0.03804  0.52726  0.98705  1.0000
  C   C94       1.0  0.03955  0.66496  0.74675  1.0000
  H   H157      1.0  0.05412  0.54124  0.85930  1.0000
  C   C95       1.0  0.05991  0.58312  0.15776  1.0000
  H   H158      1.0  0.03643  0.54281  0.16064  1.0000
  H   H159      1.0  0.08957  0.54626  0.25742  1.0000
  C   C96       1.0  0.19698  0.52371  0.99875  1.0000
  H   H160      1.0  0.02988  0.66456  0.71795  1.0000
  H   H161      1.0  0.18020  0.51619  0.11781  1.0000
  H   H162      1.0  0.06297  0.64538  0.76653  1.0000
  H   H163      1.0  0.04392  0.62481  0.79625  1.0000
  N   N7        1.0  0.03207  0.64318  0.76284  1.0000
  H   H164      1.0  0.09117  0.57383  0.03859  1.0000
  H   H165      1.0  0.25094  0.52146  0.07803  1.0000
  H   H166      1.0  0.03914  0.67799  0.81320  1.0000
  C   C97       1.0  0.04933  0.64129  0.78712  1.0000
  Fe  Fe15      1.0  0.00532  0.58149  0.82704  1.0000
  C   C98       1.0  0.02806  0.51836  0.20419  1.0000
  C   C99       1.0  0.19474  0.51702  0.10498  1.0000
  H   H167      1.0  0.20530  0.53367  0.10018  1.0000
  H   H168      1.0  0.01308  0.51578  0.35213  1.0000
  H   H169      1.0  0.09916  0.57358  0.98493  1.0000
  C   C100      1.0  0.01340  0.63618  0.79100  1.0000
  H   H170      1.0  0.06714  0.67185  0.82075  1.0000
  C   C101      1.0  0.08598  0.56548  0.00672  1.0000
  C   C102      1.0  0.07191  0.55608  0.21363  1.0000
  H   H171      1.0  0.05288  0.62435  0.70770  1.0000
  H   H172      1.0  0.05222  0.64672  0.68356  1.0000
  H   H173      1.0  0.06925  0.59168  0.22358  1.0000
  C   C103      1.0  0.04692  0.55689  0.26822  1.0000
  H   H174      1.0  0.01965  0.54318  0.20135  1.0000
  H   H175      1.0  0.06449  0.59977  0.15239  1.0000
  H   H176      1.0  0.02125  0.50161  0.93494  1.0000
  C   C104      1.0  0.02541  0.62811  0.72442  1.0000
  C   C105      1.0  0.04271  0.63044  0.69350  1.0000
  H   H177      1.0  0.04097  0.54106  0.28091  1.0000
  H   H178      1.0  0.08324  0.54932  0.01148  1.0000
  H   H179      1.0  0.03530  0.62076  0.66373  1.0000
  N   N8        1.0  0.05230  0.55784  0.22125  1.0000
  H   H180      1.0  0.07003  0.65111  0.84385  1.0000
  H   H181      1.0  0.22925  0.71509  0.14971  1.0000
  H   H182      1.0  0.07316  0.55329  0.17864  1.0000
  H   H183      1.0  0.03361  0.56039  0.27234  1.0000
  C   C106      1.0  0.05565  0.57885  0.20610  1.0000
  H   H184      1.0  0.08603  0.57122  0.22178  1.0000
  H   H185      1.0  0.99592  0.58786  0.50892  1.0000
  H   H186      1.0  0.02594  0.56182  0.99816  1.0000
  H   H187      1.0  0.04198  0.58135  0.21340  1.0000
  C   C107      1.0  0.07468  0.53903  0.23801  1.0000
  H   H188      1.0  0.07848  0.56892  0.29885  1.0000
  S   S29       1.0  0.02029  0.52298  0.78989  1.0000
  H   H189      1.0  0.06971  0.58832  0.29333  1.0000
  C   C108      1.0  0.03321  0.51609  0.92057  1.0000
  C   C109      1.0  0.06542  0.55760  0.86762  1.0000
  H   H190      1.0  0.06209  0.52976  0.25992  1.0000
  H   H191      1.0  0.01308  0.50814  0.18656  1.0000
  H   H192      1.0  0.00042  0.60195  0.58434  1.0000
  H   H193      1.0  0.03981  0.51422  0.19131  1.0000
  C   C110      1.0  0.22013  0.74668  0.06049  1.0000
  H   H194      1.0  0.18013  0.51504  0.98889  1.0000
  H   H195      1.0  0.01792  0.61172  0.73517  1.0000
  C   C111      1.0  0.18908  0.50247  0.06427  1.0000
  H   H196      1.0  0.00327  0.52312  0.48892  1.0000
  H   H197      1.0  0.05880  0.56796  0.85774  1.0000
  H   H198      1.0  0.01685  0.64579  0.82108  1.0000
  H   H199      1.0  0.04575  0.57402  0.13697  1.0000
  H   H200      1.0  0.01328  0.62941  0.70401  1.0000
  H   H201      1.0  0.01235  0.53673  0.96920  1.0000
  H   H202      1.0  0.03531  0.51537  0.43651  1.0000
  H   H203      1.0  0.21619  0.55516  0.02919  1.0000
  H   H204      1.0  0.01813  0.51396  0.54971  1.0000
  C   C112      1.0  0.02269  0.51074  0.37198  1.0000
  H   H205      1.0  0.02540  0.51426  0.23846  1.0000
  H   H206      1.0  0.20128  0.51132  0.13114  1.0000
  H   H207      1.0  0.22549  0.50335  0.09434  1.0000
  C   C113      1.0  0.23487  0.51052  0.06591  1.0000
  H   H208      1.0  0.18995  0.74123  0.18441  1.0000
  H   H209      1.0  0.99702  0.64989  0.75252  1.0000
  C   C114      1.0  0.99397  0.58531  0.57843  1.0000
  C   C115      1.0  0.00188  0.50715  0.48746  1.0000
  C   C116      1.0  0.01917  0.50751  0.51762  1.0000
  H   H210      1.0  0.04269  0.51175  0.89902  1.0000
  N   N9        1.0  0.00138  0.50016  0.44115  1.0000
  C   C117      1.0  0.00459  0.50012  0.81666  1.0000
  H   H211      1.0  0.32115  0.88296  0.01390  1.0000
  S   S30       1.0  0.29970  0.83856  0.09783  1.0000
  H   H212      1.0  0.30816  0.84590  0.98452  1.0000
  H   H213      1.0  0.27731  0.84478  0.99832  1.0000
  H   H214      1.0  0.31321  0.86795  0.89222  1.0000
  C   C118      1.0  0.22295  0.80296  0.21372  1.0000
  H   H215      1.0  0.25115  0.83428  0.21181  1.0000
  Fe  Fe16      1.0  0.29229  0.80453  0.09611  1.0000
  S   S31       1.0  0.25940  0.78096  0.06907  1.0000
  C   C119      1.0  0.21973  0.76956  0.18809  1.0000
  C   C120      1.0  0.29576  0.83006  0.97446  1.0000
  C   C121      1.0  0.22536  0.79626  0.13563  1.0000
  Fe  Fe17      1.0  0.31530  0.84073  0.16272  1.0000
  H   H216      1.0  0.29878  0.81922  0.99473  1.0000
  H   H217      1.0  0.23322  0.83203  0.25090  1.0000
  H   H218      1.0  0.18717  0.76411  0.19417  1.0000
  H   H219      1.0  0.24360  0.83090  0.13542  1.0000
  H   H220      1.0  0.29629  0.86426  0.93687  1.0000
  N   N10       1.0  0.23072  0.79279  0.18110  1.0000
  H   H221      1.0  0.25870  0.79139  0.16328  1.0000
  H   H222      1.0  0.30351  0.86376  0.31091  1.0000
  H   H223      1.0  0.22280  0.79701  0.24664  1.0000
  H   H224      1.0  0.22483  0.78388  0.11312  1.0000
  H   H225      1.0  0.28995  0.83218  0.86323  1.0000
  C   C122      1.0  0.23423  0.82702  0.21735  1.0000
  H   H226      1.0  0.26986  0.81963  0.01832  1.0000
  H   H227      1.0  0.22680  0.83364  0.19519  1.0000
  S   S32       1.0  0.30634  0.80651  0.16241  1.0000
  H   H228      1.0  0.25504  0.81708  0.10686  1.0000
  C   C123      1.0  0.19615  0.75788  0.17608  1.0000
  C   C124      1.0  0.25385  0.80005  0.18658  1.0000
  N   N11       1.0  0.29748  0.82579  0.92730  1.0000
  H   H229      1.0  0.28753  0.86456  0.88283  1.0000
  H   H230      1.0  0.20943  0.79493  0.13359  1.0000
  C   C125      1.0  0.28767  0.80265  0.91735  1.0000
  H   H231      1.0  0.27870  0.80462  0.23287  1.0000
  H   H232      1.0  0.20623  0.79839  0.20673  1.0000
  H   H233      1.0  0.26341  0.81663  0.17854  1.0000
  C   C126      1.0  0.28798  0.83553  0.89756  1.0000
  H   H234      1.0  0.26169  0.82173  0.96533  1.0000
  H   H235      1.0  0.22130  0.76612  0.22239  1.0000
  C   C127      1.0  0.23976  0.75535  0.08243  1.0000
  C   C128      1.0  0.24022  0.81698  0.11510  1.0000
  H   H236      1.0  0.31900  0.90883  0.96513  1.0000
  H   H237      1.0  0.19305  0.75788  0.14088  1.0000
  C   C129      1.0  0.27494  0.82897  0.98884  1.0000
  C   C130      1.0  0.31516  0.87762  0.29624  1.0000
  H   H238      1.0  0.23301  0.81836  0.08419  1.0000
  C   C131      1.0  0.32070  0.87644  0.25365  1.0000
  H   H239      1.0  0.27090  0.82872  0.90043  1.0000
  H   H240      1.0  0.25443  0.79504  0.90662  1.0000
  H   H241      1.0  0.25902  0.77332  0.91441  1.0000
  H   H242      1.0  0.26096  0.78922  0.96011  1.0000
  C   C132      1.0  0.29694  0.85940  0.90316  1.0000
  H   H243      1.0  0.29512  0.79529  0.93756  1.0000
  C   C133      1.0  0.26417  0.78974  0.92520  1.0000
  H   H244      1.0  0.21742  0.75541  0.03549  1.0000
  C   C134      1.0  0.26143  0.79778  0.23210  1.0000
  S   S33       1.0  0.30775  0.85191  0.22558  1.0000
  H   H245      1.0  0.25525  0.78123  0.24068  1.0000
  C   C135      1.0  0.32408  0.89669  0.31980  1.0000
  H   H246      1.0  0.25769  0.80651  0.25708  1.0000
  H   H247      1.0  0.22705  0.76169  0.16921  1.0000
  H   H248      1.0  0.29022  0.79971  0.88315  1.0000
  H   H249      1.0  0.31892  0.89741  0.35197  1.0000
  H   H250      1.0  0.25780  0.74997  0.13179  1.0000
  C   C136      1.0  0.32035  0.83517  0.91702  1.0000
  S   S34       1.0  0.32238  0.81144  0.06381  1.0000
  H   H251      1.0  0.32235  0.83447  0.88159  1.0000
  H   H252      1.0  0.36623  0.03046  0.59168  1.0000
  C   C137      1.0  0.61427  0.03291  0.75826  1.0000
  H   H253      1.0  0.36540  0.00152  0.73981  1.0000
  H   H254      1.0  0.61468  0.20358  0.04355  1.0000
  S   S35       1.0  0.40239  0.03472  0.84550  1.0000
  H   H255      1.0  0.37989  0.02982  0.22129  1.0000
  C   C138      1.0  0.43498  0.02046  0.98693  1.0000
  H   H256      1.0  0.56530  0.01720  0.12217  1.0000
  S   S36       1.0  0.57303  0.02174  0.27668  1.0000
  H   H257      1.0  0.39394  0.04432  0.66627  1.0000
  H   H258      1.0  0.43318  0.03299  0.00424  1.0000
  S   S37       1.0  0.43926  0.01688  0.30177  1.0000
  H   H259      1.0  0.42071  0.22042  0.06217  1.0000
  S   S38       1.0  0.60621  0.09038  0.06161  1.0000
  H   H260      1.0  0.46948  0.06370  0.86021  1.0000
  C   C139      1.0  0.60122  0.06025  0.91106  1.0000
  Fe  Fe18      1.0  0.61974  0.12468  0.07568  1.0000
  S   S39       1.0  0.60214  0.14008  0.10609  1.0000
  C   C140      1.0  0.65702  0.18756  0.98232  1.0000
  H   H261      1.0  0.50086  0.04531  0.99589  1.0000
  H   H262      1.0  0.36851  0.01051  0.56142  1.0000
  Fe  Fe19      1.0  0.43790  0.09900  0.06538  1.0000
  S   S40       1.0  0.43701  0.12005  0.11881  1.0000
  S   S41       1.0  0.40871  0.07189  0.03571  1.0000
  Fe  Fe20      1.0  0.48464  0.11506  0.07704  1.0000
  S   S42       1.0  0.48771  0.13708  0.13202  1.0000
  S   S43       1.0  0.50734  0.10638  0.04459  1.0000
  Fe  Fe21      1.0  0.45818  0.11063  0.15576  1.0000
  S   S44       1.0  0.45087  0.10275  0.22625  1.0000
  Fe  Fe22      1.0  0.46634  0.14537  0.09173  1.0000
  S   S45       1.0  0.47616  0.18045  0.08458  1.0000
  S   S46       1.0  0.45702  0.08810  0.10445  1.0000
  S   S47       1.0  0.46537  0.12484  0.03472  1.0000
  C   C141      1.0  0.57575  0.13057  0.08922  1.0000
  C   C142      1.0  0.56711  0.11616  0.05466  1.0000
  C   C143      1.0  0.54616  0.10898  0.04135  1.0000
  C   C144      1.0  0.53361  0.11601  0.06260  1.0000
  C   C145      1.0  0.54223  0.13042  0.09723  1.0000
  C   C146      1.0  0.56328  0.13774  0.11037  1.0000
  H   H263      1.0  0.57660  0.11066  0.03793  1.0000
  H   H264      1.0  0.53971  0.09798  0.01436  1.0000
  H   H265      1.0  0.53271  0.13595  0.11377  1.0000
  H   H266      1.0  0.56988  0.14889  0.13713  1.0000
  C   C147      1.0  0.46757  0.19942  0.09640  1.0000
  C   C148      1.0  0.44852  0.19432  0.11545  1.0000
  C   C149      1.0  0.44317  0.21014  0.12676  1.0000
  H   H267      1.0  0.44901  0.04131  0.83360  1.0000
  C   C150      1.0  0.48090  0.22054  0.08809  1.0000
  H   H268      1.0  0.43790  0.17820  0.12161  1.0000
  H   H269      1.0  0.42844  0.20595  0.14168  1.0000
  H   H270      1.0  0.49570  0.22477  0.07344  1.0000
  C   C151      1.0  0.44776  0.07892  0.24728  1.0000
  C   C152      1.0  0.45478  0.06654  0.22529  1.0000
  C   C153      1.0  0.45193  0.04761  0.24249  1.0000
  C   C154      1.0  0.44195  0.04072  0.28174  1.0000
  C   C155      1.0  0.43479  0.05301  0.30371  1.0000
  C   C156      1.0  0.43784  0.07211  0.28666  1.0000
  H   H271      1.0  0.46259  0.07165  0.19517  1.0000
  H   H272      1.0  0.45747  0.03823  0.22512  1.0000
  H   H273      1.0  0.42715  0.04794  0.33402  1.0000
  H   H274      1.0  0.43239  0.08159  0.30398  1.0000
  H   H275      1.0  0.62324  0.18279  0.09283  1.0000
  H   H276      1.0  0.64869  0.02831  0.76066  1.0000
  H   H277      1.0  0.45270  0.00703  0.56168  1.0000
  C   C157      1.0  0.58991  0.03353  0.23349  1.0000
  C   C158      1.0  0.60313  0.02597  0.21796  1.0000
  C   C159      1.0  0.61747  0.03676  0.18596  1.0000
  H   H278      1.0  0.63439  0.06302  0.69391  1.0000
  Fe  Fe23      1.0  0.63668  0.09417  0.08881  1.0000
  H   H279      1.0  0.53343  0.01983  0.22376  1.0000
  H   H280      1.0  0.62802  0.03112  0.17505  1.0000
  H   H281      1.0  0.48463  0.21985  0.28707  1.0000
  H   H282      1.0  0.60065  0.01737  0.76194  1.0000
  C   C160      1.0  0.40484  0.04481  0.89890  1.0000
  C   C161      1.0  0.41748  0.06623  0.90784  1.0000
  C   C162      1.0  0.41955  0.07462  0.95007  1.0000
  C   C163      1.0  0.40851  0.06169  0.98341  1.0000
  C   C164      1.0  0.39595  0.04027  0.97446  1.0000
  C   C165      1.0  0.39440  0.03179  0.93257  1.0000
  H   H283      1.0  0.42564  0.07639  0.88200  1.0000
  H   H284      1.0  0.42912  0.09118  0.95652  1.0000
  H   H285      1.0  0.38719  0.03020  0.99991  1.0000
  H   H286      1.0  0.38454  0.01529  0.92605  1.0000
  C   C166      1.0  0.59599  0.02303  0.86910  1.0000
  C   C167      1.0  0.58146  0.03026  0.86160  1.0000
  C   C168      1.0  0.58415  0.04884  0.88233  1.0000
  C   C169      1.0  0.40052  0.03410  0.72686  1.0000
  S   S48       1.0  0.63371  0.13358  0.01082  1.0000
  S   S49       1.0  0.59342  0.99978  0.84394  1.0000
  H   H287      1.0  0.56814  0.02156  0.83990  1.0000
  H   H288      1.0  0.57284  0.05435  0.87634  1.0000
  H   H289      1.0  0.41862  0.20381  0.94262  1.0000
  C   C170      1.0  0.48304  0.00991  0.25017  1.0000
  C   C171      1.0  0.47546  0.23635  0.09901  1.0000
  C   C172      1.0  0.37287  0.01950  0.59269  1.0000
  H   H290      1.0  0.47494  0.00894  0.53238  1.0000
  N   N12       1.0  0.50074  0.01619  0.28299  1.0000
  H   H291      1.0  0.61316  0.06010  0.78756  1.0000
  H   H292      1.0  0.59289  0.05360  0.00688  1.0000
  C   C173      1.0  0.49297  0.01422  0.32842  1.0000
  H   H293      1.0  0.48406  0.23036  0.23451  1.0000
  C   C174      1.0  0.50780  0.05469  0.28630  1.0000
  C   C175      1.0  0.45774  0.00247  0.53165  1.0000
  H   H294      1.0  0.58891  0.04090  0.76487  1.0000
  N   N13       1.0  0.39638  0.03329  0.16186  1.0000
  H   H295      1.0  0.46273  0.22311  0.26919  1.0000
  H   H296      1.0  0.39960  0.02027  0.07494  1.0000
  C   C176      1.0  0.36315  0.99998  0.13419  1.0000
  H   H297      1.0  0.56382  0.00601  0.00381  1.0000
  H   H298      1.0  0.61960  0.04905  0.03226  1.0000
  H   H299      1.0  0.48055  0.01912  0.33035  1.0000
  H   H300      1.0  0.47398  0.01833  0.25710  1.0000
  C   C177      1.0  0.51598  0.03888  0.27678  1.0000
  C   C178      1.0  0.63853  0.02102  0.73134  1.0000
  H   H301      1.0  0.49466  0.05237  0.26411  1.0000
  H   H302      1.0  0.57016  0.04003  0.03931  1.0000
  N   N14       1.0  0.65269  0.19802  0.06051  1.0000
  H   H303      1.0  0.33788  0.01312  0.67003  1.0000
  H   H304      1.0  0.60516  0.07592  0.16950  1.0000
  C   C179      1.0  0.61660  0.03282  0.02449  1.0000
  C   C180      1.0  0.63609  0.19879  0.08799  1.0000
  S   S50       1.0  0.65267  0.10134  0.02480  1.0000
  C   C181      1.0  0.35439  0.02376  0.68020  1.0000
  H   H305      1.0  0.35519  0.02404  0.75227  1.0000
  H   H306      1.0  0.48884  0.01505  0.21732  1.0000
  N   N15       1.0  0.47726  0.18635  0.22884  1.0000
  C   C182      1.0  0.46360  0.19646  0.23794  1.0000
  C   C183      1.0  0.46395  0.16634  0.20338  1.0000
  C   C184      1.0  0.49483  0.20111  0.20171  1.0000
  C   C185      1.0  0.48557  0.18274  0.27117  1.0000
  H   H307      1.0  0.65077  0.05270  0.67816  1.0000
  C   C186      1.0  0.44388  0.15080  0.22523  1.0000
  C   C187      1.0  0.50989  0.19348  0.18471  1.0000
  H   H308      1.0  0.64513  0.16689  0.07992  1.0000
  H   H309      1.0  0.45546  0.19731  0.20773  1.0000
  H   H310      1.0  0.45102  0.18698  0.26019  1.0000
  H   H311      1.0  0.35901  0.03682  0.65766  1.0000
  H   H312      1.0  0.45918  0.16975  0.17145  1.0000
  H   H313      1.0  0.48844  0.20562  0.17322  1.0000
  H   H314      1.0  0.50495  0.21591  0.22001  1.0000
  H   H315      1.0  0.49907  0.19742  0.28384  1.0000
  H   H316      1.0  0.47343  0.17829  0.29593  1.0000
  N   N16       1.0  0.36806  0.01343  0.67496  1.0000
  H   H317      1.0  0.62895  0.17405  0.01878  1.0000
  H   H318      1.0  0.60160  0.01964  0.10354  1.0000
  H   H319      1.0  0.52623  0.00999  0.30047  1.0000
  H   H320      1.0  0.63743  0.22761  0.06176  1.0000
  C   C188      1.0  0.64194  0.05391  0.70610  1.0000
  C   C189      1.0  0.47470  0.21870  0.25845  1.0000
  H   H321      1.0  0.60280  0.01222  0.23163  1.0000
  H   H322      1.0  0.37683  0.03024  0.10499  1.0000
  H   H323      1.0  0.40507  0.08507  0.17430  1.0000
  H   H324      1.0  0.40736  0.04099  0.22851  1.0000
  C   C190      1.0  0.40655  0.21959  0.04634  1.0000
  N   N17       1.0  0.46644  0.04453  0.94179  1.0000
  C   C191      1.0  0.45782  0.02766  0.97460  1.0000
  C   C192      1.0  0.48814  0.04808  0.93220  1.0000
  C   C193      1.0  0.45246  0.03655  0.90160  1.0000
  C   C194      1.0  0.46623  0.06371  0.96084  1.0000
  H   H325      1.0  0.40691  0.06078  0.12287  1.0000
  C   C195      1.0  0.50428  0.05677  0.97021  1.0000
  C   C196      1.0  0.47682  0.08393  0.93551  1.0000
  H   H326      1.0  0.45877  0.01350  0.96288  1.0000
  H   H327      1.0  0.46715  0.03279  0.00545  1.0000
  H   H328      1.0  0.49503  0.05905  0.90572  1.0000
  H   H329      1.0  0.48758  0.03325  0.92013  1.0000
  H   H330      1.0  0.44686  0.01950  0.89611  1.0000
  H   H331      1.0  0.44992  0.06085  0.96458  1.0000
  H   H332      1.0  0.47280  0.06725  0.99459  1.0000
  C   C197      1.0  0.61187  0.02067  0.68178  1.0000
  H   H333      1.0  0.47970  0.15064  0.28331  1.0000
  H   H334      1.0  0.38843  0.00626  0.25905  1.0000
  H   H335      1.0  0.60821  0.05821  0.73030  1.0000
  C   C198      1.0  0.63426  0.03019  0.04760  1.0000
  H   H336      1.0  0.50568  0.17000  0.29467  1.0000
  H   H337      1.0  0.44684  0.14816  0.25916  1.0000
  H   H338      1.0  0.49114  0.08614  0.91960  1.0000
  H   H339      1.0  0.49748  0.16211  0.24015  1.0000
  C   C199      1.0  0.60597  0.04906  0.75949  1.0000
  H   H340      1.0  0.42212  0.04544  0.08591  1.0000
  H   H341      1.0  0.43014  0.00726  0.00911  1.0000
  C   C200      1.0  0.37551  0.02398  0.13801  1.0000
  H   H342      1.0  0.50579  0.02493  0.35122  1.0000
  H   H343      1.0  0.58937  0.01980  0.63386  1.0000
  H   H344      1.0  0.63714  0.19988  0.00140  1.0000
  H   H345      1.0  0.56753  0.04019  0.98191  1.0000
  H   H346      1.0  0.43816  0.03823  0.90545  1.0000
  H   H347      1.0  0.37993  0.06286  0.16965  1.0000
  H   H348      1.0  0.39486  0.21552  0.07182  1.0000
  H   H349      1.0  0.40072  0.02387  0.66259  1.0000
  C   C201      1.0  0.46181  0.04650  0.85858  1.0000
  H   H350      1.0  0.33958  0.03387  0.72877  1.0000
  N   N18       1.0  0.62633  0.03245  0.71958  1.0000
  H   H351      1.0  0.61645  0.21367  0.09690  1.0000
  H   H352      1.0  0.50313  0.05439  0.32019  1.0000
  H   H353      1.0  0.62075  0.01819  0.65539  1.0000
  C   C202      1.0  0.41031  0.24042  0.02721  1.0000
  C   C203      1.0  0.60466  0.06202  0.18279  1.0000
  H   H354      1.0  0.58467  0.01936  0.96962  1.0000
  S   S51       1.0  0.63662  0.06784  0.12787  1.0000
  C   C204      1.0  0.59085  0.02182  0.08070  1.0000
  C   C205      1.0  0.49233  0.16539  0.27127  1.0000
  C   C206      1.0  0.40652  0.05666  0.15724  1.0000
  H   H355      1.0  0.58065  0.05760  0.22752  1.0000
  H   H356      1.0  0.65409  0.18428  0.15029  1.0000
  H   H357      1.0  0.44512  0.22296  0.94374  1.0000
  H   H358      1.0  0.50564  0.07155  0.98409  1.0000
  S   S52       1.0  0.64938  0.12821  0.10820  1.0000
  H   H359      1.0  0.43725  0.13546  0.20774  1.0000
  H   H360      1.0  0.40610  0.22723  0.94742  1.0000
  H   H361      1.0  0.52053  0.07068  0.28118  1.0000
  C   C207      1.0  0.45657  0.23129  0.11874  1.0000
  H   H362      1.0  0.39017  0.02831  0.59406  1.0000
  Fe  Fe24      1.0  0.62259  0.09925  0.99870  1.0000
  H   H363      1.0  0.52087  0.20535  0.16291  1.0000
  H   H364      1.0  0.64251  0.20534  0.12085  1.0000
  H   H365      1.0  0.61910  0.03246  0.98939  1.0000
  H   H366      1.0  0.41668  0.04716  0.72628  1.0000
  H   H367      1.0  0.36492  0.02899  0.15386  1.0000
  H   H368      1.0  0.47291  0.04108  0.84717  1.0000
  H   H369      1.0  0.39193  0.03894  0.74947  1.0000
  C   C208      1.0  0.57759  0.03954  0.00873  1.0000
  C   C209      1.0  0.57973  0.01953  0.00330  1.0000
  C   C210      1.0  0.61583  0.05310  0.91825  1.0000
  H   H370      1.0  0.53038  0.04371  0.29747  1.0000
  H   H371      1.0  0.47260  0.15770  0.19530  1.0000
  H   H372      1.0  0.39709  0.06705  0.21658  1.0000
  H   H373      1.0  0.63338  0.03042  0.08316  1.0000
  H   H374      1.0  0.59495  0.03854  0.08617  1.0000
  H   H375      1.0  0.51991  0.06035  0.95830  1.0000
  C   C211      1.0  0.61323  0.03459  0.89733  1.0000
  C   C212      1.0  0.62582  0.21178  0.07098  1.0000
  H   H376      1.0  0.42652  0.03408  0.16010  1.0000
  H   H377      1.0  0.39992  0.20670  0.02168  1.0000
  C   C213      1.0  0.39380  0.02887  0.20944  1.0000
  H   H378      1.0  0.42312  0.06409  0.16882  1.0000
  C   C214      1.0  0.35453  0.03335  0.72506  1.0000
  C   C215      1.0  0.41092  0.02593  0.14316  1.0000
  H   H379      1.0  0.62385  0.03561  0.78858  1.0000
  H   H380      1.0  0.52131  0.04152  0.24303  1.0000
  H   H381      1.0  0.48213  0.09751  0.95851  1.0000
  H   H382      1.0  0.36758  0.04949  0.72882  1.0000
  C   C216      1.0  0.39626  0.06820  0.18104  1.0000
  N   N19       1.0  0.59458  0.01731  0.03504  1.0000
  H   H383      1.0  0.64920  0.02201  0.70511  1.0000
  H   H384      1.0  0.58747  0.03061  0.68411  1.0000
  C   C217      1.0  0.39089  0.02922  0.68051  1.0000
  H   H385      1.0  0.62926  0.06199  0.93957  1.0000
  H   H386      1.0  0.60023  0.00484  0.69120  1.0000
  H   H387      1.0  0.43167  0.21361  0.99333  1.0000
  C   C218      1.0  0.59071  0.05155  0.21561  1.0000
  H   H388      1.0  0.62465  0.02921  0.90301  1.0000
  H   H389      1.0  0.42488  0.02239  0.08451  1.0000
  S   S53       1.0  0.60383  0.08346  0.93654  1.0000
  C   C219      1.0  0.61835  0.05486  0.16826  1.0000
  H   H390      1.0  0.42397  0.01466  0.95868  1.0000
  H   H391      1.0  0.46570  0.08482  0.91152  1.0000
  C   C220      1.0  0.43020  0.21822  0.96022  1.0000
  H   H392      1.0  0.43173  0.15598  0.22360  1.0000
  C   C221      1.0  0.42308  0.23522  0.95637  1.0000
  C   C222      1.0  0.64291  0.18967  0.01629  1.0000
  H   H393      1.0  0.42145  0.01469  0.60036  1.0000
  H   H394      1.0  0.50181  0.17891  0.16493  1.0000
  H   H395      1.0  0.51957  0.19198  0.21112  1.0000
  C   C223      1.0  0.59884  0.03018  0.66144  1.0000
  H   H396      1.0  0.40180  0.02061  0.74002  1.0000
  H   H397      1.0  0.60852  0.04571  0.64803  1.0000
  H   H398      1.0  0.64734  0.17961  0.95286  1.0000
  H   H399      1.0  0.64948  0.04355  0.03978  1.0000
  H   H400      1.0  0.39496  0.23722  0.01255  1.0000
  H   H401      1.0  0.63468  0.01580  0.03652  1.0000
  C   C224      1.0  0.41436  0.02881  0.09435  1.0000
  H   H402      1.0  0.40559  0.00917  0.14840  1.0000
  H   H403      1.0  0.43106  0.24438  0.92783  1.0000
  C   C225      1.0  0.52097  0.00416  0.23181  1.0000
  H   H404      1.0  0.44904  0.24217  0.03089  1.0000
  Fe  Fe25      1.0  0.39629  0.00128  0.83699  1.0000
  C   C226      1.0  0.51261  0.00399  0.27718  1.0000
  H   H405      1.0  0.45366  0.01011  0.50507  1.0000
  C   C227      1.0  0.65875  0.18278  0.08069  1.0000
  S   S54       1.0  0.40465  0.99943  0.51451  1.0000
  H   H406      1.0  0.65058  0.06893  0.77142  1.0000
  C   C228      1.0  0.65806  0.06770  0.74149  1.0000
  C   C229      1.0  0.39209  0.00795  0.22426  1.0000
  C   C230      1.0  0.56880  0.00808  0.09748  1.0000
  H   H407      1.0  0.55627  0.00326  0.07230  1.0000
  H   H408      1.0  0.40721  0.00769  0.22171  1.0000
  C   C231      1.0  0.36423  0.00401  0.62966  1.0000
  Fe  Fe26      1.0  0.44312  0.41712  0.85531  1.0000
  S   S55       1.0  0.42675  0.42748  0.80734  1.0000
  S   S56       1.0  0.47547  0.43798  0.88198  1.0000
  Fe  Fe27      1.0  0.40533  0.37546  0.86716  1.0000
  S   S57       1.0  0.38522  0.38250  0.82014  1.0000
  S   S58       1.0  0.39509  0.34816  0.91173  1.0000
  Fe  Fe28      1.0  0.41348  0.39510  0.77775  1.0000
  S   S59       1.0  0.41832  0.38976  0.70625  1.0000
  Fe  Fe29      1.0  0.40021  0.41457  0.85322  1.0000
  C   C232      1.0  0.35599  0.44896  0.96621  1.0000
  S   S60       1.0  0.43232  0.38578  0.82340  1.0000
  S   S61       1.0  0.41779  0.40628  0.90253  1.0000
  Fe  Fe30      1.0  0.39509  0.39530  0.45288  1.0000
  S   S62       1.0  0.41486  0.42509  0.41934  1.0000
  S   S63       1.0  0.38263  0.39621  0.51955  1.0000
  Fe  Fe31      1.0  0.39769  0.36841  0.37837  1.0000
  S   S64       1.0  0.41758  0.39604  0.34000  1.0000
  S   S65       1.0  0.39304  0.33651  0.35678  1.0000
  Fe  Fe32      1.0  0.43444  0.40980  0.40275  1.0000
  S   S66       1.0  0.46929  0.42508  0.40576  1.0000
  Fe  Fe33      1.0  0.39599  0.40891  0.35862  1.0000
  H   H409      1.0  0.38818  0.45401  0.24093  1.0000
  S   S67       1.0  0.41632  0.38139  0.44046  1.0000
  S   S68       1.0  0.37435  0.37985  0.39322  1.0000
  S   S69       1.0  0.34188  0.45990  0.10318  1.0000
  Fe  Fe34      1.0  0.46474  0.31758  0.05690  1.0000
  S   S70       1.0  0.47585  0.34409  0.10524  1.0000
  S   S71       1.0  0.46211  0.32239  0.98535  1.0000
  Fe  Fe35      1.0  0.46140  0.28586  0.12424  1.0000
  S   S72       1.0  0.47189  0.31032  0.17878  1.0000
  H   H410      1.0  0.35781  0.45246  0.19920  1.0000
  Fe  Fe36      1.0  0.45095  0.32167  0.14758  1.0000
  S   S73       1.0  0.43235  0.33694  0.17496  1.0000
  Fe  Fe37      1.0  0.49606  0.33135  0.13297  1.0000
  S   S74       1.0  0.52858  0.35435  0.15872  1.0000
  S   S75       1.0  0.43836  0.29582  0.09669  1.0000
  S   S76       1.0  0.48718  0.30628  0.08092  1.0000
  Fe  Fe38      1.0  0.33728  0.48840  0.10624  1.0000
  S   S77       1.0  0.63854  0.46930  0.10452  1.0000
  Fe  Fe39      1.0  0.62134  0.45124  0.04391  1.0000
  S   S78       1.0  0.59195  0.42036  0.03157  1.0000
  C   C233      1.0  0.38796  0.33877  0.52352  1.0000
  H   H411      1.0  0.35570  0.37564  0.11964  1.0000
  N   N20       1.0  0.36466  0.33059  0.51872  1.0000
  C   C234      1.0  0.54639  0.37236  0.12316  1.0000
  C   C235      1.0  0.56653  0.38678  0.13847  1.0000
  C   C236      1.0  0.58070  0.40183  0.11110  1.0000
  C   C237      1.0  0.57489  0.40224  0.06799  1.0000
  C   C238      1.0  0.55488  0.38757  0.05260  1.0000
  C   C239      1.0  0.54064  0.37279  0.08009  1.0000
  H   H412      1.0  0.57118  0.38631  0.17163  1.0000
  H   H413      1.0  0.59624  0.41274  0.12304  1.0000
  H   H414      1.0  0.55043  0.38752  0.01908  1.0000
  H   H415      1.0  0.52532  0.36149  0.06789  1.0000
  C   C240      1.0  0.40310  0.33561  0.30569  1.0000
  C   C241      1.0  0.41212  0.32247  0.29799  1.0000
  C   C242      1.0  0.42111  0.32247  0.25804  1.0000
  C   C243      1.0  0.42063  0.33525  0.22524  1.0000
  C   C244      1.0  0.41109  0.34790  0.23268  1.0000
  C   C245      1.0  0.40250  0.34820  0.27270  1.0000
  H   H416      1.0  0.41253  0.31257  0.32324  1.0000
  H   H417      1.0  0.42835  0.31260  0.25261  1.0000
  H   H418      1.0  0.41048  0.35769  0.20739  1.0000
  H   H419      1.0  0.39530  0.35811  0.27791  1.0000
  C   C246      1.0  0.39776  0.33067  0.48925  1.0000
  C   C247      1.0  0.34976  0.41088  0.28442  1.0000
  C   C248      1.0  0.46751  0.26733  0.99016  1.0000
  Fe  Fe40      1.0  0.63346  0.49537  0.07815  1.0000
  H   H420      1.0  0.39566  0.33498  0.45613  1.0000
  H   H421      1.0  0.41097  0.28281  0.94429  1.0000
  C   C249      1.0  0.49895  0.45523  0.35827  1.0000
  C   C250      1.0  0.47785  0.44467  0.36795  1.0000
  C   C251      1.0  0.46350  0.44941  0.34653  1.0000
  C   C252      1.0  0.47034  0.46512  0.31624  1.0000
  H   H422      1.0  0.51003  0.45142  0.37439  1.0000
  H   H423      1.0  0.44715  0.44126  0.35359  1.0000
  H   H424      1.0  0.45928  0.46913  0.30058  1.0000
  C   C253      1.0  0.39371  0.39596  0.57128  1.0000
  C   C254      1.0  0.38358  0.39724  0.60854  1.0000
  C   C255      1.0  0.39117  0.39600  0.65015  1.0000
  C   C256      1.0  0.40893  0.39325  0.65503  1.0000
  C   C257      1.0  0.41920  0.39221  0.61771  1.0000
  C   C258      1.0  0.41174  0.39367  0.57614  1.0000
  H   H425      1.0  0.39082  0.44468  0.10527  1.0000
  H   H426      1.0  0.38723  0.49362  0.21699  1.0000
  H   H427      1.0  0.43293  0.39006  0.62108  1.0000
  H   H428      1.0  0.41977  0.39271  0.54793  1.0000
  C   C259      1.0  0.41405  0.34149  0.93234  1.0000
  C   C260      1.0  0.41319  0.33527  0.97522  1.0000
  C   C261      1.0  0.42786  0.32946  0.99202  1.0000
  C   C262      1.0  0.44310  0.32920  0.96556  1.0000
  C   C263      1.0  0.44357  0.33482  0.92234  1.0000
  C   C264      1.0  0.42939  0.34133  0.90602  1.0000
  H   H429      1.0  0.40125  0.33516  0.99566  1.0000
  H   H430      1.0  0.42729  0.32512  0.02535  1.0000
  H   H431      1.0  0.45514  0.33441  0.90148  1.0000
  H   H432      1.0  0.42995  0.34570  0.87273  1.0000
  C   C265      1.0  0.37103  0.43438  0.91426  1.0000
  C   C266      1.0  0.35373  0.41477  0.91811  1.0000
  N   N21       1.0  0.42735  0.24975  0.99504  1.0000
  H   H433      1.0  0.47111  0.28383  0.98610  1.0000
  H   H434      1.0  0.33399  0.37087  0.05327  1.0000
  C   C267      1.0  0.49196  0.44936  0.83936  1.0000
  C   C268      1.0  0.48483  0.44287  0.79677  1.0000
  C   C269      1.0  0.49777  0.45293  0.76264  1.0000
  C   C270      1.0  0.51216  0.46546  0.84799  1.0000
  H   H435      1.0  0.46928  0.43028  0.78996  1.0000
  H   H436      1.0  0.49208  0.44827  0.72965  1.0000
  H   H437      1.0  0.48939  0.38003  0.02564  1.0000
  S   S79       1.0  0.50034  0.49732  0.27349  1.0000
  H   H438      1.0  0.54083  0.48754  0.82054  1.0000
  H   H439      1.0  0.55876  0.45945  0.04900  1.0000
  H   H440      1.0  0.34539  0.29170  0.57716  1.0000
  H   H441      1.0  0.43542  0.46755  0.55431  1.0000
  H   H442      1.0  0.46336  0.46790  0.83660  1.0000
  C   C271      1.0  0.36063  0.33906  0.47739  1.0000
  C   C272      1.0  0.37266  0.44165  0.24640  1.0000
  H   H443      1.0  0.38316  0.44547  0.05084  1.0000
  H   H444      1.0  0.39271  0.33520  0.55513  1.0000
  C   C273      1.0  0.34279  0.38807  0.04934  1.0000
  C   C274      1.0  0.52509  0.47541  0.81389  1.0000
  C   C275      1.0  0.53958  0.46138  0.18077  1.0000
  N   N22       1.0  0.56572  0.44851  0.15629  1.0000
  C   C276      1.0  0.58899  0.45605  0.15564  1.0000
  C   C277      1.0  0.55770  0.44476  0.10995  1.0000
  C   C278      1.0  0.55599  0.42839  0.18046  1.0000
  C   C279      1.0  0.33827  0.42954  0.96859  1.0000
  C   C280      1.0  0.60009  0.45768  0.19975  1.0000
  H   H445      1.0  0.43013  0.45709  0.93469  1.0000
  C   C281      1.0  0.53303  0.41269  0.16896  1.0000
  H   H446      1.0  0.35708  0.39537  0.18604  1.0000
  H   H447      1.0  0.59250  0.44568  0.13420  1.0000
  C   C282      1.0  0.47897  0.49224  0.79308  1.0000
  H   H448      1.0  0.54047  0.43758  0.10727  1.0000
  H   H449      1.0  0.49252  0.48930  0.79832  1.0000
  H   H450      1.0  0.56468  0.41942  0.17505  1.0000
  H   H451      1.0  0.55724  0.43163  0.21593  1.0000
  H   H452      1.0  0.56792  0.46721  0.21328  1.0000
  H   H453      1.0  0.38874  0.42514  0.06618  1.0000
  H   H454      1.0  0.59867  0.46881  0.22260  1.0000
  H   H455      1.0  0.59458  0.44232  0.21472  1.0000
  H   H456      1.0  0.61704  0.46375  0.19468  1.0000
  S   S80       1.0  0.61496  0.47662  0.01996  1.0000
  H   H457      1.0  0.38537  0.46667  0.93561  1.0000
  H   H458      1.0  0.56146  0.47597  0.09477  1.0000
  H   H459      1.0  0.52778  0.39955  0.19138  1.0000
  H   H460      1.0  0.53142  0.40559  0.13614  1.0000
  H   H461      1.0  0.52237  0.41960  0.17170  1.0000
  C   C283      1.0  0.47559  0.43145  0.56007  1.0000
  H   H462      1.0  0.45024  0.26597  0.04646  1.0000
  H   H463      1.0  0.35686  0.46227  0.98418  1.0000
  H   H464      1.0  0.44339  0.43728  0.56285  1.0000
  H   H465      1.0  0.37636  0.41961  0.16456  1.0000
  C   C284      1.0  0.47722  0.47812  0.55440  1.0000
  H   H466      1.0  0.39607  0.35612  0.52304  1.0000
  H   H467      1.0  0.51618  0.39900  0.85487  1.0000
  H   H468      1.0  0.47552  0.43750  0.59294  1.0000
  H   H469      1.0  0.50814  0.37373  0.94187  1.0000
  C   C285      1.0  0.35292  0.30712  0.51490  1.0000
  C   C286      1.0  0.32930  0.39177  0.11845  1.0000
  H   H470      1.0  0.56159  0.43326  0.09360  1.0000
  C   C287      1.0  0.37005  0.40245  0.16338  1.0000
  H   H471      1.0  0.36963  0.39902  0.60525  1.0000
  H   H472      1.0  0.41487  0.33793  0.49603  1.0000
  H   H473      1.0  0.36794  0.40845  0.00736  1.0000
  H   H474      1.0  0.48145  0.36421  0.95098  1.0000
  H   H475      1.0  0.52192  0.47858  0.31934  1.0000
  S   S81       1.0  0.65048  0.46191  0.00540  1.0000
  S   S82       1.0  0.44869  0.25046  0.13360  1.0000
  C   C288      1.0  0.37214  0.45141  0.93869  1.0000
  C   C289      1.0  0.49127  0.48032  0.46066  1.0000
  H   H476      1.0  0.50154  0.36419  0.01553  1.0000
  H   H477      1.0  0.53024  0.40782  0.92456  1.0000
  N   N23       1.0  0.47573  0.39303  0.28665  1.0000
  C   C290      1.0  0.47120  0.40940  0.26671  1.0000
  C   C291      1.0  0.49550  0.40434  0.31409  1.0000
  C   C292      1.0  0.45793  0.38046  0.31543  1.0000
  C   C293      1.0  0.47736  0.37950  0.25092  1.0000
  C   C294      1.0  0.45095  0.40128  0.23848  1.0000
  C   C295      1.0  0.51490  0.41978  0.29029  1.0000
  C   C296      1.0  0.45923  0.36304  0.34065  1.0000
  C   C297      1.0  0.48970  0.36746  0.26127  1.0000
  H   H478      1.0  0.47048  0.42006  0.29213  1.0000
  H   H479      1.0  0.48391  0.41946  0.24537  1.0000
  H   H480      1.0  0.49986  0.39347  0.33050  1.0000
  H   H481      1.0  0.49308  0.41326  0.34103  1.0000
  H   H482      1.0  0.45593  0.39091  0.33950  1.0000
  H   H483      1.0  0.44303  0.37255  0.29649  1.0000
  H   H484      1.0  0.46152  0.36784  0.23884  1.0000
  H   H485      1.0  0.48498  0.38914  0.22271  1.0000
  H   H486      1.0  0.43680  0.39416  0.25792  1.0000
  H   H487      1.0  0.45060  0.41470  0.22253  1.0000
  H   H488      1.0  0.44998  0.39009  0.21260  1.0000
  H   H489      1.0  0.52907  0.42410  0.31113  1.0000
  H   H490      1.0  0.51687  0.41298  0.25961  1.0000
  H   H491      1.0  0.51424  0.43448  0.28414  1.0000
  H   H492      1.0  0.47329  0.36884  0.36224  1.0000
  H   H493      1.0  0.45795  0.35025  0.31869  1.0000
  H   H494      1.0  0.44557  0.35600  0.36171  1.0000
  H   H495      1.0  0.48174  0.35192  0.24429  1.0000
  H   H496      1.0  0.49098  0.36444  0.29564  1.0000
  H   H497      1.0  0.50550  0.37535  0.24776  1.0000
  C   C298      1.0  0.38148  0.43467  0.07724  1.0000
  N   N24       1.0  0.49765  0.39719  0.93853  1.0000
  C   C299      1.0  0.48527  0.40502  0.96449  1.0000
  C   C300      1.0  0.52013  0.41387  0.93904  1.0000
  H   H498      1.0  0.52634  0.41865  0.97274  1.0000
  C   C301      1.0  0.48838  0.39188  0.89319  1.0000
  C   C302      1.0  0.46196  0.38945  0.96914  1.0000
  C   C303      1.0  0.52448  0.43414  0.91614  1.0000
  H   H499      1.0  0.49782  0.45902  0.52908  1.0000
  C   C304      1.0  0.50054  0.38587  0.86055  1.0000
  H   H500      1.0  0.49245  0.41052  0.99734  1.0000
  H   H501      1.0  0.48549  0.41891  0.94973  1.0000
  H   H502      1.0  0.50083  0.49486  0.48001  1.0000
  C   C305      1.0  0.49153  0.47615  0.30755  1.0000
  H   H503      1.0  0.41340  0.25167  0.05481  1.0000
  C   C306      1.0  0.56227  0.46511  0.17904  1.0000
  H   H504      1.0  0.47235  0.37848  0.89288  1.0000
  H   H505      1.0  0.48639  0.40496  0.87974  1.0000
  H   H506      1.0  0.45949  0.37454  0.98292  1.0000
  H   H507      1.0  0.45493  0.39639  0.99135  1.0000
  H   H508      1.0  0.45309  0.38633  0.93791  1.0000
  H   H509      1.0  0.51966  0.43138  0.88150  1.0000
  H   H510      1.0  0.51693  0.44251  0.93210  1.0000
  H   H511      1.0  0.54155  0.44483  0.91768  1.0000
  H   H512      1.0  0.38304  0.39676  0.67842  1.0000
  C   C307      1.0  0.44552  0.44481  0.53130  1.0000
  H   H513      1.0  0.58552  0.48391  0.95656  1.0000
  H   H514      1.0  0.35468  0.27979  0.53767  1.0000
  H   H515      1.0  0.49178  0.38169  0.82900  1.0000
  H   H516      1.0  0.50211  0.37208  0.87054  1.0000
  H   H517      1.0  0.37099  0.35620  0.47638  1.0000
  Fe  Fe41      1.0  0.64497  0.48878  0.98648  1.0000
  H   H518      1.0  0.46158  0.47764  0.47614  1.0000
  H   H519      1.0  0.34744  0.39935  0.30823  1.0000
  C   C308      1.0  0.35548  0.44080  0.22269  1.0000
  H   H520      1.0  0.53157  0.45168  0.20848  1.0000
  H   H521      1.0  0.36431  0.32413  0.61127  1.0000
  S   S83       1.0  0.39066  0.43871  0.87674  1.0000
  H   H522      1.0  0.57202  0.48082  0.16591  1.0000
  H   H523      1.0  0.39576  0.26536  0.98405  1.0000
  H   H524      1.0  0.46038  0.45428  0.45477  1.0000
  H   H525      1.0  0.53029  0.45434  0.15068  1.0000
  H   H526      1.0  0.37229  0.38800  0.03158  1.0000
  H   H527      1.0  0.33268  0.40010  0.15042  1.0000
  H   H528      1.0  0.58289  0.47149  0.07871  1.0000
  H   H529      1.0  0.35763  0.34414  0.62489  1.0000
  C   C309      1.0  0.36991  0.42679  0.27756  1.0000
  H   H530      1.0  0.51716  0.39188  0.01609  1.0000
  H   H531      1.0  0.43997  0.27719  0.95562  1.0000
  C   C310      1.0  0.51773  0.46951  0.77123  1.0000
  H   H532      1.0  0.55131  0.48175  0.46449  1.0000
  C   C311      1.0  0.44455  0.46380  0.91581  1.0000
  C   C312      1.0  0.43064  0.45452  0.53026  1.0000
  H   H533      1.0  0.48599  0.25246  0.09253  1.0000
  C   C313      1.0  0.47588  0.47380  0.60305  1.0000
  C   C314      1.0  0.46919  0.46747  0.47834  1.0000
  H   H534      1.0  0.33209  0.39243  0.03114  1.0000
  H   H535      1.0  0.44806  0.49471  0.92470  1.0000
  C   C315      1.0  0.36601  0.33934  0.60130  1.0000
  H   H536      1.0  0.48974  0.48514  0.42751  1.0000
  H   H537      1.0  0.53970  0.47670  0.18469  1.0000
  H   H538      1.0  0.34915  0.42606  0.06337  1.0000
  H   H539      1.0  0.48648  0.48317  0.89377  1.0000
  C   C316      1.0  0.48084  0.44790  0.52513  1.0000
  H   H540      1.0  0.46037  0.41748  0.55251  1.0000
  C   C317      1.0  0.35685  0.33869  0.55558  1.0000
  C   C318      1.0  0.49688  0.37789  0.95754  1.0000
  H   H541      1.0  0.44229  0.45214  0.89007  1.0000
  N   N25       1.0  0.46649  0.49572  0.86960  1.0000
  H   H542      1.0  0.41480  0.44242  0.53874  1.0000
  H   H543      1.0  0.45756  0.46580  0.93805  1.0000
  H   H544      1.0  0.35655  0.42979  0.11905  1.0000
  C   C319      1.0  0.36050  0.39217  0.01830  1.0000
  H   H545      1.0  0.42898  0.45966  0.49764  1.0000
  C   C320      1.0  0.50573  0.47080  0.32765  1.0000
  C   C321      1.0  0.50160  0.37896  0.00652  1.0000
  C   C322      1.0  0.33530  0.42510  0.23010  1.0000
  H   H546      1.0  0.35258  0.40159  0.89917  1.0000
  C   C323      1.0  0.44811  0.25575  0.01761  1.0000
  C   C324      1.0  0.42788  0.26969  0.98011  1.0000
  C   C325      1.0  0.46310  0.48267  0.82893  1.0000
  H   H547      1.0  0.51773  0.47042  0.88090  1.0000
  H   H548      1.0  0.37774  0.39681  0.09997  1.0000
  N   N26       1.0  0.46816  0.45951  0.52343  1.0000
  C   C326      1.0  0.36325  0.39294  0.11717  1.0000
  S   S84       1.0  0.39218  0.42907  0.30695  1.0000
  S   S85       1.0  0.53281  0.48375  0.72875  1.0000
  H   H549      1.0  0.47056  0.48890  0.54808  1.0000
  H   H550      1.0  0.58859  0.49396  0.47976  1.0000
  H   H551      1.0  0.59722  0.47179  0.14192  1.0000
  H   H552      1.0  0.38260  0.39909  0.17588  1.0000
  H   H553      1.0  0.49978  0.47106  0.45772  1.0000
  H   H554      1.0  0.46584  0.25969  0.95808  1.0000
  H   H555      1.0  0.47903  0.43919  0.49406  1.0000
  H   H556      1.0  0.41788  0.49051  0.19321  1.0000
  H   H557      1.0  0.39163  0.31354  0.49031  1.0000
  C   C327      1.0  0.40749  0.26780  0.95944  1.0000
  C   C328      1.0  0.56582  0.46422  0.08208  1.0000
  C   C329      1.0  0.35815  0.42250  0.08841  1.0000
  H   H558      1.0  0.37275  0.30268  0.56548  1.0000
  H   H559      1.0  0.35365  0.38219  0.98865  1.0000
  H   H560      1.0  0.43936  0.43157  0.50711  1.0000
  N   N27       1.0  0.34892  0.39923  0.09293  1.0000
  H   H561      1.0  0.43237  0.28127  0.00743  1.0000
  C   C330      1.0  0.33731  0.41244  0.94472  1.0000
  H   H562      1.0  0.36005  0.35501  0.55005  1.0000
  H   H563      1.0  0.33957  0.32954  0.55732  1.0000
  H   H564      1.0  0.38263  0.35132  0.60456  1.0000
  H   H565      1.0  0.44714  0.47713  0.81436  1.0000
  H   H566      1.0  0.61250  0.49158  0.85959  1.0000
  H   H567      1.0  0.36439  0.33224  0.44859  1.0000
  C   C331      1.0  0.44761  0.48453  0.89693  1.0000
  C   C332      1.0  0.33255  0.41007  0.26080  1.0000
  H   H568      1.0  0.46134  0.46008  0.61199  1.0000
  H   H569      1.0  0.43290  0.48061  0.87815  1.0000
  H   H570      1.0  0.49414  0.48799  0.54892  1.0000
  H   H571      1.0  0.48759  0.42601  0.56044  1.0000
  H   H572      1.0  0.47128  0.48484  0.76153  1.0000
  H   H573      1.0  0.48128  0.26768  0.00733  1.0000
  S   S86       1.0  0.64735  0.49857  0.91695  1.0000
  C   C333      1.0  0.35673  0.29493  0.55121  1.0000
  H   H574      1.0  0.56435  0.48904  0.41476  1.0000
  H   H575      1.0  0.35563  0.30124  0.48348  1.0000
  H   H576      1.0  0.48957  0.47216  0.61501  1.0000
  H   H577      1.0  0.59613  0.48704  0.41183  1.0000
  H   H578      1.0  0.40076  0.25542  0.93376  1.0000
  H   H579      1.0  0.47576  0.48713  0.62101  1.0000
  C   C334      1.0  0.56275  0.49523  0.44658  1.0000
  H   H580      1.0  0.56706  0.48761  0.98768  1.0000
  C   C335      1.0  0.48544  0.49800  0.89526  1.0000
  C   C336      1.0  0.33812  0.33554  0.46913  1.0000
  H   H581      1.0  0.33365  0.34400  0.49343  1.0000
  H   H582      1.0  0.33725  0.34196  0.43735  1.0000
  H   H583      1.0  0.33581  0.30163  0.51376  1.0000
  H   H584      1.0  0.39111  0.49698  0.16054  1.0000
  H   H585      1.0  0.45027  0.49825  0.22801  1.0000
  C   C337      1.0  0.57878  0.49464  0.96260  1.0000
  H   H586      1.0  0.57109  0.49520  0.93171  1.0000
  Fe  Fe42      1.0  0.57361  0.55970  0.70979  1.0000
  S   S87       1.0  0.53995  0.53899  0.72246  1.0000
  S   S88       1.0  0.58300  0.57743  0.64686  1.0000
  Fe  Fe43      1.0  0.58751  0.55145  0.79914  1.0000
  S   S89       1.0  0.55464  0.53019  0.81734  1.0000
  S   S90       1.0  0.61383  0.56010  0.84936  1.0000
  Fe  Fe44      1.0  0.55108  0.51745  0.74939  1.0000
  H   H587      1.0  0.63597  0.54331  0.54319  1.0000
  Fe  Fe45      1.0  0.54662  0.55384  0.78915  1.0000
  S   S91       1.0  0.52118  0.56005  0.81695  1.0000
  S   S92       1.0  0.58454  0.53706  0.73268  1.0000
  S   S93       1.0  0.57980  0.57635  0.77522  1.0000
  Fe  Fe46      1.0  0.55216  0.54549  0.38889  1.0000
  S   S94       1.0  0.52973  0.54941  0.34296  1.0000
  S   S95       1.0  0.54406  0.53756  0.45986  1.0000
  Fe  Fe47      1.0  0.57658  0.53978  0.31271  1.0000
  S   S96       1.0  0.55598  0.54332  0.26239  1.0000
  H   H588      1.0  0.54618  0.63885  0.73327  1.0000
  Fe  Fe48      1.0  0.55797  0.56946  0.30521  1.0000
  S   S97       1.0  0.56319  0.59872  0.27075  1.0000
  Fe  Fe49      1.0  0.52970  0.52319  0.30365  1.0000
  H   H589      1.0  0.44570  0.50024  0.14537  1.0000
  S   S98       1.0  0.58085  0.56762  0.35376  1.0000
  S   S99       1.0  0.54996  0.51769  0.35138  1.0000
  Fe  Fe50      1.0  0.50630  0.62444  0.00924  1.0000
  S   S100      1.0  0.51546  0.64212  0.07355  1.0000
  S   S101      1.0  0.53236  0.62579  0.96754  1.0000
  Fe  Fe51      1.0  0.46025  0.60746  0.02425  1.0000
  S   S102      1.0  0.46579  0.62393  0.08853  1.0000
  S   S103      1.0  0.42789  0.58550  0.99719  1.0000
  Fe  Fe52      1.0  0.49090  0.65204  0.05742  1.0000
  S   S104      1.0  0.49494  0.68379  0.08344  1.0000
  Fe  Fe53      1.0  0.48974  0.61305  0.09985  1.0000
  S   S105      1.0  0.48689  0.59718  0.16350  1.0000
  S   S106      1.0  0.48346  0.63628  0.99120  1.0000
  S   S107      1.0  0.48249  0.59470  0.03728  1.0000
  H   H590      1.0  0.41719  0.53049  0.13502  1.0000
  C   C338      1.0  0.59469  0.54211  0.45374  1.0000
  C   C339      1.0  0.45000  0.51686  0.83488  1.0000
  C   C340      1.0  0.57792  0.53408  0.94818  1.0000
  H   H591      1.0  0.58027  0.65259  0.67115  1.0000
  C   C341      1.0  0.41075  0.56673  0.03246  1.0000
  C   C342      1.0  0.41424  0.56958  0.07714  1.0000
  C   C343      1.0  0.39984  0.55516  0.10483  1.0000
  C   C344      1.0  0.38224  0.53735  0.08825  1.0000
  C   C345      1.0  0.37881  0.53430  0.04354  1.0000
  C   C346      1.0  0.39291  0.54913  0.01574  1.0000
  H   H592      1.0  0.42783  0.58307  0.09048  1.0000
  H   H593      1.0  0.40234  0.55776  0.13936  1.0000
  H   H594      1.0  0.36523  0.52067  0.03042  1.0000
  H   H595      1.0  0.39006  0.54685  0.98120  1.0000
  H   H596      1.0  0.48411  0.50110  0.93008  1.0000
  C   C347      1.0  0.49355  0.72115  0.09122  1.0000
  C   C348      1.0  0.49216  0.70525  0.06246  1.0000
  C   C349      1.0  0.48876  0.70700  0.01847  1.0000
  H   H597      1.0  0.49621  0.72010  0.12531  1.0000
  H   H598      1.0  0.48800  0.69518  0.99576  1.0000
  H   H599      1.0  0.48395  0.65646  0.22464  1.0000
  C   C350      1.0  0.54192  0.59699  0.23887  1.0000
  C   C351      1.0  0.54552  0.60850  0.20118  1.0000
  C   C352      1.0  0.52875  0.60824  0.17688  1.0000
  C   C353      1.0  0.50834  0.59687  0.19084  1.0000
  C   C354      1.0  0.50479  0.58543  0.22851  1.0000
  C   C355      1.0  0.52145  0.58523  0.25206  1.0000
  H   H600      1.0  0.56134  0.61761  0.19080  1.0000
  H   H601      1.0  0.53165  0.61703  0.14777  1.0000
  H   H602      1.0  0.48914  0.57687  0.24000  1.0000
  H   H603      1.0  0.51852  0.57650  0.28125  1.0000
  H   H604      1.0  0.63424  0.54394  0.46466  1.0000
  H   H605      1.0  0.63270  0.50567  0.18616  1.0000
  C   C356      1.0  0.46230  0.50961  0.20719  1.0000
  H   H606      1.0  0.42106  0.50995  0.11336  1.0000
  H   H607      1.0  0.51352  0.68416  0.24602  1.0000
  C   C357      1.0  0.62532  0.55445  0.03012  1.0000
  H   H608      1.0  0.58422  0.53132  0.91759  1.0000
  H   H609      1.0  0.58904  0.54385  0.48579  1.0000
  H   H610      1.0  0.54314  0.61677  0.79935  1.0000
  C   C358      1.0  0.57225  0.56607  0.59496  1.0000
  C   C359      1.0  0.58001  0.57796  0.55800  1.0000
  C   C360      1.0  0.57166  0.56958  0.51637  1.0000
  C   C361      1.0  0.55533  0.54920  0.51127  1.0000
  C   C362      1.0  0.54761  0.53732  0.54822  1.0000
  C   C363      1.0  0.55603  0.54565  0.58977  1.0000
  H   H611      1.0  0.59254  0.59378  0.56160  1.0000
  H   H612      1.0  0.57769  0.57896  0.48834  1.0000
  H   H613      1.0  0.53503  0.52154  0.54473  1.0000
  H   H614      1.0  0.54990  0.53628  0.61780  1.0000
  C   C364      1.0  0.57169  0.54329  0.04580  1.0000
  H   H615      1.0  0.56759  0.64419  0.61921  1.0000
  H   H616      1.0  0.52508  0.61719  0.70790  1.0000
  C   C365      1.0  0.52469  0.57773  0.86034  1.0000
  C   C366      1.0  0.54453  0.59221  0.87633  1.0000
  C   C367      1.0  0.54661  0.60673  0.90934  1.0000
  C   C368      1.0  0.52892  0.60668  0.92723  1.0000
  C   C369      1.0  0.50908  0.59195  0.91169  1.0000
  C   C370      1.0  0.50701  0.57768  0.87814  1.0000
  H   H617      1.0  0.55826  0.59246  0.86285  1.0000
  H   H618      1.0  0.56200  0.61810  0.92113  1.0000
  H   H619      1.0  0.49536  0.59182  0.92497  1.0000
  H   H620      1.0  0.49161  0.56669  0.86573  1.0000
  C   C371      1.0  0.62252  0.54240  0.86764  1.0000
  C   C372      1.0  0.63965  0.54973  0.89704  1.0000
  N   N28       1.0  0.60082  0.52495  0.45378  1.0000
  H   H621      1.0  0.56557  0.55233  0.91509  1.0000
  S   S108      1.0  0.60132  0.52977  0.29853  1.0000
  C   C373      1.0  0.61256  0.52129  0.85466  1.0000
  H   H622      1.0  0.48257  0.52669  0.84292  1.0000
  H   H623      1.0  0.52130  0.62101  0.78697  1.0000
  H   H624      1.0  0.57224  0.56024  0.97045  1.0000
  H   H625      1.0  0.59944  0.51547  0.83179  1.0000
  H   H626      1.0  0.59080  0.51787  0.38644  1.0000
  C   C374      1.0  0.42920  0.52525  0.13132  1.0000
  H   H627      1.0  0.51940  0.51350  0.89992  1.0000
  H   H628      1.0  0.50967  0.51549  0.84804  1.0000
  H   H629      1.0  0.45629  0.53532  0.08916  1.0000
  H   H630      1.0  0.55086  0.66271  0.27589  1.0000
  H   H631      1.0  0.45324  0.54052  0.23296  1.0000
  H   H632      1.0  0.51964  0.59631  0.77355  1.0000
  C   C375      1.0  0.60435  0.52049  0.40791  1.0000
  H   H633      1.0  0.58610  0.53684  0.21601  1.0000
  H   H634      1.0  0.55960  0.69449  0.14120  1.0000
  H   H635      1.0  0.46660  0.52619  0.14907  1.0000
  H   H636      1.0  0.59805  0.63343  0.68790  1.0000
  H   H637      1.0  0.58385  0.55966  0.04368  1.0000
  H   H638      1.0  0.48457  0.50909  0.78909  1.0000
  C   C376      1.0  0.54588  0.59157  0.71688  1.0000
  H   H639      1.0  0.56149  0.52144  0.94888  1.0000
  H   H640      1.0  0.62435  0.51812  0.48228  1.0000
  H   H641      1.0  0.48433  0.72554  0.96952  1.0000
  C   C377      1.0  0.60544  0.52484  0.24432  1.0000
  C   C378      1.0  0.61860  0.51599  0.23550  1.0000
  H   H642      1.0  0.60748  0.56688  0.99783  1.0000
  H   H643      1.0  0.42268  0.54733  0.22400  1.0000
  H   H644      1.0  0.60441  0.51349  0.00599  1.0000
  H   H645      1.0  0.56289  0.51281  0.02042  1.0000
  C   C379      1.0  0.53041  0.61332  0.77508  1.0000
  C   C380      1.0  0.45295  0.51463  0.16651  1.0000
  C   C381      1.0  0.41991  0.50649  0.20029  1.0000
  C   C382      1.0  0.43699  0.55575  0.20559  1.0000
  C   C383      1.0  0.50690  0.51554  0.88286  1.0000
  C   C384      1.0  0.57786  0.52727  0.02673  1.0000
  H   H646      1.0  0.55686  0.54133  0.03057  1.0000
  H   H647      1.0  0.46376  0.55332  0.18467  1.0000
  C   C385      1.0  0.52444  0.57714  0.69464  1.0000
  H   H648      1.0  0.55873  0.71159  0.18362  1.0000
  H   H649      1.0  0.62519  0.57039  0.46502  1.0000
  C   C386      1.0  0.59324  0.62499  0.71843  1.0000
  C   C387      1.0  0.59599  0.52977  0.20984  1.0000
  H   H650      1.0  0.45437  0.55668  0.11637  1.0000
  C   C388      1.0  0.56507  0.64250  0.65444  1.0000
  H   H651      1.0  0.57953  0.51006  0.50515  1.0000
  C   C389      1.0  0.59666  0.51622  0.97726  1.0000
  H   H652      1.0  0.61942  0.55697  0.96260  1.0000
  H   H653      1.0  0.54125  0.61077  0.64694  1.0000
  H   H654      1.0  0.61782  0.53420  0.39462  1.0000
  C   C390      1.0  0.54590  0.70049  0.26303  1.0000
  H   H655      1.0  0.59041  0.60880  0.71284  1.0000
  C   C391      1.0  0.55645  0.61931  0.66514  1.0000
  C   C392      1.0  0.61180  0.56386  0.44149  1.0000
  C   C393      1.0  0.62063  0.53131  0.48033  1.0000
  H   H656      1.0  0.52658  0.57103  0.66304  1.0000
  C   C394      1.0  0.57709  0.55470  0.94163  1.0000
  H   H657      1.0  0.54637  0.70189  0.29881  1.0000
  H   H658      1.0  0.43342  0.56070  0.17432  1.0000
  H   H659      1.0  0.47266  0.52393  0.22657  1.0000
  C   C395      1.0  0.50846  0.64939  0.20014  1.0000
  H   H660      1.0  0.43710  0.54261  0.07224  1.0000
  C   C396      1.0  0.52855  0.68332  0.16840  1.0000
  H   H661      1.0  0.56660  0.61335  0.65040  1.0000
  H   H662      1.0  0.51447  0.58466  0.68915  1.0000
  H   H663      1.0  0.39721  0.51912  0.19605  1.0000
  H   H664      1.0  0.47226  0.50254  0.19708  1.0000
  N   N29       1.0  0.42086  0.64072  0.02833  1.0000
  C   C397      1.0  0.42820  0.63505  0.98737  1.0000
  C   C398      1.0  0.41120  0.62131  0.05464  1.0000
  C   C399      1.0  0.43980  0.65777  0.05200  1.0000
  C   C400      1.0  0.40548  0.64836  0.01591  1.0000
  C   C401      1.0  0.44030  0.65309  0.95684  1.0000
  C   C402      1.0  0.39084  0.60313  0.03549  1.0000
  C   C403      1.0  0.43861  0.66026  0.10121  1.0000
  C   C404      1.0  0.39412  0.65283  0.05284  1.0000
  H   H665      1.0  0.43861  0.62810  0.99520  1.0000
  H   H666      1.0  0.41493  0.62294  0.96766  1.0000
  H   H667      1.0  0.40744  0.62447  0.08745  1.0000
  H   H668      1.0  0.42256  0.61524  0.06012  1.0000
  H   H669      1.0  0.45372  0.65532  0.04765  1.0000
  H   H670      1.0  0.44406  0.67327  0.03820  1.0000
  H   H671      1.0  0.41343  0.66327  0.99871  1.0000
  H   H672      1.0  0.39355  0.63761  0.99166  1.0000
  H   H673      1.0  0.44555  0.64695  0.92926  1.0000
  H   H674      1.0  0.43037  0.65951  0.94305  1.0000
  H   H675      1.0  0.45456  0.66576  0.97264  1.0000
  H   H676      1.0  0.39320  0.59676  0.00460  1.0000
  H   H677      1.0  0.38523  0.59005  0.05820  1.0000
  H   H678      1.0  0.37822  0.60753  0.03138  1.0000
  H   H679      1.0  0.43948  0.64736  0.11828  1.0000
  H   H680      1.0  0.42461  0.66140  0.11074  1.0000
  H   H681      1.0  0.45238  0.67491  0.11288  1.0000
  H   H682      1.0  0.40332  0.66912  0.06568  1.0000
  H   H683      1.0  0.39034  0.64192  0.07958  1.0000
  H   H684      1.0  0.37875  0.65069  0.04032  1.0000
  H   H685      1.0  0.55378  0.64827  0.66217  1.0000
  H   H686      1.0  0.61745  0.56382  0.40860  1.0000
  C   C405      1.0  0.61047  0.55340  0.99270  1.0000
  H   H687      1.0  0.60506  0.57481  0.44167  1.0000
  H   H688      1.0  0.57884  0.64292  0.74242  1.0000
  C   C406      1.0  0.63685  0.51507  0.90057  1.0000
  H   H689      1.0  0.57282  0.62003  0.77086  1.0000
  C   C407      1.0  0.39779  0.50422  0.19281  1.0000
  H   H690      1.0  0.55698  0.58672  0.70303  1.0000
  H   H691      1.0  0.43547  0.51030  0.85331  1.0000
  C   C408      1.0  0.61988  0.50774  0.87070  1.0000
  H   H692      1.0  0.51545  0.56372  0.71542  1.0000
  C   C409      1.0  0.53877  0.62152  0.73028  1.0000
  C   C410      1.0  0.57431  0.62608  0.73766  1.0000
  H   H693      1.0  0.54541  0.58741  0.75130  1.0000
  H   H694      1.0  0.60679  0.63255  0.74161  1.0000
  N   N30       1.0  0.55383  0.61464  0.71238  1.0000
  H   H695      1.0  0.52225  0.67347  0.13841  1.0000
  H   H696      1.0  0.59235  0.56712  0.93114  1.0000
  H   H697      1.0  0.56233  0.65139  0.24120  1.0000
  H   H698      1.0  0.58135  0.53813  0.43064  1.0000
  H   H699      1.0  0.48718  0.65907  0.16677  1.0000
  N   N31       1.0  0.59056  0.53310  0.98670  1.0000
  C   C411      1.0  0.49161  0.73851  0.07640  1.0000
  C   C412      1.0  0.64668  0.53614  0.91371  1.0000
  H   H700      1.0  0.47482  0.63399  0.18970  1.0000
  H   H701      1.0  0.58558  0.52282  0.05303  1.0000
  S   S109      1.0  0.36517  0.51953  0.12499  1.0000
  H   H702      1.0  0.52209  0.66898  0.27481  1.0000
  H   H703      1.0  0.54526  0.71427  0.24959  1.0000
  C   C413      1.0  0.54839  0.65377  0.24508  1.0000
  C   C414      1.0  0.62040  0.53844  0.52748  1.0000
  H   H704      1.0  0.47044  0.52583  0.89166  1.0000
  N   N32       1.0  0.43745  0.52260  0.17462  1.0000
  H   H705      1.0  0.51817  0.69057  0.17350  1.0000
  H   H706      1.0  0.44722  0.57032  0.22444  1.0000
  H   H707      1.0  0.63200  0.54369  0.02446  1.0000
  C   C415      1.0  0.52653  0.68013  0.24800  1.0000
  H   H708      1.0  0.64758  0.56606  0.90688  1.0000
  H   H709      1.0  0.61740  0.55204  0.52993  1.0000
  C   C416      1.0  0.48682  0.72436  0.00364  1.0000
  C   C417      1.0  0.48826  0.74030  0.03239  1.0000
  N   N33       1.0  0.52792  0.67012  0.20610  1.0000
  H   H710      1.0  0.56139  0.68006  0.20501  1.0000
  H   H711      1.0  0.50962  0.64086  0.17100  1.0000
  C   C418      1.0  0.62234  0.51222  0.19261  1.0000
  H   H712      1.0  0.56087  0.70094  0.25505  1.0000
  H   H713      1.0  0.61764  0.55141  0.06162  1.0000
  C   C419      1.0  0.44544  0.54089  0.10113  1.0000
  C   C420      1.0  0.44877  0.54301  0.19988  1.0000
  H   H714      1.0  0.54748  0.71046  0.13131  1.0000
  H   H715      1.0  0.56949  0.54089  0.08099  1.0000
  H   H716      1.0  0.50655  0.63907  0.22759  1.0000
  C   C421      1.0  0.48762  0.65018  0.19511  1.0000
  C   C422      1.0  0.54627  0.66565  0.20605  1.0000
  H   H717      1.0  0.53493  0.63803  0.24750  1.0000
  H   H718      1.0  0.54567  0.65657  0.17615  1.0000
  C   C423      1.0  0.54998  0.70094  0.15619  1.0000
  C   C424      1.0  0.46840  0.51690  0.86076  1.0000
  C   C425      1.0  0.58353  0.50596  0.47316  1.0000
  H   H719      1.0  0.50882  0.53108  0.89319  1.0000
  H   H720      1.0  0.60829  0.52109  0.95161  1.0000
  C   C426      1.0  0.61300  0.51740  0.15827  1.0000
  H   H721      1.0  0.55581  0.50578  0.44203  1.0000
  H   H722      1.0  0.59261  0.53032  0.14081  1.0000
  C   C427      1.0  0.59981  0.52614  0.16711  1.0000
  H   H723      1.0  0.60888  0.52560  0.54657  1.0000
  H   H724      1.0  0.45386  0.53324  0.82811  1.0000
  H   H725      1.0  0.44716  0.50843  0.80329  1.0000
  H   H726      1.0  0.62611  0.51225  0.26194  1.0000
  H   H727      1.0  0.63873  0.57043  0.03261  1.0000
  S   S110      1.0  0.61698  0.51314  0.10375  1.0000
  H   H728      1.0  0.42368  0.50922  0.23559  1.0000
  H   H729      1.0  0.66005  0.54208  0.93589  1.0000
  C   C428      1.0  0.60883  0.50191  0.40078  1.0000
  H   H730      1.0  0.62392  0.50487  0.41623  1.0000
  H   H731      1.0  0.61012  0.49982  0.36556  1.0000
  S   S111      1.0  0.36043  0.80592  0.15288  1.0000
  S   S112      1.0  0.34680  0.85033  0.13581  1.0000
  Fe  Fe54      1.0  0.45996  0.81526  0.04051  1.0000
  S   S113      1.0  0.46537  0.79505  0.08782  1.0000
  S   S114      1.0  0.43040  0.81670  0.02093  1.0000
  Fe  Fe55      1.0  0.50583  0.83914  0.01792  1.0000
  S   S115      1.0  0.51532  0.82104  0.06400  1.0000
  S   S116      1.0  0.53002  0.86715  0.98305  1.0000
  Fe  Fe56      1.0  0.48657  0.79216  0.03879  1.0000
  S   S117      1.0  0.48602  0.76203  0.01126  1.0000
  Fe  Fe57      1.0  0.49368  0.82505  0.10974  1.0000
  S   S118      1.0  0.49907  0.83389  0.18116  1.0000
  S   S119      1.0  0.47883  0.81034  0.98922  1.0000
  S   S120      1.0  0.48655  0.84519  0.06592  1.0000
  Fe  Fe58      1.0  0.53819  0.93307  0.77549  1.0000
  S   S121      1.0  0.57221  0.95326  0.76218  1.0000
  S   S122      1.0  0.52008  0.89982  0.79890  1.0000
  H   H732      1.0  0.33811  0.96662  0.72738  1.0000
  H   H733      1.0  0.45408  0.98318  0.26983  1.0000
  Fe  Fe59      1.0  0.56152  0.96180  0.69997  1.0000
  S   S123      1.0  0.57887  0.96758  0.63651  1.0000
  S   S124      1.0  0.52805  0.93914  0.71033  1.0000
  C   C429      1.0  0.33288  0.82537  0.93868  1.0000
  Fe  Fe60      1.0  0.39101  0.96786  0.76821  1.0000
  S   S125      1.0  0.39301  0.94671  0.81888  1.0000
  C   C430      1.0  0.33568  0.89462  0.23498  1.0000
  S   S126      1.0  0.55980  0.98916  0.73105  1.0000
  Fe  Fe61      1.0  0.41893  0.97604  0.84905  1.0000
  H   H734      1.0  0.49087  0.98464  0.87571  1.0000
  Fe  Fe62      1.0  0.37220  0.95507  0.85821  1.0000
  S   S127      1.0  0.34455  0.93269  0.89639  1.0000
  S   S128      1.0  0.36810  0.97416  0.80575  1.0000
  Fe  Fe63      1.0  0.55602  0.94409  0.28850  1.0000
  S   S129      1.0  0.54497  0.96230  0.24757  1.0000
  S   S130      1.0  0.56663  0.92347  0.25299  1.0000
  Fe  Fe64      1.0  0.54551  0.95829  0.37407  1.0000
  S   S131      1.0  0.53752  0.95161  0.44542  1.0000
  Fe  Fe65      1.0  0.51822  0.95050  0.29150  1.0000
  S   S132      1.0  0.48617  0.93987  0.26266  1.0000
  S   S133      1.0  0.52784  0.93029  0.32902  1.0000
  S   S134      1.0  0.57497  0.97103  0.33564  1.0000
  Fe  Fe66      1.0  0.41511  0.95730  0.39970  1.0000
  S   S135      1.0  0.43088  0.93817  0.41690  1.0000
  Fe  Fe67      1.0  0.37636  0.95816  0.36597  1.0000
  C   C431      1.0  0.49621  0.90359  0.17131  1.0000
  S   S136      1.0  0.34573  0.93931  0.32807  1.0000
  Fe  Fe68      1.0  0.40092  0.98486  0.44628  1.0000
  H   H735      1.0  0.35933  0.83599  0.29122  1.0000
  S   S137      1.0  0.40525  0.96239  0.33410  1.0000
  S   S138      1.0  0.38516  0.95040  0.43083  1.0000
  C   C432      1.0  0.44549  0.93702  0.37395  1.0000
  C   C433      1.0  0.43872  0.93712  0.33150  1.0000
  C   C434      1.0  0.45076  0.93694  0.29704  1.0000
  C   C435      1.0  0.46999  0.93747  0.30526  1.0000
  C   C436      1.0  0.47669  0.93708  0.34769  1.0000
  C   C437      1.0  0.46427  0.93655  0.38206  1.0000
  H   H736      1.0  0.56484  0.87608  0.36157  1.0000
  H   H737      1.0  0.37302  0.99226  0.13035  1.0000
  H   H738      1.0  0.49153  0.93740  0.35422  1.0000
  H   H739      1.0  0.46959  0.93650  0.41490  1.0000
  H   H740      1.0  0.46447  0.93273  0.80950  1.0000
  C   C438      1.0  0.38228  0.95618  0.60867  1.0000
  C   C439      1.0  0.38664  0.96534  0.56786  1.0000
  H   H741      1.0  0.61210  0.90902  0.44055  1.0000
  H   H742      1.0  0.42974  0.84728  0.13235  1.0000
  H   H743      1.0  0.41375  0.89288  0.30753  1.0000
  H   H744      1.0  0.44739  0.86952  0.25559  1.0000
  H   H745      1.0  0.47337  0.88888  0.24154  1.0000
  C   C440      1.0  0.56715  0.96400  0.58368  1.0000
  C   C441      1.0  0.54548  0.95383  0.57651  1.0000
  C   C442      1.0  0.53682  0.95053  0.53410  1.0000
  C   C443      1.0  0.54961  0.95757  0.49819  1.0000
  C   C444      1.0  0.57130  0.96811  0.50535  1.0000
  C   C445      1.0  0.57998  0.97113  0.54779  1.0000
  H   H746      1.0  0.53537  0.94822  0.60363  1.0000
  H   H747      1.0  0.52004  0.94233  0.52908  1.0000
  H   H748      1.0  0.58138  0.97377  0.47825  1.0000
  H   H749      1.0  0.47497  0.85313  0.15459  1.0000
  H   H750      1.0  0.47344  0.97595  0.25156  1.0000
  H   H751      1.0  0.47835  0.94582  0.54945  1.0000
  C   C446      1.0  0.48420  0.99259  0.34863  1.0000
  C   C447      1.0  0.45426  0.97177  0.79456  1.0000
  H   H752      1.0  0.43068  0.95312  0.65854  1.0000
  H   H753      1.0  0.37874  0.95610  0.53909  1.0000
  H   H754      1.0  0.44986  0.88353  0.07094  1.0000
  H   H755      1.0  0.45345  0.89590  0.25113  1.0000
  Fe  Fe69      1.0  0.33075  0.84547  0.07059  1.0000
  H   H756      1.0  0.40141  0.91388  0.27369  1.0000
  C   C448      1.0  0.51713  0.85957  0.19862  1.0000
  C   C449      1.0  0.53412  0.87229  0.17396  1.0000
  C   C450      1.0  0.54909  0.89203  0.19050  1.0000
  C   C451      1.0  0.54669  0.89956  0.23090  1.0000
  C   C452      1.0  0.52915  0.88719  0.25458  1.0000
  C   C453      1.0  0.51474  0.86710  0.23899  1.0000
  H   H757      1.0  0.53617  0.86661  0.14288  1.0000
  H   H758      1.0  0.56264  0.90144  0.17203  1.0000
  H   H759      1.0  0.52714  0.89272  0.28576  1.0000
  H   H760      1.0  0.50170  0.85732  0.25834  1.0000
  C   C454      1.0  0.52597  0.87662  0.93325  1.0000
  C   C455      1.0  0.54101  0.89634  0.92025  1.0000
  C   C456      1.0  0.53915  0.90392  0.87973  1.0000
  C   C457      1.0  0.52247  0.89159  0.85131  1.0000
  C   C458      1.0  0.50738  0.87190  0.86435  1.0000
  C   C459      1.0  0.50892  0.86456  0.90535  1.0000
  H   H761      1.0  0.55430  0.90575  0.94153  1.0000
  H   H762      1.0  0.55091  0.91907  0.87008  1.0000
  H   H763      1.0  0.49449  0.86220  0.84246  1.0000
  H   H764      1.0  0.49718  0.84941  0.91494  1.0000
  C   C460      1.0  0.40050  0.98658  0.56456  1.0000
  Fe  Fe70      1.0  0.33691  0.81618  0.13032  1.0000
  H   H765      1.0  0.52387  0.89047  0.47569  1.0000
  H   H766      1.0  0.55257  0.78985  0.95973  1.0000
  H   H767      1.0  0.48135  0.98769  0.58046  1.0000
  H   H768      1.0  0.41067  0.94065  0.50660  1.0000
  H   H769      1.0  0.57439  0.85250  0.89844  1.0000
  S   S139      1.0  0.35072  0.86581  0.01750  1.0000
  C   C461      1.0  0.34712  0.91522  0.93215  1.0000
  C   C462      1.0  0.36367  0.91053  0.92948  1.0000
  C   C463      1.0  0.36466  0.89565  0.95653  1.0000
  H   H770      1.0  0.37553  0.91811  0.90601  1.0000
  H   H771      1.0  0.37734  0.89187  0.95364  1.0000
  C   C464      1.0  0.37987  0.80890  0.11616  1.0000
  C   C465      1.0  0.38054  0.81746  0.07582  1.0000
  C   C466      1.0  0.39599  0.81953  0.04686  1.0000
  C   C467      1.0  0.41108  0.81338  0.05814  1.0000
  C   C468      1.0  0.41050  0.80489  0.09852  1.0000
  C   C469      1.0  0.39494  0.80268  0.12747  1.0000
  H   H772      1.0  0.36910  0.82240  0.06679  1.0000
  H   H773      1.0  0.39631  0.82606  0.01563  1.0000
  H   H774      1.0  0.42186  0.79978  0.10715  1.0000
  H   H775      1.0  0.39444  0.79594  0.15850  1.0000
  H   H776      1.0  0.57468  0.93598  0.45553  1.0000
  H   H777      1.0  0.58300  0.91654  0.34747  1.0000
  H   H778      1.0  0.44560  0.93729  0.26423  1.0000
  H   H779      1.0  0.42426  0.93744  0.32532  1.0000
  H   H780      1.0  0.60691  0.91717  0.39023  1.0000
  H   H781      1.0  0.56789  0.99392  0.11256  1.0000
  C   C470      1.0  0.34459  0.91388  0.25872  1.0000
  H   H782      1.0  0.55125  0.82156  0.86259  1.0000
  H   H783      1.0  0.60103  0.94800  0.37442  1.0000
  H   H784      1.0  0.59820  0.88994  0.39941  1.0000
  C   C471      1.0  0.46559  0.96990  0.76045  1.0000
  H   H785      1.0  0.59675  0.97905  0.55285  1.0000
  C   C472      1.0  0.46600  0.85730  0.17795  1.0000
  H   H786      1.0  0.55724  0.86239  0.91813  1.0000
  Fe  Fe71      1.0  0.56121  0.98816  0.29701  1.0000
  H   H787      1.0  0.40798  0.93380  0.56304  1.0000
  C   C473      1.0  0.59537  0.98833  0.98710  1.0000
  H   H788      1.0  0.47482  0.95100  0.60518  1.0000
  H   H789      1.0  0.53756  0.88256  0.41331  1.0000
  C   C474      1.0  0.44433  0.86028  0.12056  1.0000
  H   H790      1.0  0.47201  0.98009  0.32815  1.0000
  H   H791      1.0  0.34722  0.99436  0.62211  1.0000
  H   H792      1.0  0.50764  0.93676  0.92146  1.0000
  C   C475      1.0  0.44849  0.87979  0.18883  1.0000
  H   H793      1.0  0.54391  0.91657  0.48107  1.0000
  H   H794      1.0  0.56280  0.88508  0.30932  1.0000
  S   S140      1.0  0.39846  0.98287  0.89206  1.0000
  H   H795      1.0  0.44070  0.82554  0.16569  1.0000
  H   H796      1.0  0.61139  0.99845  0.97631  1.0000
  H   H797      1.0  0.54120  0.87668  0.34366  1.0000
  H   H798      1.0  0.45827  0.96226  0.65227  1.0000
  H   H799      1.0  0.50938  0.91518  0.15290  1.0000
  C   C476      1.0  0.48379  0.98041  0.84360  1.0000
  H   H800      1.0  0.56538  0.93935  0.40440  1.0000
  H   H801      1.0  0.56388  0.81299  0.90103  1.0000
  S   S141      1.0  0.44901  0.97954  0.87825  1.0000
  H   H802      1.0  0.48080  0.97851  0.52666  1.0000
  H   H803      1.0  0.45843  0.96574  0.72848  1.0000
  H   H804      1.0  0.60934  0.94548  0.42908  1.0000
  C   C477      1.0  0.44276  0.95481  0.63519  1.0000
  H   H805      1.0  0.51913  0.80338  0.98131  1.0000
  H   H806      1.0  0.43626  0.83888  0.21085  1.0000
  C   C478      1.0  0.34026  0.97788  0.70172  1.0000
  C   C479      1.0  0.48599  0.97320  0.76773  1.0000
  N   N34       1.0  0.46602  0.90889  0.84858  1.0000
  C   C480      1.0  0.46174  0.91635  0.80618  1.0000
  C   C481      1.0  0.45002  0.90832  0.87954  1.0000
  C   C482      1.0  0.46343  0.88717  0.84077  1.0000
  C   C483      1.0  0.48809  0.92378  0.86341  1.0000
  C   C484      1.0  0.47500  0.91610  0.76811  1.0000
  H   H807      1.0  0.48478  0.88410  0.11372  1.0000
  C   C485      1.0  0.45911  0.87324  0.88024  1.0000
  C   C486      1.0  0.49530  0.92132  0.90910  1.0000
  H   H808      1.0  0.49179  0.92698  0.77411  1.0000
  H   H809      1.0  0.57497  0.98402  0.03924  1.0000
  H   H810      1.0  0.45137  0.90209  0.91111  1.0000
  H   H811      1.0  0.43399  0.89727  0.86690  1.0000
  H   H812      1.0  0.45020  0.87815  0.81732  1.0000
  H   H813      1.0  0.47748  0.88783  0.82556  1.0000
  H   H814      1.0  0.49928  0.92225  0.84160  1.0000
  H   H815      1.0  0.49157  0.94035  0.86017  1.0000
  H   H816      1.0  0.47288  0.90028  0.76001  1.0000
  H   H817      1.0  0.47013  0.92163  0.73896  1.0000
  C   C487      1.0  0.40105  0.90113  0.21096  1.0000
  C   C488      1.0  0.60012  0.90484  0.41407  1.0000
  H   H818      1.0  0.54959  0.89519  0.49114  1.0000
  C   C489      1.0  0.56729  0.90775  0.36067  1.0000
  H   H819      1.0  0.44326  0.86838  0.89238  1.0000
  H   H820      1.0  0.47088  0.88058  0.90678  1.0000
  H   H821      1.0  0.45955  0.85868  0.87027  1.0000
  H   H822      1.0  0.50208  0.91041  0.90842  1.0000
  H   H823      1.0  0.48308  0.91635  0.93322  1.0000
  S   S142      1.0  0.53478  0.95857  0.81040  1.0000
  Fe  Fe72      1.0  0.52695  0.96592  0.74461  1.0000
  C   C490      1.0  0.55851  0.88500  0.34354  1.0000
  H   H824      1.0  0.55806  0.91444  0.34437  1.0000
  H   H825      1.0  0.56957  0.88465  0.43646  1.0000
  H   H826      1.0  0.33033  0.82353  0.97369  1.0000
  H   H827      1.0  0.34469  0.83006  0.24142  1.0000
  C   C491      1.0  0.59810  0.94834  0.40924  1.0000
  H   H828      1.0  0.59351  0.97229  0.98906  1.0000
  H   H829      1.0  0.54313  0.77841  0.88481  1.0000
  H   H830      1.0  0.53173  0.77652  0.99565  1.0000
  N   N35       1.0  0.56726  0.91064  0.40897  1.0000
  C   C492      1.0  0.57540  0.93347  0.42033  1.0000
  H   H831      1.0  0.53527  0.90549  0.40381  1.0000
  H   H832      1.0  0.60135  0.96458  0.41744  1.0000
  C   C493      1.0  0.44823  0.83666  0.19333  1.0000
  H   H833      1.0  0.40532  0.91637  0.19609  1.0000
  S   S143      1.0  0.38438  0.95586  0.69742  1.0000
  C   C494      1.0  0.39182  0.96801  0.64675  1.0000
  C   C495      1.0  0.40642  0.98904  0.64332  1.0000
  S   S144      1.0  0.49948  0.97029  0.72441  1.0000
  C   C496      1.0  0.54473  0.89949  0.42184  1.0000
  C   C497      1.0  0.57939  0.90180  0.43340  1.0000
  H   H834      1.0  0.41226  0.86463  0.34222  1.0000
  H   H835      1.0  0.42601  0.96617  0.59437  1.0000
  H   H836      1.0  0.32934  0.81015  0.92307  1.0000
  C   C498      1.0  0.54154  0.79181  0.98107  1.0000
  H   H837      1.0  0.39070  0.88888  0.18706  1.0000
  C   C499      1.0  0.56699  0.85496  0.92732  1.0000
  C   C500      1.0  0.44618  0.97862  0.52292  1.0000
  C   C501      1.0  0.36276  0.99593  0.70570  1.0000
  C   C502      1.0  0.47813  0.88998  0.13938  1.0000
  H   H838      1.0  0.50252  0.89458  0.18914  1.0000
  H   H839      1.0  0.45110  0.85275  0.09886  1.0000
  C   C503      1.0  0.54070  0.90070  0.47028  1.0000
  H   H840      1.0  0.58303  0.90839  0.46709  1.0000
  C   C504      1.0  0.54826  0.81076  0.88971  1.0000
  H   H841      1.0  0.47372  0.90105  0.12362  1.0000
  H   H842      1.0  0.44268  0.93284  0.55892  1.0000
  H   H843      1.0  0.33984  0.89400  0.20192  1.0000
  C   C505      1.0  0.45035  0.92937  0.88936  1.0000
  H   H844      1.0  0.49174  0.91272  0.19381  1.0000
  H   H845      1.0  0.47693  0.86455  0.20591  1.0000
  C   C506      1.0  0.46339  0.97718  0.83605  1.0000
  H   H846      1.0  0.42416  0.86230  0.07008  1.0000
  H   H847      1.0  0.44448  0.93457  0.86127  1.0000
  Fe  Fe73      1.0  0.56811  0.97932  0.79390  1.0000
  C   C507      1.0  0.37035  0.88195  0.31537  1.0000
  H   H848      1.0  0.49872  0.96681  0.57984  1.0000
  C   C508      1.0  0.34932  0.88552  0.98696  1.0000
  C   C509      1.0  0.55463  0.83467  0.95191  1.0000
  C   C510      1.0  0.35228  0.84221  0.26755  1.0000
  N   N36       1.0  0.45038  0.96564  0.55539  1.0000
  C   C511      1.0  0.43950  0.94337  0.53825  1.0000
  H   H849      1.0  0.39421  0.84567  0.30326  1.0000
  S   S145      1.0  0.53325  0.97732  0.33892  1.0000
  H   H850      1.0  0.41579  0.90030  0.21629  1.0000
  H   H851      1.0  0.43842  0.96893  0.78862  1.0000
  H   H852      1.0  0.44503  0.90692  0.79560  1.0000
  H   H853      1.0  0.51467  0.78472  0.94052  1.0000
  C   C512      1.0  0.62555  0.99766  0.74105  1.0000
  N   N37       1.0  0.38250  0.88032  0.27792  1.0000
  H   H854      1.0  0.42931  0.97430  0.52078  1.0000
  N   N38       1.0  0.45932  0.87205  0.15781  1.0000
  C   C513      1.0  0.43723  0.87314  0.09200  1.0000
  H   H855      1.0  0.37759  0.85820  0.22509  1.0000
  H   H856      1.0  0.46605  0.94175  0.90003  1.0000
  H   H857      1.0  0.57969  0.86648  0.94908  1.0000
  H   H858      1.0  0.40934  0.91673  0.52249  1.0000
  H   H859      1.0  0.37108  0.93987  0.61082  1.0000
  H   H860      1.0  0.44912  0.89454  0.17752  1.0000
  H   H861      1.0  0.43964  0.92750  0.91592  1.0000
  C   C514      1.0  0.49512  0.97841  0.80935  1.0000
  C   C515      1.0  0.33878  0.91499  0.30132  1.0000
  H   H862      1.0  0.33723  0.96899  0.67063  1.0000
  H   H863      1.0  0.53949  0.78840  0.83561  1.0000
  H   H864      1.0  0.54773  0.83858  0.98020  1.0000
  H   H865      1.0  0.53006  0.83624  0.88655  1.0000
  H   H866      1.0  0.47689  0.99294  0.37953  1.0000
  H   H867      1.0  0.38654  0.91526  0.33511  1.0000
  C   C516      1.0  0.38259  0.89988  0.34861  1.0000
  H   H868      1.0  0.43162  0.86823  0.18967  1.0000
  C   C517      1.0  0.39011  0.90030  0.25363  1.0000
  H   H869      1.0  0.51949  0.78024  0.87369  1.0000
  H   H870      1.0  0.37697  0.90363  0.24577  1.0000
  N   N39       1.0  0.53804  0.81636  0.92591  1.0000
  C   C518      1.0  0.36832  0.86254  0.24742  1.0000
  H   H871      1.0  0.49288  0.81337  0.87499  1.0000
  C   C519      1.0  0.41552  0.93339  0.53259  1.0000
  H   H872      1.0  0.35686  0.88389  0.30324  1.0000
  C   C520      1.0  0.53660  0.78816  0.87068  1.0000
  H   H873      1.0  0.35877  0.86741  0.22650  1.0000
  H   H874      1.0  0.37254  0.89820  0.37634  1.0000
  C   C521      1.0  0.40136  0.87813  0.29222  1.0000
  H   H875      1.0  0.40909  0.87566  0.26377  1.0000
  S   S146      1.0  0.38918  0.99248  0.38377  1.0000
  C   C522      1.0  0.52729  0.79886  0.95662  1.0000
  C   C523      1.0  0.44217  0.96830  0.59800  1.0000
  H   H876      1.0  0.49394  0.79248  0.90178  1.0000
  C   C524      1.0  0.39780  0.86015  0.32224  1.0000
  H   H877      1.0  0.38558  0.85687  0.34590  1.0000
  H   H878      1.0  0.39685  0.89971  0.36169  1.0000
  C   C525      1.0  0.50333  0.80650  0.88300  1.0000
  C   C526      1.0  0.45648  0.88355  0.23650  1.0000
  H   H879      1.0  0.36317  0.86746  0.33376  1.0000
  H   H880      1.0  0.45492  0.82921  0.21528  1.0000
  H   H881      1.0  0.50771  0.80226  0.85179  1.0000
  H   H882      1.0  0.34983  0.83585  0.93504  1.0000
  H   H883      1.0  0.51662  0.82884  0.93556  1.0000
  H   H884      1.0  0.56663  0.83079  0.96567  1.0000
  H   H885      1.0  0.55029  0.80289  0.00821  1.0000
  H   H886      1.0  0.43143  0.88226  0.11117  1.0000
  C   C527      1.0  0.52256  0.82302  0.90860  1.0000
  H   H887      1.0  0.49678  0.98846  0.35651  1.0000
  H   H888      1.0  0.33961  0.84432  0.28258  1.0000
  H   H889      1.0  0.45022  0.97562  0.48992  1.0000
  H   H890      1.0  0.51101  0.98134  0.81496  1.0000
  C   C528      1.0  0.33298  0.89053  0.99041  1.0000
  H   H891      1.0  0.35532  0.92804  0.24349  1.0000
  H   H892      1.0  0.43869  0.93866  0.62510  1.0000
  C   C529      1.0  0.48149  0.95820  0.57440  1.0000
  C   C530      1.0  0.47374  0.97353  0.55875  1.0000
  H   H893      1.0  0.44576  0.94222  0.50637  1.0000
  H   H894      1.0  0.32872  0.85202  0.92660  1.0000
  Fe  Fe74      1.0  0.41885  0.99622  0.35455  1.0000
  H   H895      1.0  0.35310  0.99358  0.16233  1.0000
  S   S147      1.0  0.41884  0.99646  0.79570  1.0000
  H   H896      1.0  0.37346  0.98903  0.70138  1.0000
  C   C531      1.0  0.59133  0.99527  0.03173  1.0000
  H   H897      1.0  0.60113  0.99263  0.05644  1.0000
  H   H898      1.0  0.37091  0.99307  0.62638  1.0000
  H   H899      1.0  0.45118  0.98466  0.61064  1.0000
  C   C532      1.0  0.33181  0.90520  0.96280  1.0000
  H   H900      1.0  0.37961  0.99423  0.20682  1.0000
  H   H901      1.0  0.61774  0.98806  0.71147  1.0000
  S   S148      1.0  0.43155  0.99127  0.41763  1.0000
  H   H902      1.0  0.61388  0.99494  0.76587  1.0000
  H   H903      1.0  0.49278  0.75055  0.09903  1.0000
  H   H904      1.0  0.58393  0.98773  0.96203  1.0000
  H   H905      1.0  0.63614  0.99178  0.75394  1.0000
  H   H906      1.0  0.32849  0.98333  0.70638  1.0000
  C   C533      1.0  0.46675  0.98667  0.24681  1.0000
  H   H907      1.0  0.50315  0.98733  0.28472  1.0000
  H   H908      1.0  0.45970  0.98287  0.21362  1.0000
  H   H909      1.0  0.35302  0.99541  0.10441  1.0000
  H   H910      1.0  0.52827  0.99371  0.23128  1.0000
  H   H911      1.0  0.41423  0.99823  0.67218  1.0000
  C   C534      1.0  0.41056  0.99829  0.60251  1.0000
  H   H912      1.0  0.50836  0.99809  0.20650  1.0000
  H   H913      1.0  0.83076  0.24459  0.21197  1.0000
  H   H914      1.0  0.79205  0.22462  0.17713  1.0000
  S   S149      1.0  0.69412  0.16301  0.02137  1.0000
  H   H915      1.0  0.75779  0.23012  0.00470  1.0000
  C   C535      1.0  0.74990  0.22579  0.07147  1.0000
  C   C536      1.0  0.74693  0.21993  0.02758  1.0000
  C   C537      1.0  0.72993  0.20071  0.01315  1.0000
  C   C538      1.0  0.71549  0.18699  0.04210  1.0000
  C   C539      1.0  0.71840  0.19291  0.08599  1.0000
  C   C540      1.0  0.73544  0.21209  0.10046  1.0000
  C   C541      1.0  0.69233  0.22167  0.04803  1.0000
  H   H916      1.0  0.72797  0.19642  0.97914  1.0000
  H   H917      1.0  0.70769  0.18256  0.10887  1.0000
  H   H918      1.0  0.73749  0.21629  0.13449  1.0000
  C   C542      1.0  0.80681  0.23563  0.16246  1.0000
  H   H919      1.0  0.67397  0.17763  0.13686  1.0000
  H   H920      1.0  0.80320  0.24329  0.13532  1.0000
  H   H921      1.0  0.70102  0.23575  0.02875  1.0000
  H   H922      1.0  0.81770  0.23128  0.27283  1.0000
  H   H923      1.0  0.69195  0.20848  0.02912  1.0000
  H   H924      1.0  0.79218  0.21349  0.24970  1.0000
  C   C543      1.0  0.80118  0.22780  0.27027  1.0000
  H   H925      1.0  0.78180  0.23814  0.23687  1.0000
  C   C544      1.0  0.67075  0.21977  0.05854  1.0000
  H   H926      1.0  0.81390  0.22640  0.14810  1.0000
  H   H927      1.0  0.67923  0.20422  0.13309  1.0000
  H   H928      1.0  0.66425  0.17787  0.99280  1.0000
  Fe  Fe75      1.0  0.66297  0.13543  0.04208  1.0000
  H   H929      1.0  0.66916  0.20304  0.97247  1.0000
  H   H930      1.0  0.67309  0.22817  0.09024  1.0000
  H   H931      1.0  0.79490  0.22358  0.30304  1.0000
  H   H932      1.0  0.70207  0.22441  0.07795  1.0000
  C   C545      1.0  0.66700  0.18784  0.12794  1.0000
  H   H933      1.0  0.67067  0.18091  0.06233  1.0000
  H   H934      1.0  0.66951  0.06203  0.74915  1.0000
  C   C546      1.0  0.79725  0.24582  0.25455  1.0000
  H   H935      1.0  0.66716  0.22897  0.03455  1.0000
  H   H936      1.0  0.66711  0.08375  0.72958  1.0000
  Fe  Fe76      1.0  0.84163  0.46685  0.08619  1.0000
  S   S150      1.0  0.83203  0.47445  0.02213  1.0000
  S   S151      1.0  0.84500  0.43887  0.10828  1.0000
  H   H937      1.0  0.91848  0.31284  0.91182  1.0000
  H   H938      1.0  0.98441  0.36643  0.97022  1.0000
  S   S152      1.0  0.82104  0.47601  0.12449  1.0000
  C   C547      1.0  0.92229  0.29741  0.96705  1.0000
  Fe  Fe77      1.0  0.83548  0.31619  0.12659  1.0000
  S   S153      1.0  0.84955  0.33570  0.06960  1.0000
  S   S154      1.0  0.84671  0.32745  0.19571  1.0000
  Fe  Fe78      1.0  0.80022  0.28008  0.07225  1.0000
  S   S155      1.0  0.81222  0.29699  0.00985  1.0000
  Fe  Fe79      1.0  0.84463  0.30597  0.03655  1.0000
  S   S156      1.0  0.87380  0.30902  0.00471  1.0000
  Fe  Fe80      1.0  0.81675  0.32601  0.04667  1.0000
  S   S157      1.0  0.80984  0.34996  0.01434  1.0000
  S   S158      1.0  0.83265  0.28677  0.09575  1.0000
  S   S159      1.0  0.80271  0.30892  0.10672  1.0000
  H   H939      1.0  0.85111  0.26385  0.26587  1.0000
  N   N40       1.0  0.81342  0.26161  0.22625  1.0000
  S   S160      1.0  0.96247  0.38514  0.86642  1.0000
  H   H940      1.0  0.91365  0.41109  0.90380  1.0000
  S   S161      1.0  0.94119  0.39451  0.77905  1.0000
  C   C548      1.0  0.74124  0.49496  0.09736  1.0000
  Fe  Fe81      1.0  0.96434  0.41272  0.83217  1.0000
  S   S162      1.0  0.96000  0.43714  0.86878  1.0000
  Fe  Fe82      1.0  0.94103  0.36693  0.81092  1.0000
  S   S163      1.0  0.91001  0.33852  0.82095  1.0000
  S   S164      1.0  0.96665  0.36741  0.76990  1.0000
  Fe  Fe83      1.0  0.95254  0.41359  0.36448  1.0000
  S   S165      1.0  0.93585  0.43295  0.36556  1.0000
  Fe  Fe84      1.0  0.95351  0.37628  0.32108  1.0000
  C   C549      1.0  0.69135  0.48657  0.92292  1.0000
  S   S166      1.0  0.93929  0.35338  0.26399  1.0000
  Fe  Fe85      1.0  0.96875  0.38878  0.41570  1.0000
  N   N41       1.0  0.95083  0.31948  0.91398  1.0000
  S   S167      1.0  0.93797  0.37976  0.38035  1.0000
  S   S168      1.0  0.96549  0.40939  0.30269  1.0000
  H   H941      1.0  0.87799  0.41590  0.18906  1.0000
  H   H942      1.0  0.98083  0.41654  0.51730  1.0000
  C   C550      1.0  0.94997  0.45573  0.33723  1.0000
  C   C551      1.0  0.94204  0.46980  0.33173  1.0000
  H   H943      1.0  0.91868  0.38950  0.91342  1.0000
  C   C552      1.0  0.75863  0.49210  0.08665  1.0000
  C   C553      1.0  0.97197  0.39950  0.62109  1.0000
  C   C554      1.0  0.96452  0.37820  0.61211  1.0000
  H   H944      1.0  0.97008  0.33872  0.86319  1.0000
  C   C555      1.0  0.96915  0.38455  0.53451  1.0000
  N   N42       1.0  0.96482  0.46388  0.70295  1.0000
  H   H945      1.0  0.95384  0.47448  0.75767  1.0000
  H   H946      1.0  0.75409  0.43413  0.09832  1.0000
  C   C556      1.0  0.80320  0.27175  0.19956  1.0000
  H   H947      1.0  0.90191  0.39441  0.97817  1.0000
  H   H948      1.0  0.67441  0.47731  0.92834  1.0000
  C   C557      1.0  0.97129  0.47698  0.84674  1.0000
  H   H949      1.0  0.98506  0.46815  0.46128  1.0000
  H   H950      1.0  0.95555  0.47359  0.85444  1.0000
  C   C558      1.0  0.87229  0.33378  0.21421  1.0000
  C   C559      1.0  0.87796  0.33956  0.25786  1.0000
  C   C560      1.0  0.89847  0.34578  0.27339  1.0000
  C   C561      1.0  0.91334  0.34564  0.24562  1.0000
  C   C562      1.0  0.90747  0.33919  0.20224  1.0000
  C   C563      1.0  0.88708  0.33347  0.18646  1.0000
  H   H951      1.0  0.86654  0.33961  0.27962  1.0000
  H   H952      1.0  0.90275  0.35047  0.30695  1.0000
  H   H953      1.0  0.91883  0.33890  0.18062  1.0000
  H   H954      1.0  0.88285  0.32888  0.15283  1.0000
  C   C564      1.0  0.89851  0.33315  0.87200  1.0000
  C   C565      1.0  0.87866  0.31603  0.87565  1.0000
  C   C566      1.0  0.87011  0.30964  0.91635  1.0000
  C   C567      1.0  0.88145  0.32021  0.95386  1.0000
  C   C568      1.0  0.90102  0.33780  0.95019  1.0000
  C   C569      1.0  0.90937  0.34447  0.90938  1.0000
  H   H955      1.0  0.87015  0.30714  0.84696  1.0000
  H   H956      1.0  0.85524  0.29577  0.91881  1.0000
  H   H957      1.0  0.91007  0.34581  0.97908  1.0000
  H   H958      1.0  0.92461  0.35771  0.90707  1.0000
  C   C570      1.0  0.97796  0.46200  0.85291  1.0000
  H   H959      1.0  0.82515  0.28718  0.27396  1.0000
  H   H960      1.0  0.98287  0.36402  0.91315  1.0000
  H   H961      1.0  0.94543  0.33823  0.86709  1.0000
  C   C571      1.0  0.97852  0.48623  0.69130  1.0000
  H   H962      1.0  0.93282  0.29173  0.98096  1.0000
  C   C572      1.0  0.83590  0.41463  0.08044  1.0000
  C   C573      1.0  0.83620  0.39802  0.10234  1.0000
  C   C574      1.0  0.82854  0.37823  0.08210  1.0000
  C   C575      1.0  0.82044  0.37489  0.03975  1.0000
  C   C576      1.0  0.82059  0.39161  0.01738  1.0000
  C   C577      1.0  0.82834  0.41147  0.03762  1.0000
  H   H963      1.0  0.84206  0.40039  0.13542  1.0000
  H   H964      1.0  0.82853  0.36545  0.09956  1.0000
  H   H965      1.0  0.81453  0.38913  0.98442  1.0000
  H   H966      1.0  0.82844  0.42430  0.02026  1.0000
  H   H967      1.0  0.95461  0.30452  0.82658  1.0000
  N   N43       1.0  0.89977  0.41223  0.23322  1.0000
  C   C578      1.0  0.94508  0.31263  0.83100  1.0000
  C   C579      1.0  0.88733  0.39249  0.25718  1.0000
  C   C580      1.0  0.89010  0.41053  0.18848  1.0000
  C   C581      1.0  0.92243  0.41743  0.23093  1.0000
  H   H968      1.0  0.94794  0.27534  0.93247  1.0000
  C   C582      1.0  0.89500  0.39202  0.30374  1.0000
  C   C583      1.0  0.87874  0.38863  0.16607  1.0000
  C   C584      1.0  0.92688  0.40040  0.21121  1.0000
  C   C585      1.0  0.84657  0.34560  0.93914  1.0000
  C   C586      1.0  0.92799  0.30511  0.92081  1.0000
  H   H969      1.0  0.88692  0.37883  0.23996  1.0000
  H   H970      1.0  0.91971  0.44144  0.76372  1.0000
  H   H971      1.0  0.94753  0.34505  0.94364  1.0000
  H   H972      1.0  0.90199  0.42108  0.16604  1.0000
  H   H973      1.0  0.93114  0.43147  0.21153  1.0000
  H   H974      1.0  0.93018  0.42162  0.26363  1.0000
  H   H975      1.0  0.94380  0.28113  0.87767  1.0000
  H   H976      1.0  0.70223  0.49009  0.98933  1.0000
  C   C587      1.0  0.97618  0.40580  0.54349  1.0000
  H   H977      1.0  0.88513  0.37638  0.31676  1.0000
  C   C588      1.0  0.96937  0.46018  0.32084  1.0000
  H   H978      1.0  0.89339  0.40333  0.32577  1.0000
  H   H979      1.0  0.86374  0.37869  0.18159  1.0000
  C   C589      1.0  0.72187  0.48410  0.07471  1.0000
  H   H980      1.0  0.87475  0.39021  0.13202  1.0000
  H   H981      1.0  0.91994  0.38598  0.22980  1.0000
  H   H982      1.0  0.94401  0.40604  0.21233  1.0000
  H   H983      1.0  0.92167  0.39696  0.17692  1.0000
  H   H984      1.0  0.99187  0.48770  0.67209  1.0000
  H   H985      1.0  0.95989  0.36741  0.63819  1.0000
  C   C590      1.0  0.85208  0.36858  0.93185  1.0000
  H   H986      1.0  0.88221  0.42589  0.26367  1.0000
  H   H987      1.0  0.92827  0.30144  0.83280  1.0000
  H   H988      1.0  0.84229  0.29046  0.23131  1.0000
  Fe  Fe86      1.0  0.66764  0.48199  0.06389  1.0000
  C   C591      1.0  0.98082  0.47860  0.29893  1.0000
  C   C592      1.0  0.83098  0.27866  0.25284  1.0000
  H   H989      1.0  0.81449  0.28295  0.17718  1.0000
  C   C593      1.0  0.95787  0.33760  0.94614  1.0000
  C   C594      1.0  0.97771  0.41321  0.58651  1.0000
  H   H990      1.0  0.82931  0.33597  0.93716  1.0000
  H   H991      1.0  0.88372  0.38303  0.04601  1.0000
  H   H992      1.0  0.92631  0.45783  0.23600  1.0000
  C   C595      1.0  0.73758  0.46731  0.03040  1.0000
  H   H993      1.0  0.85165  0.34325  0.97157  1.0000
  H   H994      1.0  0.96938  0.44022  0.73674  1.0000
  S   S169      1.0  0.98358  0.38280  0.35676  1.0000
  H   H995      1.0  0.93892  0.44605  0.60401  1.0000
  H   H996      1.0  0.97600  0.44986  0.32620  1.0000
  H   H997      1.0  0.92830  0.42842  0.72565  1.0000
  H   H998      1.0  0.99211  0.34903  0.94452  1.0000
  C   C596      1.0  0.87536  0.38519  0.01772  1.0000
  H   H999      1.0  0.95784  0.35437  0.56257  1.0000
  C   C597      1.0  0.96432  0.30897  0.92078  1.0000
  S   S170      1.0  0.97562  0.41015  0.67472  1.0000
  H   H1000     1.0  0.73598  0.45652  0.00434  1.0000
  H   H1001     1.0  0.93672  0.46716  0.71253  1.0000
  C   C598      1.0  0.87697  0.40578  0.93295  1.0000
  C   C599      1.0  0.87220  0.41216  0.88861  1.0000
  S   S171      1.0  0.77846  0.47413  0.03713  1.0000
  H   H1002     1.0  0.89281  0.41790  0.94414  1.0000
  H   H1003     1.0  0.86624  0.40753  0.95591  1.0000
  H   H1004     1.0  0.88544  0.36724  0.97717  1.0000
  H   H1005     1.0  0.87277  0.42768  0.89223  1.0000
  H   H1006     1.0  0.88407  0.41382  0.86486  1.0000
  H   H1007     1.0  0.85641  0.40108  0.87560  1.0000
  H   H1008     1.0  0.85286  0.33927  0.91402  1.0000
  H   H1009     1.0  0.87678  0.40103  0.02121  1.0000
  S   S172      1.0  0.98201  0.42301  0.40365  1.0000
  H   H1010     1.0  0.91348  0.39541  0.85961  1.0000
  S   S173      1.0  0.87004  0.49810  0.09556  1.0000
  C   C600      1.0  0.95706  0.44961  0.66330  1.0000
  H   H1011     1.0  0.79505  0.25377  0.28355  1.0000
  C   C601      1.0  0.94739  0.46279  0.73029  1.0000
  C   C602      1.0  0.98450  0.49591  0.82819  1.0000
  H   H1012     1.0  0.95297  0.43337  0.67210  1.0000
  H   H1013     1.0  0.98107  0.46503  0.76280  1.0000
  C   C603      1.0  0.95508  0.28588  0.90529  1.0000
  S   S174      1.0  0.99189  0.41761  0.79379  1.0000
  C   C604      1.0  0.98062  0.35504  0.94280  1.0000
  H   H1014     1.0  0.97960  0.31786  0.90520  1.0000
  H   H1015     1.0  0.92334  0.43326  0.64793  1.0000
  H   H1016     1.0  0.98242  0.49658  0.38360  1.0000
  N   N44       1.0  0.76677  0.40838  0.05294  1.0000
  C   C605      1.0  0.76484  0.41698  0.00999  1.0000
  C   C606      1.0  0.74651  0.40208  0.07532  1.0000
  C   C607      1.0  0.76938  0.38928  0.04370  1.0000
  C   C608      1.0  0.78542  0.42490  0.07814  1.0000
  C   C609      1.0  0.78310  0.42273  0.97934  1.0000
  C   C610      1.0  0.74085  0.41982  0.08404  1.0000
  C   C611      1.0  0.77233  0.37808  0.08283  1.0000
  C   C612      1.0  0.78565  0.42305  0.12784  1.0000
  H   H1017     1.0  0.75030  0.40578  0.99189  1.0000
  H   H1018     1.0  0.76341  0.43146  0.01469  1.0000
  H   H1019     1.0  0.74612  0.39483  0.10657  1.0000
  H   H1020     1.0  0.73325  0.38965  0.05592  1.0000
  H   H1021     1.0  0.75584  0.37755  0.02378  1.0000
  H   H1022     1.0  0.78334  0.39322  0.02437  1.0000
  H   H1023     1.0  0.80011  0.42558  0.06652  1.0000
  H   H1024     1.0  0.78681  0.44058  0.07220  1.0000
  H   H1025     1.0  0.78261  0.40866  0.96359  1.0000
  H   H1026     1.0  0.78171  0.43228  0.95310  1.0000
  H   H1027     1.0  0.79849  0.43219  0.99579  1.0000
  H   H1028     1.0  0.72796  0.41454  0.10705  1.0000
  H   H1029     1.0  0.77306  0.36389  0.07105  1.0000
  H   H1030     1.0  0.75921  0.37281  0.10509  1.0000
  H   H1031     1.0  0.78747  0.38788  0.10020  1.0000
  H   H1032     1.0  0.80190  0.42784  0.13954  1.0000
  H   H1033     1.0  0.77600  0.40734  0.14010  1.0000
  H   H1034     1.0  0.78132  0.43426  0.14366  1.0000
  C   C613      1.0  0.96187  0.48960  0.43579  1.0000
  H   H1035     1.0  0.96806  0.30915  0.95588  1.0000
  H   H1036     1.0  0.96044  0.49616  0.46734  1.0000
  H   H1037     1.0  0.96425  0.48991  0.63100  1.0000
  H   H1038     1.0  0.96967  0.45406  0.63969  1.0000
  C   C614      1.0  0.75699  0.47828  0.05293  1.0000
  H   H1039     1.0  0.79017  0.25995  0.17880  1.0000
  H   H1040     1.0  0.88810  0.38024  0.16559  1.0000
  H   H1041     1.0  0.90263  0.45098  0.20393  1.0000
  H   H1042     1.0  0.90652  0.43239  0.29042  1.0000
  H   H1043     1.0  0.91127  0.39446  0.30523  1.0000
  Fe  Fe87      1.0  0.98823  0.38828  0.82362  1.0000
  H   H1044     1.0  0.94656  0.32139  0.80115  1.0000
  C   C615      1.0  0.93371  0.44143  0.74993  1.0000
  H   H1045     1.0  0.87071  0.38914  0.25856  1.0000
  H   H1046     1.0  0.87868  0.49347  0.94306  1.0000
  C   C616      1.0  0.95381  0.48857  0.31098  1.0000
  C   C617      1.0  0.89876  0.42983  0.25795  1.0000
  C   C618      1.0  0.84374  0.27205  0.28313  1.0000
  C   C619      1.0  0.79374  0.28368  0.22466  1.0000
  H   H1047     1.0  0.90619  0.46252  0.25672  1.0000
  Fe  Fe88      1.0  0.81268  0.48551  0.06128  1.0000
  H   H1048     1.0  0.95713  0.47275  0.43795  1.0000
  C   C620      1.0  0.96331  0.37084  0.56913  1.0000
  C   C621      1.0  0.90912  0.45133  0.23681  1.0000
  C   C622      1.0  0.97329  0.49303  0.29496  1.0000
  H   H1049     1.0  0.92704  0.46641  0.34438  1.0000
  C   C623      1.0  0.88517  0.38243  0.97607  1.0000
  H   H1050     1.0  0.73509  0.42391  0.05412  1.0000
  C   C624      1.0  0.90914  0.39478  0.89388  1.0000
  H   H1051     1.0  0.84515  0.36878  0.89965  1.0000
  Fe  Fe89      1.0  0.96857  0.39674  0.74238  1.0000
  N   N45       1.0  0.87498  0.38416  0.93458  1.0000
  H   H1052     1.0  0.78297  0.27418  0.24963  1.0000
  C   C625      1.0  0.95336  0.32832  0.86954  1.0000
  H   H1053     1.0  0.80600  0.29863  0.23912  1.0000
  H   H1054     1.0  0.69289  0.49577  0.89387  1.0000
  H   H1055     1.0  0.88433  0.36399  0.89995  1.0000
  H   H1056     1.0  0.93420  0.46116  0.64367  1.0000
  C   C626      1.0  0.93734  0.44779  0.63920  1.0000
  C   C627      1.0  0.72017  0.47012  0.04120  1.0000
  H   H1057     1.0  0.84313  0.37283  0.95511  1.0000
  C   C628      1.0  0.97792  0.45722  0.73058  1.0000
  S   S175      1.0  0.70086  0.48942  0.08854  1.0000
  S   S176      1.0  0.96872  0.37456  0.48134  1.0000
  H   H1058     1.0  0.73457  0.49388  0.96169  1.0000
  H   H1059     1.0  0.95667  0.33222  0.97981  1.0000
  H   H1060     1.0  0.70542  0.46141  0.02366  1.0000
  H   H1061     1.0  0.85674  0.28634  0.29842  1.0000
  C   C629      1.0  0.88557  0.37976  0.89751  1.0000
  H   H1062     1.0  0.87748  0.37877  0.86596  1.0000
  H   H1063     1.0  0.85876  0.37341  0.01953  1.0000
  H   H1064     1.0  0.92228  0.30982  0.98854  1.0000
  H   H1065     1.0  0.90610  0.28432  0.96655  1.0000
  H   H1066     1.0  0.96803  0.28287  0.89501  1.0000
  H   H1067     1.0  0.69723  0.47519  0.91656  1.0000
  H   H1068     1.0  0.83484  0.26443  0.17619  1.0000
  H   H1069     1.0  0.94217  0.43851  0.77702  1.0000
  H   H1070     1.0  0.95042  0.49097  0.41351  1.0000
  H   H1071     1.0  0.92163  0.29104  0.89928  1.0000
  H   H1072     1.0  0.78450  0.28790  0.20155  1.0000
  H   H1073     1.0  0.83423  0.26265  0.30979  1.0000
  H   H1074     1.0  0.98551  0.49614  0.72118  1.0000
  H   H1075     1.0  0.89721  0.48956  0.87968  1.0000
  H   H1076     1.0  0.98583  0.37943  0.19369  1.0000
  H   H1077     1.0  0.95463  0.49664  0.67967  1.0000
  H   H1078     1.0  0.98708  0.49684  0.50321  1.0000
  H   H1079     1.0  0.98996  0.47077  0.40555  1.0000
  C   C630      1.0  0.96829  0.49672  0.66427  1.0000
  C   C631      1.0  0.82251  0.25204  0.19519  1.0000
  H   H1080     1.0  0.98354  0.42972  0.59299  1.0000
  S   S177      1.0  0.77126  0.24981  0.09218  1.0000
  H   H1081     1.0  0.99303  0.39798  0.23744  1.0000
  C   C632      1.0  0.89653  0.53337  0.22258  1.0000
  H   H1082     1.0  0.91908  0.55956  0.94554  1.0000
  S   S178      1.0  0.85782  0.52826  0.19009  1.0000
  H   H1083     1.0  0.93248  0.55583  0.03247  1.0000
  H   H1084     1.0  0.94989  0.57113  0.17664  1.0000
  C   C633      1.0  0.92765  0.53921  0.12316  1.0000
  C   C634      1.0  0.98387  0.50201  0.41771  1.0000
  S   S179      1.0  0.97471  0.53389  0.74835  1.0000
  S   S180      1.0  0.83918  0.51827  0.06862  1.0000
  H   H1085     1.0  0.98725  0.51860  0.41653  1.0000
  H   H1086     1.0  0.93828  0.57934  0.49897  1.0000
  Fe  Fe90      1.0  0.96332  0.54264  0.80878  1.0000
  S   S181      1.0  0.93126  0.51898  0.83091  1.0000
  H   H1087     1.0  0.95468  0.57982  0.09591  1.0000
  H   H1088     1.0  0.92018  0.56333  0.38398  1.0000
  S   S182      1.0  0.96057  0.53917  0.35450  1.0000
  C   C635      1.0  0.88588  0.57006  0.11219  1.0000
  H   H1089     1.0  0.75035  0.54084  0.99582  1.0000
  C   C636      1.0  0.94146  0.58146  0.08144  1.0000
  C   C637      1.0  0.90610  0.57656  0.08730  1.0000
  Fe  Fe91      1.0  0.96712  0.56976  0.32648  1.0000
  S   S183      1.0  0.94127  0.57714  0.30574  1.0000
  H   H1090     1.0  0.88875  0.57777  0.14462  1.0000
  C   C638      1.0  0.89768  0.52675  0.94915  1.0000
  H   H1091     1.0  0.87549  0.57470  0.09380  1.0000
  C   C639      1.0  0.92129  0.53398  0.43885  1.0000
  H   H1092     1.0  0.92751  0.59697  0.15340  1.0000
  H   H1093     1.0  0.94546  0.56956  0.40259  1.0000
  H   H1094     1.0  0.94958  0.60058  0.44156  1.0000
  H   H1095     1.0  0.95357  0.56821  0.47823  1.0000
  C   C640      1.0  0.70236  0.50050  0.96332  1.0000
  H   H1096     1.0  0.73150  0.54413  0.05688  1.0000
  H   H1097     1.0  0.93592  0.53755  0.52348  1.0000
  H   H1098     1.0  0.90090  0.56864  0.05494  1.0000
  C   C641      1.0  0.88146  0.54040  0.22145  1.0000
  C   C642      1.0  0.88492  0.55791  0.24681  1.0000
  C   C643      1.0  0.90324  0.56865  0.27221  1.0000
  C   C644      1.0  0.91838  0.56189  0.27359  1.0000
  C   C645      1.0  0.72322  0.53832  0.02504  1.0000
  C   C646      1.0  0.94796  0.58531  0.17533  1.0000
  H   H1099     1.0  0.87338  0.56341  0.24645  1.0000
  H   H1100     1.0  0.90566  0.58236  0.29096  1.0000
  C   C647      1.0  0.93505  0.59174  0.42156  1.0000
  H   H1101     1.0  0.94731  0.59864  0.08034  1.0000
  N   N46       1.0  0.92228  0.57169  0.10821  1.0000
  C   C648      1.0  0.93294  0.55108  0.52859  1.0000
  S   S184      1.0  0.99188  0.57132  0.28241  1.0000
  C   C649      1.0  0.91912  0.52228  0.87750  1.0000
  H   H1102     1.0  0.93762  0.59971  0.39029  1.0000
  H   H1103     1.0  0.89130  0.51610  0.40305  1.0000
  H   H1104     1.0  0.94384  0.56077  0.55531  1.0000
  C   C650      1.0  0.73421  0.52811  0.99982  1.0000
  C   C651      1.0  0.98824  0.57197  0.61367  1.0000
  C   C652      1.0  0.88550  0.55041  0.42671  1.0000
  H   H1105     1.0  0.69967  0.53771  0.95589  1.0000
  H   H1106     1.0  0.94783  0.49959  0.30741  1.0000
  H   H1107     1.0  0.76716  0.51241  0.91952  1.0000
  C   C653      1.0  0.72518  0.53317  0.92460  1.0000
  H   H1108     1.0  0.95407  0.58002  0.01914  1.0000
  C   C654      1.0  0.91453  0.54418  0.93199  1.0000
  C   C655      1.0  0.91500  0.54408  0.24887  1.0000
  H   H1109     1.0  0.89385  0.51964  0.20361  1.0000
  S   S185      1.0  0.97818  0.54461  0.47393  1.0000
  C   C656      1.0  0.92714  0.58144  0.15323  1.0000
  C   C657      1.0  0.90822  0.52206  0.39827  1.0000
  H   H1110     1.0  0.72489  0.52706  0.89125  1.0000
  H   H1111     1.0  0.76417  0.53553  0.91997  1.0000
  H   H1112     1.0  0.69196  0.50667  0.97489  1.0000
  Fe  Fe92      1.0  0.85912  0.50669  0.03441  1.0000
  H   H1113     1.0  0.90535  0.54070  0.07802  1.0000
  S   S186      1.0  0.88447  0.53072  0.99316  1.0000
  H   H1114     1.0  0.94836  0.59067  0.20930  1.0000
  C   C658      1.0  0.89168  0.50700  0.93043  1.0000
  H   H1115     1.0  0.91281  0.59359  0.08175  1.0000
  H   H1116     1.0  0.72400  0.55206  0.00856  1.0000
  C   C659      1.0  0.90100  0.55175  0.46334  1.0000
  H   H1117     1.0  0.96154  0.59796  0.15990  1.0000
  H   H1118     1.0  0.91460  0.57184  0.17534  1.0000
  H   H1119     1.0  0.92662  0.53872  0.24968  1.0000
  S   S187      1.0  0.97591  0.57619  0.79033  1.0000
  H   H1120     1.0  0.90301  0.56507  0.48488  1.0000
  H   H1121     1.0  0.91048  0.50813  0.39235  1.0000
  H   H1122     1.0  0.69513  0.52998  0.89943  1.0000
  H   H1123     1.0  0.97486  0.54006  0.63194  1.0000
  C   C660      1.0  0.91306  0.54830  0.10949  1.0000
  H   H1124     1.0  0.93817  0.55553  0.88377  1.0000
  H   H1125     1.0  0.94393  0.54836  0.11337  1.0000
  C   C661      1.0  0.93866  0.57299  0.03448  1.0000
  S   S188      1.0  0.66346  0.50957  0.04252  1.0000
  H   H1126     1.0  0.87706  0.55294  0.11508  1.0000
  H   H1127     1.0  0.92846  0.57740  0.01490  1.0000
  H   H1128     1.0  0.97036  0.52585  0.55662  1.0000
  H   H1129     1.0  0.92208  0.52369  0.10678  1.0000
  C   C662      1.0  0.92536  0.54195  0.89677  1.0000
  Fe  Fe93      1.0  0.98497  0.55814  0.40610  1.0000
  H   H1130     1.0  0.89301  0.53755  0.48277  1.0000
  H   H1131     1.0  0.76837  0.52503  0.96991  1.0000
  H   H1132     1.0  0.86936  0.53962  0.43615  1.0000
  H   H1133     1.0  0.90000  0.54192  0.13214  1.0000
  C   C663      1.0  0.70725  0.53912  0.92477  1.0000
  H   H1134     1.0  0.70701  0.52708  0.03220  1.0000
  C   C664      1.0  0.93746  0.56430  0.48795  1.0000
  H   H1135     1.0  0.74019  0.54787  0.92845  1.0000
  S   S189      1.0  0.98991  0.58894  0.38071  1.0000
  N   N47       1.0  0.72431  0.51750  0.95700  1.0000
  Fe  Fe94      1.0  0.98709  0.54219  0.31441  1.0000
  C   C665      1.0  0.93064  0.56903  0.41300  1.0000
  H   H1136     1.0  0.93737  0.53612  0.43459  1.0000
  Fe  Fe95      1.0  0.84895  0.50783  0.12900  1.0000
  N   N48       1.0  0.92209  0.55465  0.45020  1.0000
  H   H1137     1.0  0.92187  0.59270  0.43693  1.0000
  H   H1138     1.0  0.92741  0.53705  0.15850  1.0000
  S   S190      1.0  0.99120  0.58279  0.66712  1.0000
  S   S191      1.0  0.99170  0.54874  0.84936  1.0000
  H   H1139     1.0  0.73576  0.51686  0.02159  1.0000
  H   H1140     1.0  0.91480  0.52294  0.46553  1.0000
  C   C666      1.0  0.97717  0.54251  0.56249  1.0000
  H   H1141     1.0  0.71351  0.55566  0.91573  1.0000
  C   C667      1.0  0.76043  0.52110  0.93751  1.0000
  C   C668      1.0  0.73669  0.50702  0.94074  1.0000
  H   H1142     1.0  0.91687  0.54574  0.53969  1.0000
  H   H1143     1.0  0.91313  0.53126  0.36867  1.0000
  C   C669      1.0  0.97979  0.55049  0.60533  1.0000
  C   C670      1.0  0.90222  0.50483  0.89450  1.0000
  H   H1144     1.0  0.88586  0.56575  0.42289  1.0000
  H   H1145     1.0  0.97996  0.51334  0.66116  1.0000
  S   S192      1.0  0.98937  0.51745  0.27443  1.0000
  C   C671      1.0  0.98295  0.55586  0.52728  1.0000
  H   H1146     1.0  0.88753  0.54455  0.39501  1.0000
  H   H1147     1.0  0.98226  0.63331  0.79464  1.0000
  H   H1148     1.0  0.77334  0.50068  0.10445  1.0000
  H   H1149     1.0  0.98588  0.62179  0.74658  1.0000
  Fe  Fe96      1.0  0.98962  0.56787  0.73275  1.0000
  H   H1150     1.0  0.97874  0.50687  0.82151  1.0000
  H   H1151     1.0  0.74288  0.50581  0.12335  1.0000
  C   C672      1.0  0.99144  0.57735  0.53553  1.0000
  H   H1152     1.0  0.73100  0.49991  0.90788  1.0000
