data_image0
_chemical_formula_structural       SFeSHFeS2FeSCFeSFeS3H2CFeH7CH3C6H3NCHNC6H5CSHC2H2CH2CH5CH2CH3CHCH9SHCH2FeC2HC2H4CHCH3CNH2CFeC2SHFeH6CSC2HSCH5C2HCHC2HCH2CHCH2CH8NCHCH3SH3SHC2HSCH4FeS2FeS2FeS3FeS2FeS2FeSFeCS2H2C2SCHNH3C3HFeSCSHFeS2FeS2FeSFeS3FeS2FeS2FeSFeS3FeS2FeS2FeSFeS2H5FeH2C6H4C6H4C6H4C7H4C6H7CHC7H4C6H4CH2C3H2C3HCH5C2H2CH2C6H8SH2CHFeH6C2H2C2H2SH3CHCH3CHNH4FeHCH4C2H2NC7H8CH4CH7NC7H17CH3NC8H20NC8H20C3N2HSH6CHCH2C2NHCH5CH5C2H8C3H4CH2CH2CH4CHC2H5CH5CH3CH4NC2H2CH2C2H3CHSH2NCH2CHCH2CHCHS2CHSHCH2CHCH2CHCH2FeCFeSH3SCHCSH2CFeCHCSHC3H4CH3SHC2H4CH2SHCSHCH2FeS2FeS2FeSFeS3FeHSH2CH2SHC2H3C6H5C8H6NH2C7H7CH3C2HC2H10SNC3HCHSH3CHFeHCH5FeHCHCH2CH6C2H2CHSHCHCH5CHC3H4FeNH5NHCHC4H2CH7C2SHC2FeSH4FeS2FeS2FeSFeS3FeS2FeS2FeSFeS3FeS2FeS2Fe2S3HCH3CSHFeS2FeS2Fe2S3HCFeSH3CH3C7H6CSC6H3SC6H4C6H4C6H4C6H4C2SHC4H2C6H4C6H7CSCH2SCH3CFeCH2C5H4NC8H20C2H7NC8H20NC8H22C2HCH4NSH2CFeH4SCH3CH2NHSH2C3SCH3C3NHCH8SHFeCH2C2H7CH3CH2NC2HNH2CH6NC8H5SCHSC2H4CHCH2CH4C5H4C3H4NH4FeC2H3SH3CHFeHSC2H2SCH4SHCH3SCH2C2SHCHCH3FeHCH2CSC2H2CHCH3C2HFeHCHSH2CHCFeCHCH4NH2C2HCH2CSH5SFeCHSFeH2CSNCHCFeHC3H2C2HCH2CFeHFeHC2H4C2FeHSHCH4NH4SCH2CH3CH3FeNH2CHSHSHCH3CH2C2H4CHC3H2C2H6SCH4SFeS2FeS2FeSFeS3FeS2FeS2FeSFeS3FeS2FeS2FeSFeS3FeS2FeS2FeSFeS3FeS2FeS2FeSFeHS2C6H4C6H4C6H4C6H4C3H4C6H4C6H7C2HCHC7H5C4H3C6H4C6H4CHC4H6CSHSCH6FeH5CH4C3NC3HC2H9CHC2H2NC2HCH2C2H4CH2CNC8H19C2H4NC8H21NC8H20CH2SH2SHCH2CH7CH5CHSC2HCH3SCH2CH2CHNH2CH2CHCHCH3C2H3C2NH3CH2C2H2CHSHFeC2H3C2H5CH4CH3CH2C2H2CHCH5C2H2N2CH7C2H5C5HCFeH3NH4FeHCHCH3C2SCH2CH4CNHCH6NCH2CH3CH9CHCHCH4CH5CH3NH3C2H2C2HCNHC2H3CH5C2H2C3H3CSCH2CNH9CH4CH2CHCFeHC2H2CFeS2FeSFeSFeS3FeS2FeS2FeSFeS3FeS2FeS2FeSFeS3FeS2FeS2FeSFeS3FeCSFeS2FeCFeS3FeS2FeS2FeSFeS3H6S3HC2HNCH4FeC4SC8H5FeHFeH3CHSC6H4C6H4C6H4C6H4C6H4C5H2C6H4C6H4C6H4C6H4C6H3NC8H21NC8H20NC8H16SCH2C2H2CHCNH2C2H4SH7NCH4CNC2H6C6HCH2C2H3CH9CH4C2NH3CHCH3NCHC2H4CH5C3HCHC2H3CH2CH8NHCH8C2HC3H5C2H3CH2CHCHCH5CH3CHCH6SH2CH4C3H9CH3C2HCH3NHCH5C2NCH10CH2CHCHCNH2C2H5CSH4C2H2CH2CH3C2H7CHCH5CH2FeNHCH2CH3CH2CHSH2CH2CHSNHCH2SH2C2HCH2CSC2H5FeSHFeS2FeSFeS3FeS2FeS2FeSFeS3FeS2FeS2FeSFeS3FeS2FeS2FeSFeS3FeSHFeS2FeSFeS3FeS2FeS2FeSFeS3HCS2FeS2FeSFeS2C6H4C6H5NCH2C6H4C6H4C6H4C6H4CHCHSHCH2C6H4C6H4C6H4C6H4C6H4C6H4CHC4H4CHNC4H9NC4H10CH4CH3NC4H5CH5C3H4CHCH4C2H2C2HFeHNC2HC3H2SH3SHCH4NHCH4C4HCH3NH4C3HCH2C3H2CH2NC8H20CSHC2H4CH2CHCHCH3C2H5FeCH4CHC3H6CH7NC2H3CH3CH3CHCH2NCH2CH4CH2CH2C2HC2H5CH3CH4CNCHCHCHCHCH3CH3CHCH3NH2CH7C3H12CH2CH3CH2CH3C2H4CH7CH3CHCH3CNC3H4NCHCH3C2H2SH4CH13CNCHC2HC2HSCHCH7CH8CH3C2H4CHCH7CH5CSHC3H3SCH7CHC2HCHCH3C2NH2C2H5SH2C2HSH2CHSCFeSH2C2FeH5CHSH3C6H6C2H2CH3NH4C2HSH3C2HCH3SCH2NH2CH4C2HCH2SH4CH2CHFeS2FeS2Fe2S3CFeS2FeHFeSFeS2FeS2FeSFeS3FeS2FeS2FeSFeS3FeS2FeS2FeSFeS3FeS2FeS2FeSFeS3FeSFeS2FeSFeSHSFeS2FeS2FeS3C6H4C6H4C6H4C6H4C6H4C6H4C6H4C6H4C6H4C6H3C6H4C6H4C6H4C3HC3NH3NC7H17CNC8H27NC8H21C2HSHSH3C3H2CFeH3SHCHCH6NC5H13NC8H20CHFeH3CHCHCH6C2H2CH6C2H3C4H2CH4NC2HCNCH5SH4CH7CH3CHCH5SCH3CHNHC2H4CH3CHC2HCH7NHCH4CH6NC2H2CH5CH3CHCH5CH4C2H2NH5CH2CHC2H3CH3C2HC4H7C2HC3H2C2NC2HSHCH3CH2CH3C2NH6CHNH6CH3CH4CH2CH2CH4C2H2C2H3
_chemical_formula_sum              "S384 Fe192 H2304 C1344 N96"
_cell_length_a       117.601
_cell_length_b       116.157
_cell_length_c       31.2472
_cell_angle_alpha    77.0273
_cell_angle_beta     77.3045
_cell_angle_gamma    102.238

_space_group_name_H-M_alt    "P 1"
_space_group_IT_number       1

loop_
  _space_group_symop_operation_xyz
  'x, y, z'

loop_
  _atom_site_type_symbol
  _atom_site_label
  _atom_site_symmetry_multiplicity
  _atom_site_fract_x
  _atom_site_fract_y
  _atom_site_fract_z
  _atom_site_occupancy
  S   S1        1.0  0.11976  0.48614  0.26183  1.0000
  Fe  Fe1       1.0  0.10927  0.49604  0.21990  1.0000
  S   S2        1.0  0.09672  0.49133  0.17441  1.0000
  H   H1        1.0  0.15645  0.50109  0.02136  1.0000
  Fe  Fe2       1.0  0.04967  0.45814  0.04499  1.0000
  S   S3        1.0  0.05889  0.47158  0.97592  1.0000
  S   S4        1.0  0.05910  0.45660  0.10268  1.0000
  Fe  Fe3       1.0  0.02713  0.44674  0.01252  1.0000
  S   S5        1.0  0.03522  0.45964  0.94186  1.0000
  C   C1        1.0  0.03085  0.48940  0.10422  1.0000
  Fe  Fe4       1.0  0.05296  0.45601  0.94742  1.0000
  S   S6        1.0  0.06461  0.45019  0.89316  1.0000
  Fe  Fe5       1.0  0.04036  0.47391  0.97705  1.0000
  S   S7        1.0  0.03624  0.49202  0.95902  1.0000
  S   S8        1.0  0.04469  0.44207  0.01650  1.0000
  S   S9        1.0  0.03129  0.46146  0.04810  1.0000
  H   H2        1.0  0.06228  0.49652  0.94006  1.0000
  H   H3        1.0  0.02151  0.50334  0.19574  1.0000
  C   C2        1.0  0.14175  0.47259  0.31124  1.0000
  Fe  Fe6       1.0  0.13629  0.50132  0.21728  1.0000
  H   H4        1.0  0.09861  0.49064  0.89206  1.0000
  H   H5        1.0  0.01453  0.41621  0.92045  1.0000
  H   H6        1.0  0.00906  0.43562  0.93666  1.0000
  H   H7        1.0  0.03433  0.40921  0.00013  1.0000
  H   H8        1.0  0.13902  0.47965  0.45945  1.0000
  H   H9        1.0  0.03582  0.39672  0.87041  1.0000
  H   H10       1.0  0.05026  0.47911  0.16051  1.0000
  C   C3        1.0  0.04176  0.40977  0.90757  1.0000
  H   H11       1.0  0.01954  0.49841  0.07016  1.0000
  H   H12       1.0  0.03799  0.44608  0.87421  1.0000
  H   H13       1.0  0.08370  0.51028  0.39701  1.0000
  C   C4        1.0  0.10326  0.47106  0.80215  1.0000
  C   C5        1.0  0.09534  0.47783  0.81681  1.0000
  C   C6        1.0  0.08345  0.47165  0.84576  1.0000
  C   C7        1.0  0.07944  0.45874  0.85899  1.0000
  C   C8        1.0  0.08736  0.45214  0.84378  1.0000
  C   C9        1.0  0.09920  0.45822  0.81637  1.0000
  H   H14       1.0  0.09843  0.48776  0.80631  1.0000
  H   H15       1.0  0.07736  0.47686  0.85696  1.0000
  H   H16       1.0  0.08438  0.44220  0.85359  1.0000
  N   N1        1.0  0.03930  0.49033  0.13414  1.0000
  C   C10       1.0  0.02131  0.41194  0.90435  1.0000
  H   H17       1.0  0.04826  0.50949  0.09542  1.0000
  N   N2        1.0  0.03400  0.41854  0.90294  1.0000
  C   C11       1.0  0.08638  0.48153  0.15436  1.0000
  C   C12       1.0  0.08284  0.48657  0.11552  1.0000
  C   C13       1.0  0.07460  0.47917  0.09891  1.0000
  C   C14       1.0  0.06975  0.46655  0.12097  1.0000
  C   C15       1.0  0.07336  0.46153  0.15949  1.0000
  C   C16       1.0  0.08160  0.46891  0.17598  1.0000
  H   H18       1.0  0.08644  0.49630  0.09829  1.0000
  H   H19       1.0  0.07199  0.48327  0.06922  1.0000
  H   H20       1.0  0.06973  0.45181  0.17698  1.0000
  H   H21       1.0  0.08419  0.46482  0.20574  1.0000
  H   H22       1.0  0.07074  0.51035  0.37521  1.0000
  C   C17       1.0  0.09734  0.49005  0.92889  1.0000
  S   S10       1.0  0.15400  0.49838  0.18274  1.0000
  H   H23       1.0  0.08418  0.47323  0.94070  1.0000
  C   C18       1.0  0.05049  0.50085  0.10871  1.0000
  C   C19       1.0  0.05947  0.50285  0.95782  1.0000
  H   H24       1.0  0.07728  0.51032  0.96387  1.0000
  H   H25       1.0  0.04804  0.47771  0.10734  1.0000
  C   C20       1.0  0.11235  0.45758  0.92648  1.0000
  H   H26       1.0  0.07441  0.45367  0.97238  1.0000
  H   H27       1.0  0.11645  0.45730  0.89120  1.0000
  C   C21       1.0  0.08099  0.44871  0.98143  1.0000
  H   H28       1.0  0.00956  0.40519  0.86524  1.0000
  H   H29       1.0  0.10868  0.48534  0.48517  1.0000
  H   H30       1.0  0.01859  0.40232  0.92680  1.0000
  H   H31       1.0  0.03075  0.50897  0.08276  1.0000
  H   H32       1.0  0.01881  0.42046  0.83759  1.0000
  C   C22       1.0  0.15540  0.50273  0.33396  1.0000
  H   H33       1.0  0.11524  0.48073  0.96602  1.0000
  H   H34       1.0  0.04059  0.42587  0.82869  1.0000
  C   C23       1.0  0.03358  0.46651  0.16707  1.0000
  H   H35       1.0  0.08461  0.45751  0.03206  1.0000
  H   H36       1.0  0.08548  0.44605  0.95154  1.0000
  H   H37       1.0  0.11993  0.46041  0.94100  1.0000
  C   C24       1.0  0.16620  0.47327  0.35389  1.0000
  H   H38       1.0  0.09200  0.49642  0.93796  1.0000
  C   C25       1.0  0.00770  0.46818  0.92316  1.0000
  H   H39       1.0  0.15987  0.46767  0.38755  1.0000
  H   H40       1.0  0.13888  0.49896  0.07640  1.0000
  H   H41       1.0  0.02766  0.43038  0.94210  1.0000
  H   H42       1.0  0.10630  0.49357  0.93392  1.0000
  H   H43       1.0  0.09553  0.45002  0.01329  1.0000
  H   H44       1.0  0.16184  0.50891  0.25772  1.0000
  H   H45       1.0  0.11029  0.48084  0.04693  1.0000
  H   H46       1.0  0.03796  0.44556  0.81772  1.0000
  H   H47       1.0  0.17705  0.50251  0.11750  1.0000
  S   S11       1.0  0.11449  0.49402  0.38653  1.0000
  H   H48       1.0  0.15811  0.48699  0.27260  1.0000
  C   C26       1.0  0.03333  0.42383  0.94312  1.0000
  H   H49       1.0  0.16354  0.50865  0.05580  1.0000
  H   H50       1.0  0.10525  0.45292  0.80564  1.0000
  Fe  Fe7       1.0  0.11805  0.49895  0.30741  1.0000
  C   C27       1.0  0.10469  0.46683  0.92360  1.0000
  C   C28       1.0  0.03478  0.43997  0.85414  1.0000
  H   H51       1.0  0.13551  0.48460  0.38389  1.0000
  C   C29       1.0  0.03130  0.50405  0.18293  1.0000
  C   C30       1.0  0.14421  0.48247  0.38593  1.0000
  H   H52       1.0  0.11092  0.47579  0.90076  1.0000
  H   H53       1.0  0.13246  0.47167  0.33208  1.0000
  H   H54       1.0  0.08444  0.47722  0.99135  1.0000
  H   H55       1.0  0.06374  0.49629  0.14600  1.0000
  C   C31       1.0  0.09012  0.45613  0.00071  1.0000
  H   H56       1.0  0.02521  0.40768  0.83745  1.0000
  C   C32       1.0  0.10278  0.47794  0.03201  1.0000
  H   H57       1.0  0.10680  0.44812  0.94616  1.0000
  H   H58       1.0  0.01746  0.49901  0.12756  1.0000
  H   H59       1.0  0.03811  0.45904  0.17289  1.0000
  C   C33       1.0  0.04737  0.50320  0.96759  1.0000
  N   N3        1.0  0.09825  0.46827  0.96862  1.0000
  H   H60       1.0  0.09816  0.46413  0.90442  1.0000
  H   H61       1.0  0.05570  0.50647  0.16659  1.0000
  C   C34       1.0  0.04029  0.42898  0.85986  1.0000
  Fe  Fe8       1.0  0.13662  0.50998  0.61362  1.0000
  C   C35       1.0  0.10757  0.47322  0.99109  1.0000
  C   C36       1.0  0.09054  0.47683  0.95920  1.0000
  S   S12       1.0  0.12620  0.51042  0.17380  1.0000
  H   H62       1.0  0.05081  0.39825  0.87505  1.0000
  Fe  Fe9       1.0  0.12724  0.49642  0.71712  1.0000
  H   H63       1.0  0.14772  0.49488  0.42907  1.0000
  H   H64       1.0  0.07561  0.44006  0.00833  1.0000
  H   H65       1.0  0.11187  0.46602  0.00416  1.0000
  H   H66       1.0  0.14222  0.47236  0.39277  1.0000
  H   H67       1.0  0.04999  0.43270  0.85809  1.0000
  H   H68       1.0  0.14486  0.49179  0.28770  1.0000
  C   C37       1.0  0.17518  0.51049  0.98953  1.0000
  S   S13       1.0  0.11863  0.47780  0.76998  1.0000
  C   C38       1.0  0.16598  0.48679  0.34283  1.0000
  C   C39       1.0  0.04415  0.40352  0.86924  1.0000
  H   H69       1.0  0.17291  0.49150  0.30932  1.0000
  S   S14       1.0  0.14502  0.49966  0.66363  1.0000
  C   C40       1.0  0.15007  0.48564  0.30174  1.0000
  H   H70       1.0  0.02385  0.48466  0.19382  1.0000
  H   H71       1.0  0.14088  0.47103  0.27812  1.0000
  H   H72       1.0  0.09554  0.47069  0.05972  1.0000
  H   H73       1.0  0.02848  0.46656  0.20131  1.0000
  H   H74       1.0  0.02474  0.43709  0.86460  1.0000
  C   C41       1.0  0.12153  0.49714  0.50776  1.0000
  C   C42       1.0  0.11641  0.49334  0.47435  1.0000
  H   H75       1.0  0.14522  0.46523  0.32827  1.0000
  C   C43       1.0  0.03302  0.49132  0.18023  1.0000
  H   H76       1.0  0.01249  0.47248  0.98163  1.0000
  C   C44       1.0  0.13172  0.50731  0.49485  1.0000
  C   C45       1.0  0.12120  0.49967  0.42729  1.0000
  H   H77       1.0  0.02334  0.48081  0.11882  1.0000
  C   C46       1.0  0.04343  0.47873  0.14096  1.0000
  H   H78       1.0  0.03802  0.48852  0.20553  1.0000
  H   H79       1.0  0.05550  0.49903  0.07733  1.0000
  C   C47       1.0  0.14684  0.48518  0.42950  1.0000
  H   H80       1.0  0.16435  0.46917  0.32654  1.0000
  C   C48       1.0  0.13119  0.51005  0.41447  1.0000
  H   H81       1.0  0.04250  0.42928  0.94177  1.0000
  H   H82       1.0  0.16950  0.49079  0.36814  1.0000
  C   C49       1.0  0.02444  0.49963  0.09618  1.0000
  H   H83       1.0  0.03579  0.48898  0.06998  1.0000
  H   H84       1.0  0.02728  0.46384  0.14713  1.0000
  H   H85       1.0  0.00588  0.49074  0.92021  1.0000
  H   H86       1.0  0.13462  0.50457  0.02488  1.0000
  H   H87       1.0  0.17545  0.47282  0.35557  1.0000
  H   H88       1.0  0.00812  0.46956  0.05736  1.0000
  H   H89       1.0  0.11770  0.49205  0.54352  1.0000
  H   H90       1.0  0.04820  0.41014  0.83476  1.0000
  N   N4        1.0  0.15393  0.48912  0.34141  1.0000
  C   C50       1.0  0.02793  0.41445  0.99103  1.0000
  H   H91       1.0  0.15495  0.48251  0.43594  1.0000
  C   C51       1.0  0.05968  0.50386  0.13589  1.0000
  H   H92       1.0  0.02622  0.41945  0.01711  1.0000
  H   H93       1.0  0.01678  0.47483  0.90602  1.0000
  H   H94       1.0  0.17707  0.50144  0.99936  1.0000
  S   S15       1.0  0.10605  0.50738  0.26945  1.0000
  H   H95       1.0  0.03570  0.50719  0.20791  1.0000
  H   H96       1.0  0.03760  0.40208  0.93959  1.0000
  H   H97       1.0  0.12787  0.50742  0.07730  1.0000
  S   S16       1.0  0.11862  0.50563  0.66652  1.0000
  H   H98       1.0  0.00832  0.45936  0.91585  1.0000
  C   C52       1.0  0.16271  0.50987  0.02035  1.0000
  C   C53       1.0  0.01880  0.41135  0.85826  1.0000
  H   H99       1.0  0.05076  0.41457  0.91020  1.0000
  S   S17       1.0  0.00791  0.43332  0.03396  1.0000
  C   C54       1.0  0.13646  0.50673  0.05587  1.0000
  H   H100      1.0  0.15882  0.50599  0.36081  1.0000
  H   H101      1.0  0.01908  0.40808  0.99443  1.0000
  H   H102      1.0  0.09946  0.48610  0.02162  1.0000
  H   H103      1.0  0.14644  0.50468  0.33666  1.0000
  Fe  Fe10      1.0  0.20496  0.54826  0.98616  1.0000
  S   S18       1.0  0.20948  0.53406  0.95183  1.0000
  S   S19       1.0  0.19338  0.54747  0.05555  1.0000
  Fe  Fe11      1.0  0.21712  0.56918  0.89872  1.0000
  S   S20       1.0  0.22242  0.55670  0.85721  1.0000
  S   S21       1.0  0.21918  0.58934  0.86924  1.0000
  Fe  Fe12      1.0  0.20357  0.54390  0.89251  1.0000
  S   S22       1.0  0.18749  0.53495  0.86769  1.0000
  S   S23       1.0  0.19816  0.55722  0.92982  1.0000
  S   S24       1.0  0.22366  0.56137  0.95786  1.0000
  Fe  Fe13      1.0  0.23421  0.63906  0.98154  1.0000
  S   S25       1.0  0.23395  0.65729  0.93896  1.0000
  S   S26       1.0  0.24548  0.62684  0.95989  1.0000
  Fe  Fe14      1.0  0.21523  0.63959  0.06407  1.0000
  S   S27       1.0  0.21389  0.65810  0.02744  1.0000
  S   S28       1.0  0.20416  0.62557  0.13163  1.0000
  Fe  Fe15      1.0  0.21352  0.65001  0.96748  1.0000
  S   S29       1.0  0.19793  0.64944  0.93301  1.0000
  Fe  Fe16      1.0  0.23464  0.66363  0.00278  1.0000
  C   C55       1.0  0.13485  0.63174  0.40603  1.0000
  S   S30       1.0  0.21412  0.63157  0.00579  1.0000
  S   S31       1.0  0.23563  0.64536  0.04341  1.0000
  H   H104      1.0  0.20388  0.60193  0.08966  1.0000
  H   H105      1.0  0.09859  0.52807  0.86292  1.0000
  C   C56       1.0  0.21458  0.58021  0.04584  1.0000
  C   C57       1.0  0.17553  0.58984  0.63296  1.0000
  S   S32       1.0  0.12533  0.54107  0.20305  1.0000
  C   C58       1.0  0.01097  0.58440  0.99778  1.0000
  H   H106      1.0  0.23561  0.58734  0.92607  1.0000
  N   N5        1.0  0.15843  0.63722  0.38996  1.0000
  H   H107      1.0  0.08504  0.56540  0.82589  1.0000
  H   H108      1.0  0.19932  0.60185  0.02237  1.0000
  H   H109      1.0  0.01119  0.56931  0.96885  1.0000
  C   C59       1.0  0.14552  0.52735  0.94903  1.0000
  C   C60       1.0  0.05237  0.51966  0.00168  1.0000
  C   C61       1.0  0.06438  0.51904  0.99347  1.0000
  H   H110      1.0  0.11292  0.54987  0.86695  1.0000
  Fe  Fe17      1.0  0.12684  0.52251  0.68475  1.0000
  S   S33       1.0  0.11829  0.53788  0.68961  1.0000
  C   C62       1.0  0.19358  0.57806  0.08574  1.0000
  S   S34       1.0  0.14432  0.52753  0.63003  1.0000
  H   H111      1.0  0.22925  0.59760  0.07121  1.0000
  Fe  Fe18      1.0  0.14254  0.60994  0.30513  1.0000
  S   S35       1.0  0.12389  0.60856  0.34766  1.0000
  S   S36       1.0  0.15522  0.62825  0.25960  1.0000
  Fe  Fe19      1.0  0.13872  0.58275  0.33950  1.0000
  S   S37       1.0  0.12006  0.57941  0.38525  1.0000
  S   S38       1.0  0.14652  0.56686  0.33696  1.0000
  Fe  Fe20      1.0  0.11741  0.59191  0.32352  1.0000
  S   S39       1.0  0.09986  0.58771  0.30058  1.0000
  Fe  Fe21      1.0  0.12845  0.59620  0.40500  1.0000
  S   S40       1.0  0.12461  0.59791  0.47915  1.0000
  S   S41       1.0  0.13587  0.59450  0.27713  1.0000
  S   S42       1.0  0.14729  0.59841  0.36310  1.0000
  Fe  Fe22      1.0  0.15996  0.61026  0.78774  1.0000
  S   S43       1.0  0.14301  0.59794  0.84105  1.0000
  S   S44       1.0  0.17710  0.61627  0.81174  1.0000
  Fe  Fe23      1.0  0.14846  0.60619  0.70653  1.0000
  S   S45       1.0  0.13080  0.59432  0.75656  1.0000
  S   S46       1.0  0.15314  0.60713  0.62909  1.0000
  Fe  Fe24      1.0  0.13311  0.60767  0.79790  1.0000
  S   S47       1.0  0.11766  0.61428  0.83150  1.0000
  Fe  Fe25      1.0  0.14231  0.58571  0.79500  1.0000
  S   S48       1.0  0.13881  0.56526  0.82137  1.0000
  S   S49       1.0  0.15009  0.62072  0.74516  1.0000
  S   S50       1.0  0.15991  0.59693  0.74451  1.0000
  Fe  Fe26      1.0  0.06681  0.54077  0.04719  1.0000
  S   S51       1.0  0.05692  0.53527  0.12168  1.0000
  S   S52       1.0  0.07485  0.52821  0.01273  1.0000
  Fe  Fe27      1.0  0.06367  0.56631  0.03088  1.0000
  S   S53       1.0  0.05272  0.56257  0.10380  1.0000
  S   S54       1.0  0.06734  0.58451  0.97907  1.0000
  Fe  Fe28      1.0  0.06735  0.55414  0.12219  1.0000
  S   S55       1.0  0.08096  0.55908  0.16355  1.0000
  Fe  Fe29      1.0  0.04329  0.54409  0.09616  1.0000
  S   S56       1.0  0.07830  0.55852  0.04866  1.0000
  S   S57       1.0  0.05315  0.54907  0.02195  1.0000
  H   H112      1.0  0.02623  0.52939  0.02621  1.0000
  H   H113      1.0  0.12961  0.63047  0.38111  1.0000
  H   H114      1.0  0.06795  0.55798  0.89209  1.0000
  H   H115      1.0  0.19887  0.59549  0.95328  1.0000
  H   H116      1.0  0.20414  0.58250  0.97180  1.0000
  Fe  Fe30      1.0  0.22804  0.54800  0.91928  1.0000
  H   H117      1.0  0.02501  0.58113  0.94822  1.0000
  H   H118      1.0  0.04937  0.52565  0.02050  1.0000
  C   C63       1.0  0.10385  0.60504  0.87174  1.0000
  C   C64       1.0  0.10189  0.59261  0.89501  1.0000
  C   C65       1.0  0.09072  0.58603  0.92834  1.0000
  C   C66       1.0  0.08151  0.59187  0.93779  1.0000
  C   C67       1.0  0.08355  0.60418  0.91411  1.0000
  C   C68       1.0  0.09463  0.61072  0.88175  1.0000
  H   H119      1.0  0.10901  0.58818  0.88767  1.0000
  H   H120      1.0  0.08922  0.57651  0.94650  1.0000
  H   H121      1.0  0.07654  0.60877  0.92107  1.0000
  H   H122      1.0  0.09607  0.62029  0.86411  1.0000
  C   C69       1.0  0.13274  0.59991  0.52088  1.0000
  C   C70       1.0  0.14524  0.60122  0.51226  1.0000
  C   C71       1.0  0.15123  0.60327  0.54581  1.0000
  C   C72       1.0  0.14488  0.60388  0.58889  1.0000
  C   C73       1.0  0.13235  0.60227  0.59781  1.0000
  C   C74       1.0  0.12639  0.60038  0.56410  1.0000
  H   H123      1.0  0.15032  0.60081  0.47956  1.0000
  H   H124      1.0  0.16091  0.60448  0.53818  1.0000
  H   H125      1.0  0.12726  0.60271  0.63047  1.0000
  H   H126      1.0  0.11673  0.59935  0.57157  1.0000
  C   C75       1.0  0.09509  0.58047  0.25977  1.0000
  C   C76       1.0  0.08310  0.57908  0.25677  1.0000
  C   C77       1.0  0.07874  0.57297  0.22663  1.0000
  C   C78       1.0  0.08623  0.56790  0.19941  1.0000
  C   C79       1.0  0.09827  0.56941  0.20202  1.0000
  C   C80       1.0  0.10271  0.57581  0.23127  1.0000
  H   H127      1.0  0.07708  0.58268  0.27832  1.0000
  H   H128      1.0  0.06945  0.57190  0.22549  1.0000
  H   H129      1.0  0.10422  0.56552  0.18149  1.0000
  H   H130      1.0  0.11199  0.57699  0.23242  1.0000
  C   C81       1.0  0.10719  0.55008  0.89957  1.0000
  C   C82       1.0  0.12342  0.54538  0.72740  1.0000
  C   C83       1.0  0.12673  0.55821  0.71556  1.0000
  C   C84       1.0  0.13173  0.56433  0.74382  1.0000
  C   C85       1.0  0.13287  0.55767  0.78513  1.0000
  C   C86       1.0  0.12930  0.54481  0.79751  1.0000
  C   C87       1.0  0.12467  0.53868  0.76849  1.0000
  H   H131      1.0  0.12589  0.56344  0.68360  1.0000
  H   H132      1.0  0.13492  0.57419  0.73288  1.0000
  H   H133      1.0  0.13023  0.53959  0.82929  1.0000
  H   H134      1.0  0.12190  0.52877  0.77825  1.0000
  C   C88       1.0  0.13210  0.54871  0.23732  1.0000
  C   C89       1.0  0.12771  0.55806  0.24992  1.0000
  C   C90       1.0  0.13189  0.56334  0.28154  1.0000
  C   C91       1.0  0.14103  0.55981  0.29871  1.0000
  C   C92       1.0  0.14571  0.55066  0.28522  1.0000
  C   C93       1.0  0.14122  0.54509  0.25456  1.0000
  H   H135      1.0  0.12077  0.56094  0.23628  1.0000
  H   H136      1.0  0.12778  0.56989  0.29342  1.0000
  H   H137      1.0  0.15284  0.54794  0.29821  1.0000
  H   H138      1.0  0.14504  0.53826  0.24337  1.0000
  H   H139      1.0  0.17466  0.57597  0.11864  1.0000
  H   H140      1.0  0.16715  0.57882  0.87261  1.0000
  H   H141      1.0  0.15114  0.63842  0.50385  1.0000
  C   C94       1.0  0.18444  0.52218  0.08979  1.0000
  H   H142      1.0  0.14418  0.62654  0.48272  1.0000
  C   C95       1.0  0.09140  0.56318  0.84614  1.0000
  C   C96       1.0  0.19204  0.63967  0.90108  1.0000
  C   C97       1.0  0.19774  0.63119  0.88681  1.0000
  C   C98       1.0  0.19298  0.62408  0.86008  1.0000
  C   C99       1.0  0.18230  0.62511  0.84773  1.0000
  C   C100      1.0  0.17639  0.63331  0.86321  1.0000
  C   C101      1.0  0.18128  0.64058  0.88925  1.0000
  H   H143      1.0  0.20602  0.63033  0.89527  1.0000
  H   H144      1.0  0.19773  0.61785  0.84833  1.0000
  H   H145      1.0  0.16826  0.63435  0.85390  1.0000
  H   H146      1.0  0.17677  0.64712  0.89965  1.0000
  C   C102      1.0  0.16891  0.62756  0.22451  1.0000
  C   C103      1.0  0.17166  0.61635  0.22679  1.0000
  C   C104      1.0  0.18257  0.61594  0.19849  1.0000
  C   C105      1.0  0.19077  0.62671  0.16734  1.0000
  C   C106      1.0  0.18804  0.63795  0.16502  1.0000
  C   C107      1.0  0.17715  0.63837  0.19370  1.0000
  H   H147      1.0  0.16540  0.60796  0.25050  1.0000
  H   H148      1.0  0.18463  0.60722  0.20062  1.0000
  H   H149      1.0  0.19436  0.64631  0.14147  1.0000
  H   H150      1.0  0.17510  0.64709  0.19193  1.0000
  C   C108      1.0  0.15538  0.61486  0.12674  1.0000
  H   H151      1.0  0.19080  0.57126  0.06731  1.0000
  H   H152      1.0  0.15542  0.52412  0.17267  1.0000
  C   C109      1.0  0.01776  0.57557  0.98011  1.0000
  C   C110      1.0  0.16352  0.52351  0.14996  1.0000
  C   C111      1.0  0.09550  0.54493  0.82394  1.0000
  H   H153      1.0  0.16598  0.64913  0.42699  1.0000
  H   H154      1.0  0.17133  0.59380  0.60673  1.0000
  C   C112      1.0  0.18294  0.53220  0.81853  1.0000
  C   C113      1.0  0.17064  0.52658  0.82378  1.0000
  C   C114      1.0  0.16648  0.52447  0.78620  1.0000
  H   H155      1.0  0.16469  0.62212  0.42251  1.0000
  C   C115      1.0  0.16700  0.53214  0.00245  1.0000
  H   H156      1.0  0.16420  0.52381  0.85716  1.0000
  H   H157      1.0  0.15700  0.52018  0.79116  1.0000
  H   H158      1.0  0.14431  0.52159  0.43687  1.0000
  H   H159      1.0  0.22493  0.60916  0.03368  1.0000
  H   H160      1.0  0.08162  0.54512  0.26622  1.0000
  C   C116      1.0  0.18285  0.53368  0.09173  1.0000
  C   C117      1.0  0.17243  0.53429  0.12224  1.0000
  H   H161      1.0  0.16302  0.61748  0.03143  1.0000
  H   H162      1.0  0.19439  0.57241  0.11825  1.0000
  C   C118      1.0  0.18296  0.58359  0.09916  1.0000
  H   H163      1.0  0.17111  0.54314  0.12382  1.0000
  H   H164      1.0  0.10578  0.56962  0.78058  1.0000
  C   C119      1.0  0.22629  0.59955  0.89567  1.0000
  C   C120      1.0  0.22430  0.61121  0.89016  1.0000
  C   C121      1.0  0.22999  0.61955  0.91050  1.0000
  C   C122      1.0  0.23802  0.61641  0.93517  1.0000
  C   C123      1.0  0.24004  0.60477  0.94058  1.0000
  C   C124      1.0  0.23402  0.59628  0.92159  1.0000
  H   H165      1.0  0.21833  0.61381  0.87022  1.0000
  H   H166      1.0  0.22838  0.62852  0.90614  1.0000
  H   H167      1.0  0.24616  0.60227  0.95993  1.0000
  H   H168      1.0  0.18463  0.58946  0.12190  1.0000
  H   H169      1.0  0.20796  0.59002  0.12301  1.0000
  H   H170      1.0  0.16382  0.64957  0.03923  1.0000
  H   H171      1.0  0.15413  0.63999  0.99814  1.0000
  H   H172      1.0  0.14631  0.65057  0.33036  1.0000
  S   S58       1.0  0.16974  0.52600  0.69290  1.0000
  H   H173      1.0  0.16949  0.53139  0.03500  1.0000
  H   H174      1.0  0.14893  0.51929  0.07671  1.0000
  C   C125      1.0  0.15275  0.63017  0.01573  1.0000
  H   H175      1.0  0.01889  0.55751  0.08349  1.0000
  Fe  Fe31      1.0  0.15106  0.51698  0.68449  1.0000
  H   H176      1.0  0.14562  0.61915  0.41643  1.0000
  H   H177      1.0  0.17647  0.56965  0.76833  1.0000
  H   H178      1.0  0.24797  0.58799  0.84789  1.0000
  H   H179      1.0  0.21656  0.57523  0.11655  1.0000
  H   H180      1.0  0.01303  0.57022  0.07721  1.0000
  H   H181      1.0  0.19047  0.55874  0.78097  1.0000
  C   C126      1.0  0.09424  0.53100  0.83581  1.0000
  C   C127      1.0  0.14686  0.62822  0.39190  1.0000
  H   H182      1.0  0.14641  0.61314  0.15162  1.0000
  H   H183      1.0  0.04382  0.56418  0.94978  1.0000
  C   C128      1.0  0.16465  0.62758  0.02263  1.0000
  C   C129      1.0  0.03519  0.58658  0.03339  1.0000
  H   H184      1.0  0.10980  0.55942  0.90402  1.0000
  H   H185      1.0  0.16293  0.54670  0.95492  1.0000
  S   S59       1.0  0.24666  0.54391  0.90965  1.0000
  H   H186      1.0  0.07388  0.53119  0.35929  1.0000
  H   H187      1.0  0.03432  0.55158  0.93974  1.0000
  H   H188      1.0  0.18094  0.58886  0.06886  1.0000
  C   C130      1.0  0.01282  0.52632  0.08987  1.0000
  H   H189      1.0  0.01403  0.59346  0.97141  1.0000
  C   C131      1.0  0.16363  0.54432  0.99047  1.0000
  H   H190      1.0  0.15293  0.63299  0.10446  1.0000
  H   H191      1.0  0.04464  0.59066  0.03344  1.0000
  H   H192      1.0  0.04139  0.57951  0.97853  1.0000
  C   C132      1.0  0.06767  0.54830  0.90741  1.0000
  H   H193      1.0  0.17640  0.59622  0.65447  1.0000
  N   N6        1.0  0.08942  0.54943  0.86220  1.0000
  H   H194      1.0  0.10442  0.58090  0.81030  1.0000
  H   H195      1.0  0.17156  0.63108  0.98852  1.0000
  H   H196      1.0  0.01660  0.55153  0.99374  1.0000
  H   H197      1.0  0.17059  0.55523  0.57164  1.0000
  Fe  Fe32      1.0  0.12356  0.52090  0.22505  1.0000
  H   H198      1.0  0.14957  0.62487  0.99303  1.0000
  C   C133      1.0  0.20950  0.59538  0.08694  1.0000
  H   H199      1.0  0.16359  0.52082  0.28497  1.0000
  H   H200      1.0  0.14415  0.53449  0.96615  1.0000
  H   H201      1.0  0.11725  0.52573  0.36134  1.0000
  H   H202      1.0  0.08784  0.53682  0.23018  1.0000
  C   C134      1.0  0.15281  0.63346  0.47756  1.0000
  C   C135      1.0  0.21721  0.57177  0.08616  1.0000
  H   H203      1.0  0.15353  0.60948  0.10284  1.0000
  H   H204      1.0  0.01159  0.51988  0.98904  1.0000
  N   N7        1.0  0.09355  0.53775  0.33538  1.0000
  C   C136      1.0  0.09245  0.55056  0.33404  1.0000
  C   C137      1.0  0.09571  0.53691  0.28685  1.0000
  C   C138      1.0  0.10428  0.53630  0.35321  1.0000
  C   C139      1.0  0.08199  0.52866  0.36697  1.0000
  C   C140      1.0  0.09140  0.55402  0.37942  1.0000
  C   C141      1.0  0.08488  0.53685  0.26649  1.0000
  C   C142      1.0  0.11020  0.52621  0.34299  1.0000
  H   H205      1.0  0.06988  0.54739  0.94041  1.0000
  H   H206      1.0  0.10047  0.55756  0.30844  1.0000
  H   H207      1.0  0.08443  0.55217  0.32287  1.0000
  H   H208      1.0  0.09845  0.52860  0.28294  1.0000
  H   H209      1.0  0.10346  0.54462  0.26351  1.0000
  H   H210      1.0  0.11176  0.54498  0.33902  1.0000
  H   H211      1.0  0.10182  0.53459  0.39102  1.0000
  H   H212      1.0  0.08103  0.52900  0.40282  1.0000
  C   C143      1.0  0.16804  0.63045  0.39247  1.0000
  H   H213      1.0  0.09062  0.56358  0.37352  1.0000
  H   H214      1.0  0.08315  0.54813  0.40666  1.0000
  H   H215      1.0  0.09958  0.55394  0.39144  1.0000
  H   H216      1.0  0.07725  0.52849  0.28442  1.0000
  C   C144      1.0  0.19104  0.53566  0.77462  1.0000
  H   H217      1.0  0.07380  0.53335  0.89139  1.0000
  H   H218      1.0  0.09896  0.52886  0.80487  1.0000
  H   H219      1.0  0.14208  0.52639  0.03769  1.0000
  H   H220      1.0  0.03214  0.56648  0.92176  1.0000
  H   H221      1.0  0.21134  0.57403  0.02591  1.0000
  H   H222      1.0  0.21091  0.56238  0.09661  1.0000
  H   H223      1.0  0.15953  0.66300  0.30302  1.0000
  N   N8        1.0  0.16797  0.56670  0.64138  1.0000
  C   C145      1.0  0.16536  0.57044  0.59579  1.0000
  C   C146      1.0  0.16742  0.57702  0.66302  1.0000
  C   C147      1.0  0.15803  0.55535  0.67056  1.0000
  C   C148      1.0  0.18019  0.56397  0.63357  1.0000
  C   C149      1.0  0.16367  0.56039  0.57095  1.0000
  C   C150      1.0  0.15776  0.55084  0.72097  1.0000
  C   C151      1.0  0.18761  0.56629  0.66746  1.0000
  H   H224      1.0  0.15702  0.57374  0.59972  1.0000
  H   H225      1.0  0.17282  0.57832  0.57145  1.0000
  H   H226      1.0  0.16982  0.57520  0.69580  1.0000
  H   H227      1.0  0.15794  0.57779  0.67238  1.0000
  H   H228      1.0  0.14898  0.55677  0.67010  1.0000
  H   H229      1.0  0.15857  0.54740  0.65666  1.0000
  H   H230      1.0  0.17921  0.55422  0.63336  1.0000
  H   H231      1.0  0.18630  0.56947  0.59908  1.0000
  H   H232      1.0  0.10378  0.51696  0.35467  1.0000
  H   H233      1.0  0.16447  0.56473  0.53455  1.0000
  H   H234      1.0  0.11501  0.52846  0.30619  1.0000
  H   H235      1.0  0.15641  0.55767  0.73982  1.0000
  H   H236      1.0  0.16586  0.54785  0.72457  1.0000
  H   H237      1.0  0.15005  0.54247  0.73788  1.0000
  H   H238      1.0  0.19118  0.57622  0.66331  1.0000
  H   H239      1.0  0.19560  0.56261  0.66021  1.0000
  H   H240      1.0  0.18257  0.56163  0.70357  1.0000
  C   C152      1.0  0.16647  0.55651  0.83308  1.0000
  H   H241      1.0  0.16522  0.57446  0.80121  1.0000
  H   H242      1.0  0.17302  0.55190  0.84478  1.0000
  H   H243      1.0  0.16206  0.55118  0.81291  1.0000
  N   N9        1.0  0.12650  0.54569  0.50191  1.0000
  C   C153      1.0  0.11728  0.53338  0.52593  1.0000
  C   C154      1.0  0.12453  0.55026  0.45568  1.0000
  C   C155      1.0  0.12434  0.55437  0.53052  1.0000
  C   C156      1.0  0.13895  0.54379  0.49764  1.0000
  C   C157      1.0  0.11614  0.52805  0.57708  1.0000
  C   C158      1.0  0.12588  0.54194  0.42376  1.0000
  C   C159      1.0  0.12762  0.56819  0.50526  1.0000
  C   C160      1.0  0.14978  0.55497  0.47018  1.0000
  H   H244      1.0  0.10806  0.53388  0.52362  1.0000
  H   H245      1.0  0.11938  0.52623  0.50942  1.0000
  H   H246      1.0  0.13090  0.55940  0.43609  1.0000
  H   H247      1.0  0.11531  0.55168  0.45992  1.0000
  H   H248      1.0  0.11453  0.55210  0.54913  1.0000
  H   H249      1.0  0.12910  0.55332  0.55776  1.0000
  H   H250      1.0  0.14038  0.54065  0.53187  1.0000
  H   H251      1.0  0.13991  0.53631  0.48152  1.0000
  H   H252      1.0  0.12481  0.52678  0.58259  1.0000
  H   H253      1.0  0.11272  0.53367  0.59860  1.0000
  H   H254      1.0  0.10952  0.51881  0.58987  1.0000
  H   H255      1.0  0.13516  0.54079  0.41506  1.0000
  H   H256      1.0  0.11908  0.53284  0.43771  1.0000
  H   H257      1.0  0.12440  0.54644  0.39100  1.0000
  H   H258      1.0  0.13671  0.57187  0.48052  1.0000
  H   H259      1.0  0.12731  0.57345  0.53090  1.0000
  H   H260      1.0  0.12082  0.57016  0.48706  1.0000
  H   H261      1.0  0.14963  0.55852  0.43434  1.0000
  H   H262      1.0  0.15826  0.55210  0.46846  1.0000
  H   H263      1.0  0.15038  0.56236  0.48718  1.0000
  N   N10       1.0  0.10368  0.59487  0.03698  1.0000
  C   C161      1.0  0.09024  0.58857  0.05369  1.0000
  C   C162      1.0  0.10990  0.58578  0.02155  1.0000
  C   C163      1.0  0.10575  0.60601  0.99713  1.0000
  C   C164      1.0  0.10749  0.59858  0.07605  1.0000
  C   C165      1.0  0.08185  0.59659  0.06660  1.0000
  C   C166      1.0  0.10922  0.57436  0.05956  1.0000
  C   C167      1.0  0.11839  0.61089  0.96197  1.0000
  C   C168      1.0  0.12117  0.60401  0.06840  1.0000
  H   H264      1.0  0.08721  0.58476  0.02716  1.0000
  H   H265      1.0  0.08803  0.58066  0.08457  1.0000
  H   H266      1.0  0.11968  0.59001  0.00414  1.0000
  H   H267      1.0  0.10613  0.58252  0.99525  1.0000
  H   H268      1.0  0.09933  0.60408  0.97653  1.0000
  H   H269      1.0  0.10379  0.61384  0.00953  1.0000
  H   H270      1.0  0.10319  0.60569  0.08505  1.0000
  H   H271      1.0  0.10397  0.59085  0.10831  1.0000
  H   H272      1.0  0.08272  0.60448  0.03731  1.0000
  H   H273      1.0  0.07229  0.59088  0.07692  1.0000
  H   H274      1.0  0.08327  0.59981  0.09634  1.0000
  H   H275      1.0  0.09984  0.56850  0.07623  1.0000
  H   H276      1.0  0.11431  0.56856  0.04410  1.0000
  H   H277      1.0  0.11343  0.57681  0.08593  1.0000
  H   H278      1.0  0.11992  0.60453  0.94089  1.0000
  H   H279      1.0  0.12586  0.61275  0.97773  1.0000
  H   H280      1.0  0.11884  0.61969  0.93757  1.0000
  H   H281      1.0  0.12389  0.61410  0.05251  1.0000
  H   H282      1.0  0.12697  0.59975  0.04772  1.0000
  H   H283      1.0  0.12319  0.60213  0.10202  1.0000
  C   C169      1.0  0.00838  0.52018  0.02387  1.0000
  C   C170      1.0  0.17261  0.56993  0.80359  1.0000
  C   C171      1.0  0.01462  0.56298  0.06090  1.0000
  N   N11       1.0  0.02299  0.56813  0.01283  1.0000
  N   N12       1.0  0.20555  0.58721  0.05847  1.0000
  H   H284      1.0  0.19917  0.57380  0.74495  1.0000
  S   S60       1.0  0.02280  0.53391  0.11761  1.0000
  H   H285      1.0  0.05814  0.54272  0.91536  1.0000
  H   H286      1.0  0.17721  0.59396  0.79807  1.0000
  H   H287      1.0  0.15978  0.62878  0.48462  1.0000
  H   H288      1.0  0.18474  0.58965  0.61552  1.0000
  H   H289      1.0  0.08934  0.56694  0.87589  1.0000
  H   H290      1.0  0.15921  0.55613  0.86331  1.0000
  C   C172      1.0  0.01675  0.52566  0.04494  1.0000
  H   H291      1.0  0.22332  0.58640  0.02197  1.0000
  C   C173      1.0  0.17592  0.57637  0.86980  1.0000
  H   H292      1.0  0.17363  0.56679  0.89206  1.0000
  H   H293      1.0  0.18629  0.58815  0.72456  1.0000
  C   C174      1.0  0.15716  0.64276  0.42952  1.0000
  C   C175      1.0  0.19884  0.58852  0.98421  1.0000
  N   N13       1.0  0.18194  0.57721  0.82074  1.0000
  H   H294      1.0  0.03266  0.59395  0.01142  1.0000
  C   C176      1.0  0.18540  0.59054  0.79370  1.0000
  H   H295      1.0  0.15532  0.54441  0.01517  1.0000
  H   H296      1.0  0.09193  0.54738  0.79386  1.0000
  H   H297      1.0  0.16360  0.52507  0.93263  1.0000
  H   H298      1.0  0.17897  0.58150  0.93010  1.0000
  H   H299      1.0  0.22666  0.57115  0.07549  1.0000
  C   C177      1.0  0.19139  0.59379  0.74197  1.0000
  H   H300      1.0  0.18366  0.59425  0.88019  1.0000
  H   H301      1.0  0.19168  0.60349  0.72627  1.0000
  H   H302      1.0  0.17907  0.63373  0.32166  1.0000
  H   H303      1.0  0.17618  0.63627  0.39770  1.0000
  H   H304      1.0  0.17108  0.55178  0.99198  1.0000
  C   C178      1.0  0.22279  0.60328  0.06915  1.0000
  C   C179      1.0  0.18339  0.58443  0.89267  1.0000
  H   H305      1.0  0.18929  0.58314  0.00127  1.0000
  H   H306      1.0  0.19247  0.52163  0.06647  1.0000
  H   H307      1.0  0.20567  0.56467  0.78122  1.0000
  H   H308      1.0  0.25103  0.55836  0.97418  1.0000
  H   H309      1.0  0.19190  0.59634  0.80658  1.0000
  H   H310      1.0  0.12904  0.62541  0.43965  1.0000
  H   H311      1.0  0.10534  0.54952  0.81062  1.0000
  H   H312      1.0  0.14547  0.62722  0.04839  1.0000
  C   C180      1.0  0.18687  0.53360  0.73695  1.0000
  C   C181      1.0  0.20455  0.59525  0.01500  1.0000
  C   C182      1.0  0.19297  0.57244  0.81911  1.0000
  H   H313      1.0  0.19134  0.56478  0.85025  1.0000
  H   H314      1.0  0.20095  0.59346  0.73499  1.0000
  H   H315      1.0  0.17428  0.60950  0.08216  1.0000
  H   H316      1.0  0.17551  0.53347  0.97556  1.0000
  C   C183      1.0  0.15472  0.65571  0.33572  1.0000
  H   H317      1.0  0.13577  0.64126  0.40761  1.0000
  H   H318      1.0  0.08919  0.54966  0.93146  1.0000
  C   C184      1.0  0.19719  0.56724  0.77892  1.0000
  H   H319      1.0  0.18365  0.63132  0.09027  1.0000
  H   H320      1.0  0.19326  0.53633  0.70336  1.0000
  C   C185      1.0  0.17457  0.52792  0.74233  1.0000
  H   H321      1.0  0.21365  0.60112  0.99329  1.0000
  H   H322      1.0  0.19274  0.58351  0.88766  1.0000
  H   H323      1.0  0.18068  0.66416  0.04921  1.0000
  H   H324      1.0  0.18307  0.61593  0.02268  1.0000
  C   C186      1.0  0.10406  0.57103  0.81517  1.0000
  H   H325      1.0  0.02824  0.55116  0.02145  1.0000
  C   C187      1.0  0.18132  0.62989  0.05906  1.0000
  C   C188      1.0  0.18206  0.61686  0.05787  1.0000
  H   H326      1.0  0.18899  0.63627  0.02999  1.0000
  H   H327      1.0  0.22434  0.60954  0.09076  1.0000
  H   H328      1.0  0.03952  0.56953  0.03340  1.0000
  H   H329      1.0  0.20087  0.57968  0.81928  1.0000
  H   H330      1.0  0.17779  0.61925  0.35973  1.0000
  C   C189      1.0  0.17866  0.65421  0.06680  1.0000
  H   H331      1.0  0.16490  0.63233  0.12837  1.0000
  H   H332      1.0  0.18745  0.65241  0.06839  1.0000
  H   H333      1.0  0.19027  0.61534  0.06758  1.0000
  H   H334      1.0  0.11153  0.56945  0.82974  1.0000
  H   H335      1.0  0.10944  0.54357  0.92620  1.0000
  C   C190      1.0  0.03442  0.56028  0.94914  1.0000
  H   H336      1.0  0.17198  0.65339  0.34303  1.0000
  H   H337      1.0  0.15262  0.66048  0.36217  1.0000
  H   H338      1.0  0.17284  0.65259  0.10189  1.0000
  C   C191      1.0  0.07595  0.54337  0.87458  1.0000
  H   H339      1.0  0.02961  0.58396  0.06938  1.0000
  H   H340      1.0  0.15447  0.55391  0.58600  1.0000
  H   H341      1.0  0.16441  0.64354  0.31570  1.0000
  H   H342      1.0  0.16524  0.62147  0.33863  1.0000
  N   N14       1.0  0.16955  0.63292  0.05684  1.0000
  C   C192      1.0  0.17227  0.64673  0.03947  1.0000
  C   C193      1.0  0.16062  0.62879  0.10379  1.0000
  H   H343      1.0  0.17803  0.65014  0.00328  1.0000
  H   H344      1.0  0.16140  0.61123  0.14585  1.0000
  C   C194      1.0  0.09353  0.54588  0.90452  1.0000
  H   H345      1.0  0.14746  0.62631  0.35827  1.0000
  H   H346      1.0  0.15091  0.64864  0.42911  1.0000
  C   C195      1.0  0.16298  0.64737  0.34544  1.0000
  C   C196      1.0  0.17269  0.62602  0.35054  1.0000
  H   H347      1.0  0.24937  0.59667  0.79123  1.0000
  H   H348      1.0  0.07275  0.54421  0.84324  1.0000
  H   H349      1.0  0.09036  0.53577  0.92078  1.0000
  C   C197      1.0  0.02514  0.55728  0.99633  1.0000
  H   H350      1.0  0.14840  0.53198  0.91163  1.0000
  S   S61       1.0  0.24955  0.68171  0.99540  1.0000
  H   H351      1.0  0.08469  0.52540  0.84563  1.0000
  H   H352      1.0  0.20053  0.53992  0.76960  1.0000
  N   N15       1.0  0.15761  0.52058  0.00638  1.0000
  C   C198      1.0  0.03510  0.57556  0.01368  1.0000
  H   H353      1.0  0.01229  0.58622  0.02976  1.0000
  H   H354      1.0  0.18261  0.51728  0.99452  1.0000
  C   C199      1.0  0.08048  0.51501  0.36885  1.0000
  H   H355      1.0  0.25409  0.67901  0.08719  1.0000
  C   C200      1.0  0.15507  0.52080  0.96093  1.0000
  H   H356      1.0  0.13493  0.51526  0.37883  1.0000
  H   H357      1.0  0.13668  0.52054  0.95558  1.0000
  C   C201      1.0  0.14644  0.51888  0.04448  1.0000
  H   H358      1.0  0.25346  0.60430  0.83125  1.0000
  C   C202      1.0  0.25377  0.59600  0.81940  1.0000
  H   H359      1.0  0.08511  0.51352  0.33656  1.0000
  S   S62       1.0  0.13385  0.51301  0.73990  1.0000
  S   S63       1.0  0.13522  0.51317  0.26472  1.0000
  C   C203      1.0  0.13645  0.51372  0.44779  1.0000
  H   H360      1.0  0.25022  0.56202  0.79995  1.0000
  S   S64       1.0  0.13897  0.51239  0.53535  1.0000
  H   H361      1.0  0.25310  0.57121  0.85884  1.0000
  C   C204      1.0  0.04394  0.51192  0.98795  1.0000
  H   H362      1.0  0.03461  0.51228  0.99515  1.0000
  H   H363      1.0  0.25416  0.57872  0.91504  1.0000
  C   C205      1.0  0.16515  0.51201  0.14844  1.0000
  H   H364      1.0  0.17551  0.51258  0.95279  1.0000
  C   C206      1.0  0.17571  0.51138  0.11874  1.0000
  H   H365      1.0  0.15183  0.51123  0.95904  1.0000
  H   H366      1.0  0.06731  0.51186  0.11362  1.0000
  C   C207      1.0  0.06798  0.51078  0.97069  1.0000
  H   H367      1.0  0.17372  0.51138  0.28569  1.0000
  C   C208      1.0  0.16416  0.51126  0.28781  1.0000
  H   H368      1.0  0.03488  0.51147  0.15043  1.0000
  H   H369      1.0  0.25391  0.57815  0.77341  1.0000
  Fe  Fe33      1.0  0.49734  0.01783  0.99501  1.0000
  C   C209      1.0  0.50128  0.04718  0.11719  1.0000
  Fe  Fe34      1.0  0.48025  0.02223  0.07350  1.0000
  S   S65       1.0  0.46439  0.01793  0.04380  1.0000
  H   H370      1.0  0.49862  0.12957  0.42457  1.0000
  H   H371      1.0  0.48572  0.11261  0.33447  1.0000
  H   H372      1.0  0.49876  0.13741  0.34507  1.0000
  S   S66       1.0  0.47529  0.04556  0.92653  1.0000
  C   C210      1.0  0.49910  0.07102  0.81299  1.0000
  H   H373      1.0  0.49026  0.11462  0.43059  1.0000
  C   C211      1.0  0.48936  0.06515  0.85291  1.0000
  S   S67       1.0  0.48033  0.02763  0.14009  1.0000
  H   H374      1.0  0.47991  0.03622  0.21995  1.0000
  H   H375      1.0  0.49429  0.05218  0.23830  1.0000
  C   C212      1.0  0.49453  0.04593  0.85703  1.0000
  Fe  Fe35      1.0  0.47776  0.02938  0.97589  1.0000
  C   C213      1.0  0.48714  0.05262  0.87534  1.0000
  H   H376      1.0  0.48781  0.10011  0.39883  1.0000
  C   C214      1.0  0.48814  0.04183  0.19393  1.0000
  S   S68       1.0  0.49271  0.03472  0.00703  1.0000
  H   H377      1.0  0.48362  0.07036  0.86675  1.0000
  C   C215      1.0  0.49628  0.05093  0.20444  1.0000
  C   C216      1.0  0.49056  0.03984  0.15034  1.0000
  C   C217      1.0  0.48593  0.12099  0.34603  1.0000
  H   H378      1.0  0.49287  0.03628  0.87385  1.0000
  H   H379      1.0  0.48001  0.11873  0.38134  1.0000
  H   H380      1.0  0.48191  0.12676  0.32350  1.0000
  H   H381      1.0  0.50189  0.13436  0.06576  1.0000
  C   C218      1.0  0.49674  0.09863  0.38598  1.0000
  H   H382      1.0  0.50327  0.06190  0.95892  1.0000
  H   H383      1.0  0.49553  0.09285  0.36260  1.0000
  H   H384      1.0  0.49999  0.11290  0.48939  1.0000
  S   S69       1.0  0.48345  0.01334  0.95776  1.0000
  H   H385      1.0  0.50084  0.08069  0.79618  1.0000
  C   C219      1.0  0.49965  0.12061  0.41943  1.0000
  C   C220      1.0  0.50404  0.05170  0.81664  1.0000
  H   H386      1.0  0.50338  0.04571  0.08374  1.0000
  H   H387      1.0  0.49909  0.09288  0.41450  1.0000
  H   H388      1.0  0.50366  0.13002  0.30313  1.0000
  H   H389      1.0  0.49296  0.01505  0.20828  1.0000
  C   C221      1.0  0.49902  0.12825  0.34002  1.0000
  H   H390      1.0  0.49364  0.43676  0.03151  1.0000
  H   H391      1.0  0.46659  0.38512  0.84477  1.0000
  S   S70       1.0  0.40408  0.49745  0.20279  1.0000
  H   H392      1.0  0.35504  0.49731  0.00118  1.0000
  C   C222      1.0  0.45020  0.50848  0.03779  1.0000
  S   S71       1.0  0.38435  0.48780  0.76984  1.0000
  H   H393      1.0  0.40260  0.49421  0.38044  1.0000
  C   C223      1.0  0.38502  0.48135  0.92467  1.0000
  H   H394      1.0  0.45308  0.43282  0.84481  1.0000
  H   H395      1.0  0.37634  0.47411  0.94243  1.0000
  Fe  Fe36      1.0  0.42035  0.47203  0.99214  1.0000
  S   S72       1.0  0.43453  0.48824  0.94138  1.0000
  S   S73       1.0  0.40392  0.47643  0.03169  1.0000
  Fe  Fe37      1.0  0.43329  0.45384  0.95895  1.0000
  S   S74       1.0  0.44803  0.46893  0.90481  1.0000
  S   S75       1.0  0.43421  0.43406  0.96876  1.0000
  Fe  Fe38      1.0  0.44776  0.47818  0.96034  1.0000
  S   S76       1.0  0.46529  0.48686  0.97194  1.0000
  Fe  Fe39      1.0  0.43322  0.47740  0.89096  1.0000
  S   S77       1.0  0.43386  0.48860  0.82062  1.0000
  S   S78       1.0  0.43379  0.46277  0.01573  1.0000
  S   S79       1.0  0.41826  0.46152  0.94042  1.0000
  Fe  Fe40      1.0  0.49327  0.40787  0.95746  1.0000
  H   H396      1.0  0.46790  0.41152  0.73657  1.0000
  S   S80       1.0  0.48572  0.42415  0.96330  1.0000
  H   H397      1.0  0.48091  0.46057  0.99554  1.0000
  H   H398      1.0  0.47369  0.47143  0.07494  1.0000
  C   C224      1.0  0.46870  0.40395  0.76367  1.0000
  H   H399      1.0  0.42684  0.50647  0.86562  1.0000
  H   H400      1.0  0.38709  0.48578  0.98533  1.0000
  S   S81       1.0  0.48589  0.38806  0.96000  1.0000
  H   H401      1.0  0.38352  0.49669  0.36599  1.0000
  C   C225      1.0  0.45159  0.49906  0.01759  1.0000
  C   C226      1.0  0.44076  0.50887  0.18091  1.0000
  H   H402      1.0  0.42757  0.50547  0.75344  1.0000
  H   H403      1.0  0.35823  0.47650  0.34844  1.0000
  H   H404      1.0  0.40238  0.49364  0.32427  1.0000
  C   C227      1.0  0.44842  0.43116  0.96863  1.0000
  C   C228      1.0  0.45886  0.44083  0.95836  1.0000
  C   C229      1.0  0.47015  0.43843  0.95663  1.0000
  C   C230      1.0  0.47116  0.42636  0.96572  1.0000
  C   C231      1.0  0.46073  0.41661  0.97632  1.0000
  C   C232      1.0  0.44939  0.41902  0.97772  1.0000
  H   H405      1.0  0.45826  0.45019  0.95142  1.0000
  H   H406      1.0  0.47815  0.44603  0.94773  1.0000
  H   H407      1.0  0.46137  0.40726  0.98377  1.0000
  H   H408      1.0  0.44134  0.41149  0.98593  1.0000
  H   H409      1.0  0.45018  0.41832  0.88552  1.0000
  C   C233      1.0  0.46310  0.49737  0.00292  1.0000
  C   C234      1.0  0.40803  0.49897  0.90665  1.0000
  C   C235      1.0  0.39829  0.48804  0.78249  1.0000
  C   C236      1.0  0.39889  0.47834  0.81718  1.0000
  C   C237      1.0  0.40974  0.47844  0.82923  1.0000
  C   C238      1.0  0.42012  0.48820  0.80623  1.0000
  C   C239      1.0  0.41957  0.49787  0.77125  1.0000
  C   C240      1.0  0.40867  0.49783  0.75953  1.0000
  H   H410      1.0  0.39091  0.47071  0.83487  1.0000
  H   H411      1.0  0.41009  0.47089  0.85592  1.0000
  H   H412      1.0  0.38765  0.48750  0.07959  1.0000
  H   H413      1.0  0.38775  0.49636  0.14493  1.0000
  H   H414      1.0  0.48858  0.45167  0.09646  1.0000
  H   H415      1.0  0.40960  0.49113  0.93048  1.0000
  N   N16       1.0  0.47024  0.41173  0.83412  1.0000
  H   H416      1.0  0.39232  0.47663  0.92382  1.0000
  H   H417      1.0  0.49843  0.45117  0.96222  1.0000
  C   C241      1.0  0.49894  0.47435  0.05243  1.0000
  C   C242      1.0  0.40453  0.49277  0.15244  1.0000
  C   C243      1.0  0.41404  0.48804  0.13500  1.0000
  C   C244      1.0  0.41419  0.48339  0.09699  1.0000
  C   C245      1.0  0.40463  0.48309  0.07707  1.0000
  C   C246      1.0  0.39515  0.48787  0.09439  1.0000
  C   C247      1.0  0.39518  0.49287  0.13147  1.0000
  H   H418      1.0  0.42127  0.48784  0.15113  1.0000
  H   H419      1.0  0.42152  0.47970  0.08403  1.0000
  H   H420      1.0  0.45666  0.41758  0.80463  1.0000
  H   H421      1.0  0.47062  0.45495  0.08241  1.0000
  H   H422      1.0  0.48484  0.40954  0.86417  1.0000
  H   H423      1.0  0.34959  0.48523  0.40795  1.0000
  H   H424      1.0  0.44488  0.50824  0.26729  1.0000
  C   C248      1.0  0.38227  0.48142  0.30559  1.0000
  H   H425      1.0  0.39080  0.46305  0.34339  1.0000
  H   H426      1.0  0.45915  0.50642  0.17362  1.0000
  H   H427      1.0  0.47279  0.39764  0.74741  1.0000
  C   C249      1.0  0.36469  0.48250  0.36077  1.0000
  C   C250      1.0  0.37359  0.46567  0.38244  1.0000
  H   H428      1.0  0.50237  0.45089  0.06363  1.0000
  C   C251      1.0  0.48866  0.42885  0.83246  1.0000
  C   C252      1.0  0.47677  0.40911  0.79174  1.0000
  H   H429      1.0  0.48340  0.41763  0.76764  1.0000
  H   H430      1.0  0.38131  0.50391  0.86325  1.0000
  H   H431      1.0  0.48128  0.43377  0.08137  1.0000
  H   H432      1.0  0.50205  0.35764  0.14417  1.0000
  H   H433      1.0  0.37312  0.46372  0.29685  1.0000
  H   H434      1.0  0.45258  0.39819  0.85662  1.0000
  H   H435      1.0  0.39697  0.50473  0.83815  1.0000
  H   H436      1.0  0.44840  0.49427  0.16614  1.0000
  H   H437      1.0  0.46459  0.46424  0.04462  1.0000
  H   H438      1.0  0.36581  0.45994  0.37493  1.0000
  S   S82       1.0  0.36820  0.50277  0.68219  1.0000
  N   N17       1.0  0.37648  0.47900  0.35605  1.0000
  C   C253      1.0  0.47266  0.46409  0.05754  1.0000
  C   C254      1.0  0.37515  0.47373  0.28076  1.0000
  C   C255      1.0  0.35768  0.48184  0.40971  1.0000
  H   H439      1.0  0.42974  0.50275  0.26535  1.0000
  C   C256      1.0  0.38444  0.48717  0.37563  1.0000
  H   H440      1.0  0.35434  0.47230  0.43252  1.0000
  S   S83       1.0  0.49915  0.38896  0.82826  1.0000
  H   H441      1.0  0.38855  0.45993  0.40437  1.0000
  H   H442      1.0  0.49623  0.46541  0.93173  1.0000
  H   H443      1.0  0.45797  0.40180  0.90148  1.0000
  C   C257      1.0  0.48697  0.44085  0.04922  1.0000
  H   H444      1.0  0.37025  0.46448  0.41979  1.0000
  Fe  Fe41      1.0  0.50016  0.38429  0.99543  1.0000
  H   H445      1.0  0.38012  0.44956  0.38023  1.0000
  C   C258      1.0  0.46536  0.38858  0.87534  1.0000
  H   H446      1.0  0.49946  0.48370  0.03155  1.0000
  H   H447      1.0  0.44379  0.49320  0.01303  1.0000
  H   H448      1.0  0.38382  0.49128  0.28751  1.0000
  H   H449      1.0  0.47494  0.41665  0.89221  1.0000
  H   H450      1.0  0.47010  0.42939  0.79263  1.0000
  Fe  Fe42      1.0  0.50105  0.39209  0.89552  1.0000
  H   H451      1.0  0.44258  0.50894  0.63447  1.0000
  C   C259      1.0  0.47305  0.50453  0.01127  1.0000
  H   H452      1.0  0.34218  0.49588  0.97946  1.0000
  C   C260      1.0  0.38647  0.49096  0.95160  1.0000
  H   H453      1.0  0.47392  0.38999  0.88524  1.0000
  H   H454      1.0  0.40665  0.49557  0.87738  1.0000
  C   C261      1.0  0.44953  0.50085  0.18684  1.0000
  H   H455      1.0  0.36306  0.48784  0.42540  1.0000
  H   H456      1.0  0.40046  0.47974  0.36855  1.0000
  H   H457      1.0  0.45840  0.38121  0.90377  1.0000
  H   H458      1.0  0.37778  0.49347  0.95892  1.0000
  H   H459      1.0  0.44761  0.49534  0.22280  1.0000
  H   H460      1.0  0.49470  0.42879  0.79992  1.0000
  C   C262      1.0  0.39820  0.48859  0.36101  1.0000
  C   C263      1.0  0.38396  0.45941  0.37708  1.0000
  H   H461      1.0  0.36672  0.47629  0.27811  1.0000
  H   H462      1.0  0.46392  0.43037  0.87516  1.0000
  C   C264      1.0  0.49345  0.45229  0.06079  1.0000
  H   H463      1.0  0.33412  0.50618  0.93023  1.0000
  S   S84       1.0  0.49811  0.36909  0.05850  1.0000
  H   H464      1.0  0.48257  0.40292  0.79946  1.0000
  C   C265      1.0  0.45746  0.42584  0.85900  1.0000
  H   H465      1.0  0.43148  0.50254  0.18973  1.0000
  C   C266      1.0  0.46380  0.42125  0.82011  1.0000
  H   H466      1.0  0.39143  0.47999  0.29836  1.0000
  H   H467      1.0  0.38475  0.48525  0.88938  1.0000
  H   H468      1.0  0.45947  0.39843  0.78465  1.0000
  H   H469      1.0  0.48192  0.50309  0.00082  1.0000
  H   H470      1.0  0.48424  0.43636  0.82639  1.0000
  C   C267      1.0  0.47945  0.41621  0.85775  1.0000
  H   H471      1.0  0.38148  0.48404  0.41373  1.0000
  C   C268      1.0  0.48381  0.46648  0.01662  1.0000
  C   C269      1.0  0.35184  0.50099  0.97136  1.0000
  C   C270      1.0  0.46103  0.40033  0.86723  1.0000
  H   H472      1.0  0.35733  0.49908  0.94153  1.0000
  H   H473      1.0  0.36626  0.49203  0.33894  1.0000
  H   H474      1.0  0.48065  0.44242  0.02866  1.0000
  H   H475      1.0  0.38082  0.47567  0.24503  1.0000
  Fe  Fe43      1.0  0.38333  0.50387  0.71592  1.0000
  N   N18       1.0  0.39708  0.50233  0.93014  1.0000
  H   H476      1.0  0.48549  0.47600  0.99449  1.0000
  H   H477      1.0  0.40399  0.50101  0.98944  1.0000
  H   H478      1.0  0.35005  0.50174  0.88282  1.0000
  H   H479      1.0  0.49207  0.47270  0.08554  1.0000
  H   H480      1.0  0.49455  0.43114  0.85443  1.0000
  N   N19       1.0  0.49522  0.46478  0.02864  1.0000
  H   H481      1.0  0.40830  0.50536  0.73279  1.0000
  C   C271      1.0  0.40019  0.50737  0.96800  1.0000
  H   H482      1.0  0.38198  0.50154  0.01817  1.0000
  C   C272      1.0  0.50231  0.46122  0.94879  1.0000
  C   C273      1.0  0.42002  0.50927  0.88874  1.0000
  C   C274      1.0  0.50422  0.37711  0.81013  1.0000
  C   C275      1.0  0.39087  0.50937  0.85534  1.0000
  H   H483      1.0  0.32913  0.51022  0.00805  1.0000
  H   H484      1.0  0.50458  0.38477  0.74015  1.0000
  C   C276      1.0  0.38969  0.50987  0.00080  1.0000
  H   H485      1.0  0.44135  0.50999  0.04790  1.0000
  H   H486      1.0  0.45044  0.51042  0.85426  1.0000
  H   H487      1.0  0.50458  0.36707  0.87650  1.0000
  H   H488      1.0  0.31776  0.51049  0.97865  1.0000
  H   H489      1.0  0.36640  0.68747  0.05321  1.0000
  H   H490      1.0  0.36839  0.53933  0.94297  1.0000
  H   H491      1.0  0.48375  0.59031  0.18305  1.0000
  C   C277      1.0  0.28236  0.58432  0.79310  1.0000
  C   C278      1.0  0.36402  0.54242  0.91616  1.0000
  S   S85       1.0  0.41443  0.74581  0.18138  1.0000
  H   H492      1.0  0.39954  0.51474  0.45234  1.0000
  C   C279      1.0  0.46919  0.53196  0.91217  1.0000
  C   C280      1.0  0.45427  0.61024  0.98271  1.0000
  Fe  Fe44      1.0  0.42549  0.74321  0.11676  1.0000
  S   S86       1.0  0.43236  0.72637  0.10991  1.0000
  H   H493      1.0  0.28154  0.65628  0.92751  1.0000
  H   H494      1.0  0.44327  0.57754  0.96327  1.0000
  H   H495      1.0  0.38734  0.59583  0.07638  1.0000
  H   H496      1.0  0.26909  0.69181  0.11495  1.0000
  Fe  Fe45      1.0  0.31407  0.56399  0.96196  1.0000
  S   S87       1.0  0.33030  0.57889  0.91222  1.0000
  S   S88       1.0  0.29435  0.56532  0.96828  1.0000
  Fe  Fe46      1.0  0.33053  0.55075  0.00522  1.0000
  S   S89       1.0  0.34742  0.56444  0.95853  1.0000
  S   S90       1.0  0.33288  0.53435  0.05448  1.0000
  Fe  Fe47      1.0  0.33839  0.57890  0.97144  1.0000
  S   S91       1.0  0.35134  0.59689  0.97002  1.0000
  Fe  Fe48      1.0  0.33852  0.56351  0.90275  1.0000
  S   S92       1.0  0.35276  0.56456  0.83867  1.0000
  S   S93       1.0  0.32168  0.56519  0.02241  1.0000
  S   S94       1.0  0.32198  0.54855  0.94842  1.0000
  Fe  Fe49      1.0  0.41668  0.64127  0.03274  1.0000
  S   S95       1.0  0.41000  0.62402  0.09084  1.0000
  S   S96       1.0  0.42815  0.64059  0.96498  1.0000
  Fe  Fe50      1.0  0.40547  0.65653  0.09157  1.0000
  S   S97       1.0  0.39760  0.63965  0.15269  1.0000
  S   S98       1.0  0.40122  0.67414  0.10571  1.0000
  Fe  Fe51      1.0  0.41574  0.63596  0.13352  1.0000
  S   S99       1.0  0.42906  0.63244  0.17395  1.0000
  Fe  Fe52      1.0  0.39253  0.62933  0.10309  1.0000
  S   S100      1.0  0.37498  0.61413  0.11931  1.0000
  S   S101      1.0  0.42381  0.65308  0.07445  1.0000
  S   S102      1.0  0.39897  0.64633  0.04336  1.0000
  Fe  Fe53      1.0  0.43346  0.59028  0.38814  1.0000
  S   S103      1.0  0.43869  0.57830  0.34514  1.0000
  S   S104      1.0  0.41779  0.59763  0.37500  1.0000
  Fe  Fe54      1.0  0.45102  0.58538  0.44416  1.0000
  S   S105      1.0  0.45783  0.57303  0.40421  1.0000
  S   S106      1.0  0.45896  0.58617  0.50404  1.0000
  Fe  Fe55      1.0  0.45782  0.58700  0.34165  1.0000
  Fe  Fe56      1.0  0.43835  0.56525  0.41006  1.0000
  S   S107      1.0  0.42968  0.54530  0.42122  1.0000
  S   S108      1.0  0.45277  0.60030  0.38034  1.0000
  S   S109      1.0  0.43134  0.57632  0.45446  1.0000
  H   H497      1.0  0.28128  0.58398  0.75890  1.0000
  C   C281      1.0  0.48408  0.57141  0.19236  1.0000
  H   H498      1.0  0.48902  0.57287  0.15716  1.0000
  H   H499      1.0  0.35850  0.70270  0.03854  1.0000
  H   H500      1.0  0.44361  0.60197  0.52746  1.0000
  C   C282      1.0  0.39385  0.51215  0.89823  1.0000
  S   S110      1.0  0.42092  0.55076  0.22818  1.0000
  H   H501      1.0  0.27089  0.54108  0.88786  1.0000
  Fe  Fe57      1.0  0.43430  0.58578  0.86098  1.0000
  S   S111      1.0  0.44970  0.59951  0.80491  1.0000
  S   S112      1.0  0.42246  0.58901  0.92229  1.0000
  Fe  Fe58      1.0  0.43823  0.56461  0.82235  1.0000
  S   S113      1.0  0.45441  0.57655  0.76480  1.0000
  S   S114      1.0  0.43031  0.54481  0.82738  1.0000
  Fe  Fe59      1.0  0.45961  0.58501  0.81820  1.0000
  Fe  Fe60      1.0  0.44289  0.58963  0.75688  1.0000
  S   S115      1.0  0.43902  0.59855  0.69072  1.0000
  S   S116      1.0  0.44453  0.57180  0.87649  1.0000
  S   S117      1.0  0.42647  0.57723  0.81254  1.0000
  H   H502      1.0  0.35997  0.56993  0.21547  1.0000
  C   C283      1.0  0.27713  0.70920  0.00477  1.0000
  Fe  Fe61      1.0  0.31692  0.75970  0.02922  1.0000
  S   S118      1.0  0.40950  0.54736  0.65676  1.0000
  H   H503      1.0  0.47024  0.57119  0.91021  1.0000
  H   H504      1.0  0.43711  0.54445  0.91780  1.0000
  H   H505      1.0  0.45783  0.53731  0.24080  1.0000
  C   C284      1.0  0.46616  0.61792  0.90295  1.0000
  H   H506      1.0  0.37076  0.69889  0.17088  1.0000
  H   H507      1.0  0.46699  0.56638  0.31933  1.0000
  H   H508      1.0  0.36046  0.68616  0.11367  1.0000
  C   C285      1.0  0.47167  0.56784  0.28391  1.0000
  C   C286      1.0  0.42536  0.54493  0.77809  1.0000
  C   C287      1.0  0.41783  0.53434  0.77423  1.0000
  C   C288      1.0  0.41306  0.53493  0.73654  1.0000
  C   C289      1.0  0.41608  0.54604  0.70220  1.0000
  C   C290      1.0  0.42421  0.55638  0.70466  1.0000
  C   C291      1.0  0.42862  0.55588  0.74285  1.0000
  H   H509      1.0  0.41551  0.52574  0.80043  1.0000
  H   H510      1.0  0.40708  0.52679  0.73414  1.0000
  H   H511      1.0  0.42690  0.56492  0.67763  1.0000
  H   H512      1.0  0.43449  0.56408  0.74483  1.0000
  H   H513      1.0  0.36022  0.71863  0.03582  1.0000
  H   H514      1.0  0.36472  0.71431  0.98487  1.0000
  C   C292      1.0  0.48107  0.58127  0.20711  1.0000
  S   S119      1.0  0.47079  0.59191  0.27058  1.0000
  C   C293      1.0  0.45263  0.58918  0.55604  1.0000
  C   C294      1.0  0.45547  0.58371  0.59580  1.0000
  C   C295      1.0  0.45117  0.58630  0.63737  1.0000
  C   C296      1.0  0.44427  0.59470  0.63936  1.0000
  C   C297      1.0  0.44155  0.60030  0.59946  1.0000
  C   C298      1.0  0.44559  0.59745  0.55810  1.0000
  H   H515      1.0  0.46107  0.57744  0.59443  1.0000
  H   H516      1.0  0.45340  0.58195  0.66759  1.0000
  H   H517      1.0  0.43651  0.60705  0.60028  1.0000
  S   S120      1.0  0.37518  0.51215  0.23937  1.0000
  C   C299      1.0  0.42808  0.54428  0.36774  1.0000
  C   C300      1.0  0.41683  0.53850  0.36379  1.0000
  C   C301      1.0  0.41466  0.54029  0.32075  1.0000
  C   C302      1.0  0.42392  0.54746  0.28147  1.0000
  C   C303      1.0  0.43547  0.55235  0.28522  1.0000
  C   C304      1.0  0.43750  0.55090  0.32834  1.0000
  H   H518      1.0  0.40955  0.53342  0.39414  1.0000
  H   H519      1.0  0.40565  0.53666  0.31842  1.0000
  H   H520      1.0  0.44284  0.55747  0.25517  1.0000
  H   H521      1.0  0.44627  0.55524  0.33127  1.0000
  C   C305      1.0  0.42673  0.62622  0.95318  1.0000
  C   C306      1.0  0.43357  0.62553  0.91131  1.0000
  C   C307      1.0  0.43248  0.61417  0.90123  1.0000
  C   C308      1.0  0.42463  0.60343  0.93330  1.0000
  C   C309      1.0  0.41795  0.60410  0.97525  1.0000
  C   C310      1.0  0.41888  0.61543  0.98487  1.0000
  H   H522      1.0  0.43959  0.63384  0.88635  1.0000
  H   H523      1.0  0.43757  0.61377  0.86851  1.0000
  H   H524      1.0  0.41177  0.59584  0.00005  1.0000
  H   H525      1.0  0.41326  0.61578  0.01636  1.0000
  C   C311      1.0  0.42544  0.62257  0.22974  1.0000
  C   C312      1.0  0.41348  0.61665  0.25607  1.0000
  C   C313      1.0  0.41114  0.60904  0.30085  1.0000
  C   C314      1.0  0.42076  0.60717  0.31899  1.0000
  C   C315      1.0  0.43268  0.61304  0.29240  1.0000
  C   C316      1.0  0.43499  0.62088  0.24830  1.0000
  H   H526      1.0  0.40606  0.61807  0.24225  1.0000
  H   H527      1.0  0.40189  0.60456  0.32143  1.0000
  H   H528      1.0  0.44014  0.61172  0.30614  1.0000
  H   H529      1.0  0.44425  0.62559  0.22840  1.0000
  C   C317      1.0  0.35163  0.55283  0.81125  1.0000
  C   C318      1.0  0.34049  0.54464  0.81653  1.0000
  C   C319      1.0  0.33994  0.53574  0.79243  1.0000
  C   C320      1.0  0.35053  0.53484  0.76368  1.0000
  C   C321      1.0  0.36170  0.54279  0.75965  1.0000
  C   C322      1.0  0.36223  0.55182  0.78305  1.0000
  H   H530      1.0  0.33228  0.54535  0.83821  1.0000
  H   H531      1.0  0.33127  0.52958  0.79577  1.0000
  H   H532      1.0  0.28483  0.57575  0.80717  1.0000
  H   H533      1.0  0.44607  0.54288  0.60977  1.0000
  C   C323      1.0  0.34495  0.53711  0.07944  1.0000
  C   C324      1.0  0.25758  0.57075  0.78907  1.0000
  S   S121      1.0  0.36824  0.51431  0.36968  1.0000
  H   H534      1.0  0.36942  0.58230  0.14436  1.0000
  C   C325      1.0  0.36238  0.55096  0.08796  1.0000
  C   C326      1.0  0.35269  0.54891  0.06869  1.0000
  C   C327      1.0  0.40488  0.57237  0.17082  1.0000
  C   C328      1.0  0.47921  0.57675  0.90658  1.0000
  H   H535      1.0  0.36836  0.56012  0.07867  1.0000
  H   H536      1.0  0.35115  0.55653  0.04590  1.0000
  C   C329      1.0  0.35800  0.60109  0.01224  1.0000
  C   C330      1.0  0.36806  0.61150  0.99847  1.0000
  C   C331      1.0  0.37348  0.61547  0.03061  1.0000
  C   C332      1.0  0.36866  0.60929  0.07728  1.0000
  C   C333      1.0  0.35856  0.59891  0.09113  1.0000
  C   C334      1.0  0.35337  0.59471  0.05879  1.0000
  H   H537      1.0  0.37162  0.61661  0.96269  1.0000
  H   H538      1.0  0.38121  0.62348  0.01934  1.0000
  H   H539      1.0  0.35466  0.59411  0.12712  1.0000
  H   H540      1.0  0.34556  0.58676  0.07002  1.0000
  C   C335      1.0  0.42357  0.71196  0.10823  1.0000
  C   C336      1.0  0.42892  0.70532  0.08084  1.0000
  C   C337      1.0  0.42232  0.69372  0.07979  1.0000
  C   C338      1.0  0.41033  0.68842  0.10713  1.0000
  C   C339      1.0  0.40512  0.69491  0.13545  1.0000
  C   C340      1.0  0.41163  0.70660  0.13579  1.0000
  H   H541      1.0  0.43820  0.70927  0.05971  1.0000
  H   H542      1.0  0.42646  0.68897  0.05737  1.0000
  H   H543      1.0  0.39600  0.69082  0.15772  1.0000
  H   H544      1.0  0.40747  0.71138  0.15804  1.0000
  H   H545      1.0  0.37023  0.67729  0.09584  1.0000
  H   H546      1.0  0.38228  0.70935  0.00189  1.0000
  H   H547      1.0  0.41023  0.72465  0.04113  1.0000
  C   C341      1.0  0.32709  0.51533  0.97751  1.0000
  S   S122      1.0  0.48495  0.52861  0.12172  1.0000
  C   C342      1.0  0.47479  0.57950  0.25293  1.0000
  H   H548      1.0  0.38222  0.69368  0.11578  1.0000
  H   H549      1.0  0.40174  0.72175  0.00206  1.0000
  S   S123      1.0  0.47899  0.59052  0.82084  1.0000
  C   C343      1.0  0.44258  0.59408  0.13759  1.0000
  H   H550      1.0  0.40450  0.70925  0.04128  1.0000
  H   H551      1.0  0.36148  0.70889  0.18072  1.0000
  H   H552      1.0  0.37744  0.71521  0.16171  1.0000
  C   C344      1.0  0.27059  0.65771  0.08036  1.0000
  Fe  Fe62      1.0  0.38212  0.53198  0.19595  1.0000
  C   C345      1.0  0.28488  0.64120  0.01882  1.0000
  H   H553      1.0  0.44826  0.59313  0.24294  1.0000
  H   H554      1.0  0.44717  0.54236  0.21259  1.0000
  C   C346      1.0  0.42615  0.53552  0.54831  1.0000
  C   C347      1.0  0.27001  0.56094  0.97195  1.0000
  C   C348      1.0  0.28104  0.55848  0.95384  1.0000
  C   C349      1.0  0.28120  0.55121  0.92362  1.0000
  C   C350      1.0  0.27056  0.54662  0.91146  1.0000
  H   H555      1.0  0.36962  0.58333  0.95217  1.0000
  H   H556      1.0  0.41911  0.51799  0.86893  1.0000
  H   H557      1.0  0.28954  0.54918  0.90932  1.0000
  H   H558      1.0  0.26895  0.59708  0.76418  1.0000
  N   N20       1.0  0.39808  0.57863  0.64790  1.0000
  C   C351      1.0  0.38607  0.56931  0.67435  1.0000
  C   C352      1.0  0.40648  0.57770  0.67800  1.0000
  C   C353      1.0  0.40282  0.57526  0.60462  1.0000
  C   C354      1.0  0.39588  0.59115  0.63677  1.0000
  C   C355      1.0  0.37651  0.56739  0.64777  1.0000
  C   C356      1.0  0.40304  0.58154  0.72222  1.0000
  C   C357      1.0  0.41660  0.57970  0.58178  1.0000
  C   C358      1.0  0.40715  0.60230  0.61500  1.0000
  H   H559      1.0  0.38746  0.56011  0.68777  1.0000
  H   H560      1.0  0.38167  0.57185  0.70480  1.0000
  H   H561      1.0  0.41595  0.58322  0.65986  1.0000
  H   H562      1.0  0.40704  0.56810  0.68840  1.0000
  H   H563      1.0  0.40042  0.56510  0.61107  1.0000
  H   H564      1.0  0.39841  0.57863  0.57806  1.0000
  H   H565      1.0  0.39029  0.59177  0.61234  1.0000
  H   H566      1.0  0.39023  0.59274  0.66735  1.0000
  H   H567      1.0  0.37950  0.56364  0.61888  1.0000
  H   H568      1.0  0.36813  0.56049  0.67119  1.0000
  H   H569      1.0  0.37391  0.57590  0.63548  1.0000
  H   H570      1.0  0.39435  0.57544  0.74623  1.0000
  H   H571      1.0  0.41014  0.58072  0.74020  1.0000
  H   H572      1.0  0.40284  0.59127  0.71495  1.0000
  H   H573      1.0  0.42025  0.58972  0.57416  1.0000
  H   H574      1.0  0.41856  0.57743  0.54875  1.0000
  H   H575      1.0  0.42159  0.57487  0.60278  1.0000
  H   H576      1.0  0.40996  0.60432  0.57715  1.0000
  H   H577      1.0  0.41494  0.60128  0.62835  1.0000
  H   H578      1.0  0.40499  0.61048  0.62384  1.0000
  C   C359      1.0  0.43011  0.58486  0.24210  1.0000
  C   C360      1.0  0.43580  0.60419  0.13529  1.0000
  H   H579      1.0  0.44148  0.60326  0.21435  1.0000
  H   H580      1.0  0.43555  0.58534  0.14334  1.0000
  H   H581      1.0  0.42446  0.58396  0.21848  1.0000
  H   H582      1.0  0.43086  0.57566  0.25869  1.0000
  H   H583      1.0  0.42527  0.58810  0.26976  1.0000
  H   H584      1.0  0.43646  0.60853  0.09900  1.0000
  H   H585      1.0  0.42597  0.60008  0.15235  1.0000
  N   N21       1.0  0.42821  0.66889  0.20366  1.0000
  C   C361      1.0  0.43956  0.66879  0.17006  1.0000
  C   C362      1.0  0.42882  0.66342  0.25143  1.0000
  C   C363      1.0  0.42704  0.68174  0.19915  1.0000
  C   C364      1.0  0.41741  0.66151  0.19377  1.0000
  C   C365      1.0  0.44197  0.67642  0.12005  1.0000
  C   C366      1.0  0.42747  0.64949  0.26511  1.0000
  C   C367      1.0  0.43762  0.69082  0.20623  1.0000
  C   C368      1.0  0.40484  0.66029  0.22549  1.0000
  H   H586      1.0  0.44777  0.67205  0.18094  1.0000
  H   H587      1.0  0.43937  0.65922  0.16905  1.0000
  H   H588      1.0  0.42195  0.66530  0.27768  1.0000
  H   H589      1.0  0.43766  0.66787  0.25603  1.0000
  H   H590      1.0  0.42585  0.68579  0.16527  1.0000
  H   H591      1.0  0.41868  0.68169  0.22424  1.0000
  H   H592      1.0  0.41707  0.66567  0.15860  1.0000
  H   H593      1.0  0.41820  0.65218  0.19293  1.0000
  H   H594      1.0  0.43433  0.67374  0.10583  1.0000
  H   H595      1.0  0.44408  0.68643  0.11617  1.0000
  H   H596      1.0  0.44999  0.67481  0.09841  1.0000
  H   H597      1.0  0.43445  0.64703  0.24150  1.0000
  H   H598      1.0  0.42872  0.64662  0.29977  1.0000
  H   H599      1.0  0.41830  0.64405  0.26697  1.0000
  H   H600      1.0  0.44651  0.69154  0.18309  1.0000
  H   H601      1.0  0.43796  0.68835  0.24225  1.0000
  H   H602      1.0  0.43617  0.70014  0.19847  1.0000
  H   H603      1.0  0.40091  0.66756  0.21024  1.0000
  H   H604      1.0  0.40497  0.66075  0.26029  1.0000
  H   H605      1.0  0.39863  0.65118  0.23010  1.0000
  N   N22       1.0  0.39193  0.55542  0.43772  1.0000
  C   C369      1.0  0.39423  0.55545  0.38812  1.0000
  C   C370      1.0  0.38051  0.54531  0.46414  1.0000
  C   C371      1.0  0.40238  0.55228  0.45376  1.0000
  C   C372      1.0  0.39107  0.56798  0.44118  1.0000
  C   C373      1.0  0.40584  0.56482  0.35430  1.0000
  C   C374      1.0  0.36900  0.54651  0.44962  1.0000
  C   C375      1.0  0.40196  0.55158  0.50386  1.0000
  C   C376      1.0  0.38401  0.56878  0.48805  1.0000
  H   H606      1.0  0.39452  0.54616  0.38460  1.0000
  H   H607      1.0  0.38669  0.55753  0.37452  1.0000
  H   H608      1.0  0.37833  0.54408  0.50144  1.0000
  H   H609      1.0  0.38185  0.53636  0.46053  1.0000
  H   H610      1.0  0.40325  0.54325  0.44901  1.0000
  H   H611      1.0  0.41109  0.55914  0.43322  1.0000
  H   H612      1.0  0.40032  0.57440  0.43153  1.0000
  H   H613      1.0  0.38657  0.57197  0.41587  1.0000
  H   H614      1.0  0.40634  0.57437  0.35562  1.0000
  H   H615      1.0  0.41414  0.56245  0.35969  1.0000
  H   H616      1.0  0.40588  0.56460  0.31890  1.0000
  H   H617      1.0  0.36093  0.54004  0.47653  1.0000
  H   H618      1.0  0.36785  0.55589  0.44507  1.0000
  H   H619      1.0  0.36899  0.54378  0.41775  1.0000
  H   H620      1.0  0.40271  0.56067  0.51028  1.0000
  H   H621      1.0  0.41000  0.54882  0.51068  1.0000
  H   H622      1.0  0.39396  0.54448  0.52853  1.0000
  H   H623      1.0  0.38879  0.57731  0.49431  1.0000
  H   H624      1.0  0.38312  0.56114  0.51797  1.0000
  H   H625      1.0  0.37487  0.56978  0.48721  1.0000
  H   H626      1.0  0.39485  0.56926  0.12378  1.0000
  H   H627      1.0  0.26504  0.56966  0.76304  1.0000
  C   C377      1.0  0.26049  0.68733  0.06377  1.0000
  C   C378      1.0  0.38215  0.51296  0.49739  1.0000
  H   H628      1.0  0.36806  0.57960  0.24371  1.0000
  C   C379      1.0  0.38802  0.59201  0.16956  1.0000
  H   H629      1.0  0.44985  0.52914  0.97591  1.0000
  H   H630      1.0  0.42371  0.51077  0.91735  1.0000
  H   H631      1.0  0.27611  0.57750  0.88408  1.0000
  H   H632      1.0  0.48057  0.56627  0.97134  1.0000
  N   N23       1.0  0.46242  0.60707  0.94517  1.0000
  S   S124      1.0  0.30165  0.74821  0.09170  1.0000
  H   H633      1.0  0.29741  0.67899  0.00588  1.0000
  H   H634      1.0  0.37309  0.60281  0.89850  1.0000
  C   C380      1.0  0.48517  0.58661  0.86700  1.0000
  Fe  Fe63      1.0  0.38017  0.51951  0.29621  1.0000
  H   H635      1.0  0.28299  0.68161  0.03118  1.0000
  H   H636      1.0  0.44930  0.54819  0.50657  1.0000
  H   H637      1.0  0.46487  0.59516  0.03018  1.0000
  H   H638      1.0  0.38571  0.60889  0.85019  1.0000
  S   S125      1.0  0.45902  0.52905  0.06196  1.0000
  C   C381      1.0  0.35996  0.74265  0.05839  1.0000
  H   H639      1.0  0.36908  0.60012  0.82552  1.0000
  H   H640      1.0  0.39223  0.60169  0.21852  1.0000
  H   H641      1.0  0.45806  0.62063  0.89590  1.0000
  C   C382      1.0  0.47230  0.59527  0.00141  1.0000
  H   H642      1.0  0.38189  0.72387  0.01063  1.0000
  H   H643      1.0  0.38724  0.69529  0.05665  1.0000
  N   N24       1.0  0.38552  0.57930  0.16340  1.0000
  H   H644      1.0  0.35741  0.52999  0.85327  1.0000
  S   S126      1.0  0.38122  0.52070  0.73677  1.0000
  H   H645      1.0  0.38967  0.56973  0.94985  1.0000
  H   H646      1.0  0.48019  0.61366  0.95524  1.0000
  C   C383      1.0  0.47491  0.55806  0.26947  1.0000
  C   C384      1.0  0.47380  0.60495  0.95629  1.0000
  C   C385      1.0  0.46073  0.54642  0.86419  1.0000
  S   S127      1.0  0.38011  0.53242  0.63118  1.0000
  C   C386      1.0  0.26244  0.58640  0.90613  1.0000
  H   H647      1.0  0.26970  0.56648  0.99552  1.0000
  H   H648      1.0  0.44368  0.52688  0.87504  1.0000
  H   H649      1.0  0.43003  0.53874  0.62976  1.0000
  C   C387      1.0  0.37899  0.56947  0.20793  1.0000
  C   C388      1.0  0.39010  0.51419  0.45482  1.0000
  C   C389      1.0  0.35656  0.52947  0.13018  1.0000
  N   N25       1.0  0.27820  0.66075  0.99235  1.0000
  H   H650      1.0  0.36346  0.51892  0.95812  1.0000
  C   C390      1.0  0.27378  0.65543  0.95704  1.0000
  H   H651      1.0  0.25707  0.66143  0.96418  1.0000
  H   H652      1.0  0.46370  0.54317  0.79659  1.0000
  H   H653      1.0  0.27292  0.60435  0.80487  1.0000
  H   H654      1.0  0.29605  0.65828  0.96985  1.0000
  H   H655      1.0  0.35913  0.51168  0.82802  1.0000
  H   H656      1.0  0.43307  0.52683  0.12394  1.0000
  H   H657      1.0  0.28965  0.67665  0.93723  1.0000
  H   H658      1.0  0.26037  0.59534  0.89644  1.0000
  S   S128      1.0  0.31905  0.74361  0.00220  1.0000
  H   H659      1.0  0.41369  0.52770  0.51367  1.0000
  Fe  Fe64      1.0  0.40250  0.75087  0.13702  1.0000
  C   C391      1.0  0.26763  0.65762  0.03449  1.0000
  H   H660      1.0  0.39307  0.51285  0.02823  1.0000
  H   H661      1.0  0.40505  0.59821  0.18634  1.0000
  C   C392      1.0  0.45038  0.52398  0.89233  1.0000
  C   C393      1.0  0.34695  0.52737  0.11011  1.0000
  H   H662      1.0  0.47540  0.62467  0.83004  1.0000
  H   H663      1.0  0.47363  0.55704  0.79876  1.0000
  H   H664      1.0  0.37705  0.56028  0.20171  1.0000
  H   H665      1.0  0.38464  0.56875  0.23194  1.0000
  H   H666      1.0  0.45934  0.61829  0.11555  1.0000
  H   H667      1.0  0.43919  0.61173  0.14931  1.0000
  H   H668      1.0  0.40916  0.59605  0.80129  1.0000
  C   C394      1.0  0.50239  0.59122  0.89751  1.0000
  H   H669      1.0  0.37844  0.58988  0.82261  1.0000
  H   H670      1.0  0.46667  0.52337  0.94086  1.0000
  H   H671      1.0  0.46243  0.54608  0.18182  1.0000
  C   C395      1.0  0.44275  0.59400  0.21815  1.0000
  H   H672      1.0  0.44883  0.59586  0.10298  1.0000
  H   H673      1.0  0.44191  0.57277  0.19480  1.0000
  N   N26       1.0  0.44936  0.59254  0.17338  1.0000
  C   C396      1.0  0.37975  0.60008  0.87424  1.0000
  C   C397      1.0  0.25957  0.54922  0.92910  1.0000
  H   H674      1.0  0.34914  0.51620  0.99730  1.0000
  N   N27       1.0  0.44082  0.51823  0.20759  1.0000
  H   H675      1.0  0.37470  0.56481  0.98733  1.0000
  H   H676      1.0  0.41388  0.60304  0.84265  1.0000
  C   C398      1.0  0.45088  0.57971  0.18342  1.0000
  H   H677      1.0  0.37389  0.57511  0.91225  1.0000
  H   H678      1.0  0.45505  0.57794  0.21222  1.0000
  H   H679      1.0  0.42352  0.51916  0.29205  1.0000
  H   H680      1.0  0.45512  0.54529  0.95150  1.0000
  H   H681      1.0  0.48213  0.61441  0.86054  1.0000
  H   H682      1.0  0.39901  0.59596  0.94076  1.0000
  N   N28       1.0  0.37906  0.70944  0.07307  1.0000
  C   C399      1.0  0.39084  0.71746  0.07437  1.0000
  C   C400      1.0  0.36895  0.71104  0.10847  1.0000
  C   C401      1.0  0.37755  0.71379  0.02571  1.0000
  C   C402      1.0  0.37984  0.69634  0.08324  1.0000
  C   C403      1.0  0.40233  0.71820  0.03727  1.0000
  C   C404      1.0  0.36990  0.70827  0.15801  1.0000
  C   C405      1.0  0.36447  0.71211  0.02161  1.0000
  C   C406      1.0  0.36845  0.68643  0.08656  1.0000
  H   H683      1.0  0.39025  0.72704  0.07150  1.0000
  H   H684      1.0  0.39275  0.71426  0.10764  1.0000
  H   H685      1.0  0.35998  0.70525  0.10993  1.0000
  H   H686      1.0  0.36832  0.72065  0.09876  1.0000
  H   H687      1.0  0.47234  0.62046  0.13622  1.0000
  S   S129      1.0  0.48020  0.55576  0.08632  1.0000
  C   C407      1.0  0.43816  0.55606  0.57762  1.0000
  H   H688      1.0  0.45086  0.58222  0.00235  1.0000
  S   S130      1.0  0.37643  0.54474  0.14333  1.0000
  C   C408      1.0  0.46187  0.60141  0.15642  1.0000
  C   C409      1.0  0.46265  0.61519  0.14556  1.0000
  H   H689      1.0  0.39354  0.58665  0.23361  1.0000
  H   H690      1.0  0.39201  0.58235  0.85311  1.0000
  H   H691      1.0  0.44985  0.59881  0.91181  1.0000
  H   H692      1.0  0.42249  0.51797  0.20584  1.0000
  C   C410      1.0  0.37268  0.74619  0.04318  1.0000
  H   H693      1.0  0.44613  0.61193  0.97248  1.0000
  C   C411      1.0  0.44665  0.58551  0.97547  1.0000
  H   H694      1.0  0.34639  0.53934  0.90386  1.0000
  H   H695      1.0  0.45054  0.60253  0.01450  1.0000
  C   C412      1.0  0.45844  0.57637  0.14334  1.0000
  H   H696      1.0  0.45514  0.57815  0.11257  1.0000
  H   H697      1.0  0.45765  0.56637  0.15409  1.0000
  H   H698      1.0  0.40125  0.58434  0.88884  1.0000
  H   H699      1.0  0.46703  0.59950  0.18191  1.0000
  C   C413      1.0  0.39703  0.57670  0.14040  1.0000
  C   C414      1.0  0.39614  0.58927  0.86878  1.0000
  C   C415      1.0  0.38223  0.57308  0.96666  1.0000
  C   C416      1.0  0.40596  0.59967  0.83041  1.0000
  C   C417      1.0  0.48506  0.57397  0.94114  1.0000
  H   H700      1.0  0.45660  0.54045  0.54160  1.0000
  H   H701      1.0  0.46357  0.52318  0.83068  1.0000
  H   H702      1.0  0.43852  0.58826  0.99050  1.0000
  H   H703      1.0  0.45348  0.62232  0.02665  1.0000
  C   C418      1.0  0.45550  0.59603  0.93451  1.0000
  C   C419      1.0  0.37755  0.58116  0.93188  1.0000
  C   C420      1.0  0.37268  0.59348  0.84642  1.0000
  H   H704      1.0  0.46183  0.59192  0.91484  1.0000
  H   H705      1.0  0.36990  0.54206  0.73801  1.0000
  H   H706      1.0  0.46718  0.60025  0.12433  1.0000
  H   H707      1.0  0.40277  0.60751  0.81560  1.0000
  N   N29       1.0  0.38661  0.59284  0.90002  1.0000
  H   H708      1.0  0.38514  0.57785  0.99104  1.0000
  H   H709      1.0  0.36466  0.58599  0.86914  1.0000
  H   H710      1.0  0.42995  0.53083  0.21895  1.0000
  H   H711      1.0  0.46029  0.53244  0.48080  1.0000
  Fe  Fe65      1.0  0.47700  0.53784  0.06965  1.0000
  C   C421      1.0  0.46007  0.62151  0.99672  1.0000
  C   C422      1.0  0.48114  0.55980  0.22373  1.0000
  H   H712      1.0  0.45798  0.61774  0.17538  1.0000
  H   H713      1.0  0.47266  0.54913  0.29399  1.0000
  H   H714      1.0  0.37596  0.58547  0.06337  1.0000
  S   S131      1.0  0.34957  0.52380  0.73308  1.0000
  H   H715      1.0  0.46206  0.63020  0.96929  1.0000
  H   H716      1.0  0.46824  0.58109  0.13467  1.0000
  H   H717      1.0  0.40177  0.61765  0.93267  1.0000
  C   C423      1.0  0.39205  0.59993  0.92911  1.0000
  H   H718      1.0  0.43325  0.51465  0.57565  1.0000
  Fe  Fe66      1.0  0.39423  0.53089  0.66819  1.0000
  H   H719      1.0  0.47489  0.52994  0.88306  1.0000
  S   S132      1.0  0.49400  0.54321  0.01244  1.0000
  C   C424      1.0  0.37957  0.74694  0.07452  1.0000
  C   C425      1.0  0.39789  0.61388  0.90772  1.0000
  H   H720      1.0  0.44667  0.53402  0.46579  1.0000
  H   H721      1.0  0.38499  0.59909  0.96092  1.0000
  S   S133      1.0  0.38548  0.53922  0.25449  1.0000
  C   C426      1.0  0.47333  0.61614  0.85839  1.0000
  H   H722      1.0  0.46835  0.62065  0.00706  1.0000
  H   H723      1.0  0.47198  0.62614  0.90785  1.0000
  H   H724      1.0  0.29226  0.65883  0.02676  1.0000
  H   H725      1.0  0.46801  0.60868  0.84827  1.0000
  S   S134      1.0  0.28832  0.71476  0.07252  1.0000
  H   H726      1.0  0.47109  0.58595  0.99655  1.0000
  C   C427      1.0  0.47760  0.54204  0.92448  1.0000
  H   H727      1.0  0.40542  0.61612  0.87638  1.0000
  H   H728      1.0  0.27566  0.67868  0.96572  1.0000
  H   H729      1.0  0.47912  0.60186  0.92914  1.0000
  S   S135      1.0  0.38825  0.51298  0.54456  1.0000
  C   C428      1.0  0.37728  0.57877  0.13248  1.0000
  H   H730      1.0  0.28343  0.71761  0.98147  1.0000
  H   H731      1.0  0.41353  0.57204  0.14868  1.0000
  C   C429      1.0  0.26469  0.66109  0.93702  1.0000
  C   C430      1.0  0.43748  0.53714  0.94663  1.0000
  S   S136      1.0  0.40127  0.53108  0.17130  1.0000
  H   H732      1.0  0.39108  0.61883  0.90100  1.0000
  C   C431      1.0  0.43150  0.52473  0.19720  1.0000
  H   H733      1.0  0.43860  0.56092  0.60426  1.0000
  C   C432      1.0  0.49669  0.58127  0.93652  1.0000
  H   H734      1.0  0.47651  0.54294  0.81989  1.0000
  H   H735      1.0  0.45373  0.52154  0.59149  1.0000
  H   H736      1.0  0.44541  0.52364  0.64429  1.0000
  Fe  Fe67      1.0  0.48984  0.54721  0.13372  1.0000
  H   H737      1.0  0.47937  0.51928  0.03830  1.0000
  C   C433      1.0  0.43470  0.52140  0.59532  1.0000
  H   H738      1.0  0.26414  0.66163  0.10023  1.0000
  H   H739      1.0  0.40044  0.56288  0.19324  1.0000
  C   C434      1.0  0.36688  0.57083  0.23454  1.0000
  S   S137      1.0  0.48544  0.54735  0.20766  1.0000
  C   C435      1.0  0.46031  0.51610  0.04366  1.0000
  C   C436      1.0  0.28307  0.67449  0.97155  1.0000
  H   H740      1.0  0.48581  0.53913  0.92837  1.0000
  H   H741      1.0  0.43340  0.53921  0.97864  1.0000
  C   C437      1.0  0.47162  0.51381  0.03210  1.0000
  H   H742      1.0  0.29280  0.69168  0.97881  1.0000
  C   C438      1.0  0.28942  0.68185  0.99910  1.0000
  H   H743      1.0  0.40298  0.58494  0.11245  1.0000
  H   H744      1.0  0.44501  0.51677  0.92486  1.0000
  H   H745      1.0  0.44662  0.52110  0.51078  1.0000
  C   C439      1.0  0.35079  0.53451  0.92764  1.0000
  C   C440      1.0  0.43435  0.53262  0.14727  1.0000
  H   H746      1.0  0.36395  0.55202  0.91493  1.0000
  Fe  Fe68      1.0  0.36718  0.52054  0.69880  1.0000
  H   H747      1.0  0.45225  0.54795  0.85696  1.0000
  C   C441      1.0  0.27752  0.70576  0.05041  1.0000
  H   H748      1.0  0.46196  0.51160  0.88298  1.0000
  S   S138      1.0  0.35145  0.74122  0.01893  1.0000
  H   H749      1.0  0.26176  0.66386  0.02926  1.0000
  H   H750      1.0  0.37325  0.56909  0.13369  1.0000
  C   C442      1.0  0.38313  0.58596  0.08139  1.0000
  H   H751      1.0  0.46445  0.55473  0.87421  1.0000
  C   C443      1.0  0.45058  0.53663  0.94531  1.0000
  Fe  Fe69      1.0  0.31650  0.74687  0.12639  1.0000
  C   C444      1.0  0.35419  0.73992  0.10510  1.0000
  H   H752      1.0  0.38988  0.58187  0.06426  1.0000
  C   C445      1.0  0.25937  0.55635  0.95979  1.0000
  H   H753      1.0  0.34439  0.73718  0.11722  1.0000
  H   H754      1.0  0.28377  0.63698  0.99091  1.0000
  H   H755      1.0  0.42863  0.54413  0.51978  1.0000
  H   H756      1.0  0.41857  0.53627  0.57522  1.0000
  N   N30       1.0  0.45792  0.53478  0.90241  1.0000
  H   H757      1.0  0.44634  0.56088  0.54855  1.0000
  H   H758      1.0  0.36623  0.52174  0.87988  1.0000
  C   C446      1.0  0.26906  0.69470  0.07958  1.0000
  C   C447      1.0  0.45716  0.51709  0.86322  1.0000
  H   H759      1.0  0.48064  0.59750  0.01265  1.0000
  C   C448      1.0  0.45510  0.53866  0.20857  1.0000
  H   H760      1.0  0.42610  0.51865  0.62354  1.0000
  H   H761      1.0  0.48070  0.55091  0.89726  1.0000
  C   C449      1.0  0.43776  0.54254  0.59806  1.0000
  S   S139      1.0  0.38207  0.74372  0.16215  1.0000
  H   H762      1.0  0.35794  0.52196  0.15419  1.0000
  H   H763      1.0  0.37088  0.55796  0.77975  1.0000
  H   H764      1.0  0.26171  0.64822  0.04039  1.0000
  H   H765      1.0  0.43165  0.52821  0.94734  1.0000
  H   H766      1.0  0.38935  0.74978  0.06240  1.0000
  S   S140      1.0  0.41303  0.74760  0.07438  1.0000
  Fe  Fe70      1.0  0.30438  0.73171  0.06694  1.0000
  C   C450      1.0  0.39520  0.59460  0.20377  1.0000
  H   H767      1.0  0.41544  0.51651  0.55913  1.0000
  S   S141      1.0  0.31803  0.72937  0.10794  1.0000
  Fe  Fe71      1.0  0.40398  0.53679  0.23269  1.0000
  H   H768      1.0  0.29298  0.75953  0.17334  1.0000
  H   H769      1.0  0.36317  0.56327  0.26704  1.0000
  C   C451      1.0  0.42045  0.52494  0.53066  1.0000
  S   S142      1.0  0.50461  0.57853  0.97807  1.0000
  N   N31       1.0  0.43685  0.53440  0.56670  1.0000
  C   C452      1.0  0.43718  0.51130  0.25781  1.0000
  H   H770      1.0  0.35098  0.74998  0.27620  1.0000
  C   C453      1.0  0.26712  0.59584  0.80171  1.0000
  Fe  Fe72      1.0  0.50255  0.53522  0.06584  1.0000
  H   H771      1.0  0.30102  0.59454  0.75597  1.0000
  C   C454      1.0  0.44850  0.53888  0.52842  1.0000
  C   C455      1.0  0.37377  0.74377  0.12142  1.0000
  C   C456      1.0  0.44480  0.51895  0.61729  1.0000
  H   H772      1.0  0.35650  0.73789  0.17270  1.0000
  H   H773      1.0  0.45978  0.52200  0.20628  1.0000
  C   C457      1.0  0.36107  0.74033  0.13652  1.0000
  C   C458      1.0  0.35810  0.75868  0.26949  1.0000
  H   H774      1.0  0.39313  0.59897  0.13638  1.0000
  C   C459      1.0  0.36429  0.54132  0.11918  1.0000
  H   H775      1.0  0.37948  0.59470  0.17918  1.0000
  H   H776      1.0  0.50142  0.60137  0.83246  1.0000
  C   C460      1.0  0.26855  0.70186  0.98900  1.0000
  Fe  Fe73      1.0  0.33219  0.74208  0.04482  1.0000
  H   H777      1.0  0.36965  0.54281  0.88211  1.0000
  Fe  Fe74      1.0  0.39479  0.51191  0.21806  1.0000
  H   H778      1.0  0.26912  0.67043  0.91316  1.0000
  C   C461      1.0  0.46905  0.54721  0.81749  1.0000
  C   C462      1.0  0.28832  0.65536  0.00152  1.0000
  H   H779      1.0  0.40720  0.57850  0.19171  1.0000
  H   H780      1.0  0.43166  0.51244  0.32761  1.0000
  H   H781      1.0  0.42993  0.55704  0.56703  1.0000
  H   H782      1.0  0.26511  0.56492  0.84402  1.0000
  C   C463      1.0  0.36579  0.51251  0.46106  1.0000
  C   C464      1.0  0.26009  0.69081  0.01815  1.0000
  Fe  Fe75      1.0  0.38241  0.51474  0.61711  1.0000
  H   H783      1.0  0.37720  0.74837  0.00708  1.0000
  S   S143      1.0  0.39763  0.51419  0.65017  1.0000
  H   H784      1.0  0.34618  0.53494  0.96214  1.0000
  C   C465      1.0  0.45345  0.52681  0.19324  1.0000
  H   H785      1.0  0.44312  0.51334  0.14365  1.0000
  H   H786      1.0  0.45741  0.52952  0.15547  1.0000
  H   H787      1.0  0.40741  0.51625  0.95377  1.0000
  H   H788      1.0  0.31619  0.75020  0.28716  1.0000
  N   N32       1.0  0.27070  0.58475  0.82409  1.0000
  H   H789      1.0  0.40090  0.52114  0.88716  1.0000
  H   H790      1.0  0.36592  0.75680  0.20333  1.0000
  H   H791      1.0  0.29722  0.59460  0.81408  1.0000
  H   H792      1.0  0.38566  0.51422  0.91661  1.0000
  S   S144      1.0  0.33125  0.75909  0.06562  1.0000
  C   C466      1.0  0.29365  0.59514  0.78383  1.0000
  H   H793      1.0  0.36484  0.75636  0.28706  1.0000
  H   H794      1.0  0.26918  0.64540  0.97154  1.0000
  C   C467      1.0  0.45041  0.53110  0.49487  1.0000
  H   H795      1.0  0.47328  0.54333  0.95776  1.0000
  H   H796      1.0  0.27651  0.63737  0.04779  1.0000
  H   H797      1.0  0.28046  0.59380  0.86430  1.0000
  C   C468      1.0  0.27302  0.58553  0.86910  1.0000
  H   H798      1.0  0.26081  0.65530  0.91701  1.0000
  H   H799      1.0  0.29232  0.63833  0.03097  1.0000
  H   H800      1.0  0.34096  0.51821  0.11877  1.0000
  Fe  Fe76      1.0  0.49791  0.56046  0.03295  1.0000
  N   N33       1.0  0.34922  0.52136  0.92612  1.0000
  H   H801      1.0  0.29197  0.60421  0.77244  1.0000
  H   H802      1.0  0.42707  0.52277  0.50492  1.0000
  C   C469      1.0  0.43263  0.51806  0.29251  1.0000
  H   H803      1.0  0.27975  0.66315  0.07769  1.0000
  S   S145      1.0  0.31673  0.75019  0.19623  1.0000
  H   H804      1.0  0.44357  0.53904  0.13450  1.0000
  S   S146      1.0  0.39902  0.51762  0.27820  1.0000
  H   H805      1.0  0.32682  0.52463  0.98004  1.0000
  C   C470      1.0  0.26149  0.57274  0.83146  1.0000
  H   H806      1.0  0.26846  0.70480  0.95372  1.0000
  H   H807      1.0  0.39231  0.51816  0.82910  1.0000
  H   H808      1.0  0.35631  0.51171  0.46380  1.0000
  C   C471      1.0  0.35671  0.52149  0.87975  1.0000
  H   H809      1.0  0.42794  0.53836  0.14538  1.0000
  H   H810      1.0  0.27677  0.75776  0.13907  1.0000
  C   C472      1.0  0.38604  0.51493  0.41535  1.0000
  C   C473      1.0  0.49674  0.59377  0.86286  1.0000
  H   H811      1.0  0.26897  0.64818  0.10183  1.0000
  H   H812      1.0  0.26522  0.58600  0.93807  1.0000
  H   H813      1.0  0.33302  0.52092  0.90381  1.0000
  H   H814      1.0  0.38450  0.75610  0.25110  1.0000
  C   C474      1.0  0.36993  0.51208  0.50044  1.0000
  H   H815      1.0  0.43891  0.52709  0.28743  1.0000
  C   C475      1.0  0.37384  0.51403  0.41825  1.0000
  C   C476      1.0  0.33593  0.51578  0.93227  1.0000
  C   C477      1.0  0.32267  0.75872  0.26546  1.0000
  H   H816      1.0  0.39237  0.51609  0.38284  1.0000
  H   H817      1.0  0.34391  0.51209  0.84832  1.0000
  C   C478      1.0  0.35360  0.51486  0.96408  1.0000
  C   C479      1.0  0.35209  0.51105  0.85938  1.0000
  H   H818      1.0  0.38649  0.51743  0.98330  1.0000
  H   H819      1.0  0.36368  0.51104  0.53305  1.0000
  H   H820      1.0  0.45014  0.82909  0.95224  1.0000
  H   H821      1.0  0.49334  0.83003  0.16969  1.0000
  H   H822      1.0  0.39453  0.79624  0.82736  1.0000
  H   H823      1.0  0.37529  0.77152  0.87316  1.0000
  S   S147      1.0  0.31804  0.77945  0.99456  1.0000
  C   C480      1.0  0.41698  0.93451  0.12975  1.0000
  H   H824      1.0  0.46866  0.78773  0.30843  1.0000
  H   H825      1.0  0.42343  0.94354  0.12444  1.0000
  H   H826      1.0  0.49336  0.81696  0.78010  1.0000
  H   H827      1.0  0.34269  0.84486  0.63239  1.0000
  S   S148      1.0  0.42612  0.78102  0.98901  1.0000
  Fe  Fe77      1.0  0.40086  0.90211  0.03204  1.0000
  S   S149      1.0  0.40319  0.91480  0.96262  1.0000
  S   S150      1.0  0.38255  0.89749  0.08271  1.0000
  Fe  Fe78      1.0  0.42672  0.90118  0.00749  1.0000
  S   S151      1.0  0.43080  0.91347  0.93656  1.0000
  S   S152      1.0  0.44221  0.89479  0.02559  1.0000
  Fe  Fe79      1.0  0.42091  0.92503  0.97120  1.0000
  S   S153      1.0  0.42780  0.94617  0.95417  1.0000
  Fe  Fe80      1.0  0.41279  0.90194  0.93520  1.0000
  S   S154      1.0  0.41216  0.89294  0.87641  1.0000
  S   S155      1.0  0.41766  0.91308  0.04223  1.0000
  S   S156      1.0  0.40957  0.88889  0.00469  1.0000
  Fe  Fe81      1.0  0.38136  0.82147  0.27723  1.0000
  S   S157      1.0  0.36993  0.80460  0.33346  1.0000
  S   S158      1.0  0.40077  0.82270  0.24351  1.0000
  Fe  Fe82      1.0  0.36132  0.83350  0.28078  1.0000
  S   S159      1.0  0.34821  0.81761  0.33861  1.0000
  S   S160      1.0  0.35511  0.84980  0.25024  1.0000
  Fe  Fe83      1.0  0.36383  0.81788  0.37045  1.0000
  S   S161      1.0  0.36326  0.81381  0.44738  1.0000
  Fe  Fe84      1.0  0.35539  0.80568  0.29716  1.0000
  S   S162      1.0  0.34335  0.78823  0.28887  1.0000
  S   S163      1.0  0.37617  0.83463  0.31557  1.0000
  S   S164      1.0  0.36749  0.82162  0.23811  1.0000
  Fe  Fe85      1.0  0.36080  0.82225  0.75748  1.0000
  S   S165      1.0  0.36160  0.84128  0.71740  1.0000
  S   S166      1.0  0.34469  0.80543  0.78414  1.0000
  Fe  Fe86      1.0  0.38793  0.82819  0.73563  1.0000
  S   S167      1.0  0.39105  0.84749  0.69292  1.0000
  S   S168      1.0  0.40277  0.81970  0.74728  1.0000
  Fe  Fe87      1.0  0.37604  0.84803  0.75113  1.0000
  S   S169      1.0  0.37614  0.86427  0.78266  1.0000
  Fe  Fe88      1.0  0.37651  0.83903  0.66299  1.0000
  S   S170      1.0  0.37792  0.84423  0.58572  1.0000
  S   S171      1.0  0.37378  0.82898  0.79513  1.0000
  S   S172      1.0  0.37489  0.81981  0.70153  1.0000
  Fe  Fe89      1.0  0.45369  0.81725  0.36455  1.0000
  S   S173      1.0  0.45750  0.83476  0.30955  1.0000
  S   S174      1.0  0.44740  0.79828  0.35263  1.0000
  Fe  Fe90      1.0  0.45848  0.83151  0.43721  1.0000
  S   S175      1.0  0.46222  0.84988  0.38563  1.0000
  S   S176      1.0  0.45588  0.82868  0.51529  1.0000
  Fe  Fe91      1.0  0.44653  0.84084  0.36375  1.0000
  S   S177      1.0  0.43212  0.84983  0.35014  1.0000
  Fe  Fe92      1.0  0.47291  0.84215  0.33578  1.0000
  S   S178      1.0  0.49007  0.85260  0.27885  1.0000
  S   S179      1.0  0.44179  0.82303  0.41802  1.0000
  S   S180      1.0  0.47019  0.82405  0.38795  1.0000
  Fe  Fe93      1.0  0.47279  0.83827  0.82519  1.0000
  S   S181      1.0  0.48732  0.85391  0.77108  1.0000
  S   S182      1.0  0.47521  0.82062  0.86515  1.0000
  Fe  Fe94      1.0  0.45336  0.85080  0.81774  1.0000
  S   S183      1.0  0.46604  0.86736  0.76331  1.0000
  S   S184      1.0  0.43375  0.84927  0.84755  1.0000
  Fe  Fe95      1.0  0.47326  0.85376  0.73126  1.0000
  S   S185      1.0  0.47680  0.85555  0.65362  1.0000
  Fe  Fe96      1.0  0.47891  0.86624  0.80772  1.0000
  H   H828      1.0  0.45014  0.86055  0.24939  1.0000
  S   S186      1.0  0.45960  0.83745  0.78331  1.0000
  S   S187      1.0  0.46545  0.85043  0.86371  1.0000
  C   C481      1.0  0.46189  0.83639  0.55291  1.0000
  C   C482      1.0  0.45742  0.83096  0.60069  1.0000
  C   C483      1.0  0.46183  0.83660  0.63186  1.0000
  C   C484      1.0  0.47081  0.84786  0.61593  1.0000
  C   C485      1.0  0.47523  0.85332  0.56820  1.0000
  C   C486      1.0  0.47082  0.84768  0.53700  1.0000
  H   H829      1.0  0.45049  0.82226  0.61372  1.0000
  H   H830      1.0  0.45825  0.83223  0.66821  1.0000
  H   H831      1.0  0.48219  0.86200  0.55511  1.0000
  H   H832      1.0  0.47442  0.85205  0.50056  1.0000
  C   C487      1.0  0.41039  0.82667  0.78104  1.0000
  C   C488      1.0  0.40673  0.83599  0.79717  1.0000
  C   C489      1.0  0.41355  0.84232  0.82051  1.0000
  C   C490      1.0  0.42420  0.83960  0.82658  1.0000
  C   C491      1.0  0.42746  0.82982  0.81285  1.0000
  C   C492      1.0  0.42057  0.82336  0.79000  1.0000
  H   H833      1.0  0.39889  0.83863  0.79041  1.0000
  H   H834      1.0  0.41095  0.84972  0.83203  1.0000
  H   H835      1.0  0.43523  0.82716  0.82005  1.0000
  H   H836      1.0  0.42331  0.81600  0.77832  1.0000
  C   C493      1.0  0.41035  0.83117  0.26812  1.0000
  C   C494      1.0  0.42012  0.82718  0.27813  1.0000
  C   C495      1.0  0.42668  0.83273  0.30408  1.0000
  C   C496      1.0  0.42395  0.84274  0.31780  1.0000
  C   C497      1.0  0.41459  0.84714  0.30557  1.0000
  C   C498      1.0  0.40779  0.84135  0.28083  1.0000
  H   H837      1.0  0.42223  0.81942  0.26780  1.0000
  H   H838      1.0  0.43358  0.82899  0.31444  1.0000
  H   H839      1.0  0.41249  0.85495  0.31565  1.0000
  H   H840      1.0  0.40065  0.84486  0.27122  1.0000
  C   C499      1.0  0.36802  0.82253  0.48424  1.0000
  C   C500      1.0  0.36737  0.81626  0.52936  1.0000
  C   C501      1.0  0.37051  0.82268  0.56055  1.0000
  C   C502      1.0  0.37427  0.83554  0.54730  1.0000
  C   C503      1.0  0.37523  0.84181  0.50187  1.0000
  C   C504      1.0  0.37216  0.83539  0.47059  1.0000
  H   H841      1.0  0.36431  0.80633  0.54036  1.0000
  H   H842      1.0  0.36988  0.81765  0.59501  1.0000
  H   H843      1.0  0.37819  0.85175  0.49083  1.0000
  H   H844      1.0  0.37276  0.84041  0.43613  1.0000
  C   C505      1.0  0.43620  0.95582  0.98069  1.0000
  C   C506      1.0  0.44007  0.95109  0.01858  1.0000
  C   C507      1.0  0.44711  0.95909  0.03711  1.0000
  H   H845      1.0  0.49910  0.82726  0.68252  1.0000
  H   H846      1.0  0.31162  0.81300  0.73416  1.0000
  H   H847      1.0  0.43787  0.94125  0.03309  1.0000
  H   H848      1.0  0.45018  0.95525  0.06595  1.0000
  C   C508      1.0  0.40099  0.88409  0.85671  1.0000
  C   C509      1.0  0.39118  0.88815  0.84713  1.0000
  C   C510      1.0  0.38352  0.88183  0.82565  1.0000
  C   C511      1.0  0.38560  0.87141  0.81273  1.0000
  C   C512      1.0  0.39523  0.86719  0.82320  1.0000
  C   C513      1.0  0.40289  0.87350  0.84474  1.0000
  H   H849      1.0  0.38983  0.89656  0.85405  1.0000
  H   H850      1.0  0.37618  0.88529  0.81747  1.0000
  H   H851      1.0  0.39687  0.85919  0.81366  1.0000
  H   H852      1.0  0.41053  0.87031  0.85120  1.0000
  C   C514      1.0  0.37580  0.88393  0.12878  1.0000
  C   C515      1.0  0.38165  0.87480  0.14046  1.0000
  C   C516      1.0  0.37553  0.86416  0.17781  1.0000
  C   C517      1.0  0.36358  0.86269  0.20312  1.0000
  C   C518      1.0  0.35786  0.87180  0.19073  1.0000
  C   C519      1.0  0.36390  0.88231  0.15404  1.0000
  H   H853      1.0  0.39086  0.87596  0.12113  1.0000
  H   H854      1.0  0.38003  0.85716  0.18718  1.0000
  H   H855      1.0  0.34866  0.87075  0.20997  1.0000
  H   H856      1.0  0.35928  0.88925  0.14534  1.0000
  H   H857      1.0  0.47973  0.94197  0.89410  1.0000
  H   H858      1.0  0.33692  0.84030  0.58712  1.0000
  H   H859      1.0  0.47483  0.83638  0.16967  1.0000
  C   C520      1.0  0.48506  0.87494  0.27316  1.0000
  C   C521      1.0  0.49113  0.86794  0.25055  1.0000
  H   H860      1.0  0.50018  0.91293  0.91073  1.0000
  C   C522      1.0  0.31523  0.82591  0.64157  1.0000
  H   H861      1.0  0.47960  0.87096  0.30829  1.0000
  C   C523      1.0  0.49098  0.82450  0.26235  1.0000
  C   C524      1.0  0.47269  0.92892  0.00505  1.0000
  C   C525      1.0  0.47537  0.91869  0.99301  1.0000
  C   C526      1.0  0.46601  0.90816  0.99953  1.0000
  C   C527      1.0  0.45394  0.90800  0.01683  1.0000
  C   C528      1.0  0.45126  0.91844  0.02681  1.0000
  C   C529      1.0  0.46062  0.92887  0.02114  1.0000
  H   H862      1.0  0.48468  0.91887  0.97876  1.0000
  H   H863      1.0  0.46818  0.90020  0.99102  1.0000
  H   H864      1.0  0.44200  0.91838  0.04055  1.0000
  H   H865      1.0  0.45853  0.93675  0.03062  1.0000
  H   H866      1.0  0.39881  0.78341  0.85472  1.0000
  C   C530      1.0  0.44006  0.78148  0.30679  1.0000
  C   C531      1.0  0.44314  0.79400  0.30547  1.0000
  C   C532      1.0  0.44267  0.80264  0.26710  1.0000
  C   C533      1.0  0.43918  0.79879  0.23086  1.0000
  H   H867      1.0  0.44038  0.77467  0.33615  1.0000
  H   H868      1.0  0.44484  0.81227  0.26555  1.0000
  H   H869      1.0  0.43876  0.80559  0.20181  1.0000
  C   C534      1.0  0.44001  0.79155  0.95445  1.0000
  C   C535      1.0  0.43972  0.80155  0.92023  1.0000
  C   C536      1.0  0.45044  0.81056  0.89345  1.0000
  C   C537      1.0  0.46163  0.80945  0.89943  1.0000
  C   C538      1.0  0.46199  0.79928  0.93287  1.0000
  C   C539      1.0  0.45119  0.79040  0.96070  1.0000
  H   H870      1.0  0.43112  0.80245  0.91498  1.0000
  H   H871      1.0  0.45000  0.81833  0.86808  1.0000
  H   H872      1.0  0.47062  0.79833  0.93761  1.0000
  H   H873      1.0  0.45152  0.78267  0.98677  1.0000
  C   C540      1.0  0.33813  0.79816  0.84316  1.0000
  C   C541      1.0  0.33158  0.78571  0.85762  1.0000
  C   C542      1.0  0.32586  0.77971  0.90429  1.0000
  C   C543      1.0  0.32633  0.78626  0.93662  1.0000
  C   C544      1.0  0.33294  0.79871  0.92217  1.0000
  C   C545      1.0  0.33900  0.80460  0.87564  1.0000
  H   H874      1.0  0.33084  0.78068  0.83265  1.0000
  H   H875      1.0  0.32069  0.77015  0.91508  1.0000
  H   H876      1.0  0.33324  0.80385  0.94701  1.0000
  H   H877      1.0  0.34396  0.81423  0.86476  1.0000
  C   C546      1.0  0.48469  0.82354  0.19347  1.0000
  H   H878      1.0  0.40148  0.79856  0.28370  1.0000
  C   C547      1.0  0.32831  0.76709  0.28576  1.0000
  C   C548      1.0  0.33659  0.77833  0.25919  1.0000
  C   C549      1.0  0.33923  0.78101  0.21111  1.0000
  C   C550      1.0  0.33362  0.77243  0.19049  1.0000
  H   H879      1.0  0.46256  0.97845  0.81004  1.0000
  H   H880      1.0  0.31432  0.77014  0.13325  1.0000
  H   H881      1.0  0.34555  0.78965  0.18996  1.0000
  H   H882      1.0  0.33572  0.77452  0.15366  1.0000
  H   H883      1.0  0.49832  0.87153  0.88883  1.0000
  H   H884      1.0  0.38473  0.81397  0.90666  1.0000
  C   C551      1.0  0.37238  0.78429  0.22931  1.0000
  S   S188      1.0  0.49487  0.90820  0.17931  1.0000
  H   H885      1.0  0.47845  0.97901  0.78993  1.0000
  S   S189      1.0  0.48561  0.00533  0.06294  1.0000
  C   C552      1.0  0.38277  0.79619  0.21635  1.0000
  H   H886      1.0  0.43415  0.76798  0.27245  1.0000
  H   H887      1.0  0.41364  0.79267  0.26255  1.0000
  H   H888      1.0  0.46857  0.81070  0.27757  1.0000
  H   H889      1.0  0.36224  0.76800  0.95949  1.0000
  H   H890      1.0  0.37105  0.77981  0.26597  1.0000
  H   H891      1.0  0.36394  0.78706  0.22818  1.0000
  Fe  Fe97      1.0  0.49870  0.93378  0.02456  1.0000
  H   H892      1.0  0.47982  0.80617  0.62024  1.0000
  H   H893      1.0  0.30566  0.76972  0.21128  1.0000
  H   H894      1.0  0.39155  0.78212  0.81140  1.0000
  H   H895      1.0  0.38686  0.76622  0.17595  1.0000
  H   H896      1.0  0.49354  0.81114  0.32015  1.0000
  C   C553      1.0  0.49348  0.89263  0.20533  1.0000
  H   H897      1.0  0.49692  0.83354  0.23901  1.0000
  H   H898      1.0  0.49096  0.95307  0.90541  1.0000
  H   H899      1.0  0.31366  0.78546  0.18914  1.0000
  H   H900      1.0  0.48255  0.80256  0.81577  1.0000
  C   C554      1.0  0.30461  0.77895  0.19639  1.0000
  C   C555      1.0  0.48631  0.88726  0.25075  1.0000
  C   C556      1.0  0.47536  0.80631  0.26257  1.0000
  N   N34       1.0  0.47135  0.96376  0.88093  1.0000
  C   C557      1.0  0.47198  0.97720  0.86391  1.0000
  C   C558      1.0  0.47005  0.96085  0.93152  1.0000
  C   C559      1.0  0.46007  0.95645  0.87347  1.0000
  H   H901      1.0  0.50088  0.98636  0.94935  1.0000
  C   C560      1.0  0.47176  0.98174  0.81381  1.0000
  C   C561      1.0  0.47948  0.96933  0.94613  1.0000
  H   H902      1.0  0.31382  0.82855  0.60705  1.0000
  H   H903      1.0  0.46437  0.97945  0.88577  1.0000
  H   H904      1.0  0.46780  0.81332  0.67510  1.0000
  H   H905      1.0  0.46108  0.96131  0.94990  1.0000
  H   H906      1.0  0.45206  0.95946  0.88832  1.0000
  H   H907      1.0  0.46079  0.95816  0.83637  1.0000
  H   H908      1.0  0.46652  0.80875  0.80006  1.0000
  H   H909      1.0  0.31884  0.82013  0.76999  1.0000
  H   H910      1.0  0.30172  0.80441  0.07102  1.0000
  C   C562      1.0  0.48259  0.96141  0.85429  1.0000
  H   H911      1.0  0.32163  0.80626  0.76179  1.0000
  C   C563      1.0  0.44142  0.83124  0.96380  1.0000
  C   C564      1.0  0.49832  0.87331  0.20505  1.0000
  H   H912      1.0  0.42957  0.86275  0.59001  1.0000
  H   H913      1.0  0.32821  0.79911  0.70444  1.0000
  N   N35       1.0  0.37024  0.78809  0.87844  1.0000
  C   C565      1.0  0.35768  0.77956  0.90233  1.0000
  C   C566      1.0  0.37928  0.78058  0.87798  1.0000
  H   H914      1.0  0.47909  0.83837  0.21933  1.0000
  C   C567      1.0  0.48355  0.80762  0.64897  1.0000
  H   H915      1.0  0.35074  0.78468  0.90041  1.0000
  H   H916      1.0  0.35551  0.77228  0.88520  1.0000
  C   C568      1.0  0.38471  0.80735  0.88589  1.0000
  C   C569      1.0  0.32217  0.78931  0.09695  1.0000
  H   H917      1.0  0.47089  0.80170  0.24052  1.0000
  H   H918      1.0  0.34646  0.76546  0.96438  1.0000
  H   H919      1.0  0.39153  0.79433  0.21828  1.0000
  H   H920      1.0  0.37421  0.78063  0.08444  1.0000
  C   C570      1.0  0.49856  0.88050  0.89370  1.0000
  H   H921      1.0  0.48438  0.79342  0.29771  1.0000
  H   H922      1.0  0.38620  0.81279  0.85021  1.0000
  C   C571      1.0  0.43603  0.78627  0.23219  1.0000
  N   N36       1.0  0.45699  0.88190  0.16892  1.0000
  C   C572      1.0  0.46951  0.88202  0.14333  1.0000
  C   C573      1.0  0.45666  0.88080  0.21825  1.0000
  C   C574      1.0  0.45395  0.89359  0.14929  1.0000
  C   C575      1.0  0.44788  0.87121  0.16481  1.0000
  C   C576      1.0  0.47200  0.88444  0.09105  1.0000
  C   C577      1.0  0.45778  0.86847  0.24593  1.0000
  C   C578      1.0  0.46315  0.90568  0.14553  1.0000
  C   C579      1.0  0.43468  0.86873  0.19372  1.0000
  H   H923      1.0  0.47662  0.88892  0.14967  1.0000
  H   H924      1.0  0.47140  0.87308  0.15598  1.0000
  H   H925      1.0  0.44821  0.88240  0.23712  1.0000
  H   H926      1.0  0.46418  0.88807  0.22056  1.0000
  H   H927      1.0  0.45264  0.89405  0.11474  1.0000
  H   H928      1.0  0.44513  0.89386  0.17051  1.0000
  H   H929      1.0  0.44753  0.87259  0.12874  1.0000
  H   H930      1.0  0.45063  0.86258  0.17394  1.0000
  H   H931      1.0  0.47102  0.89350  0.07435  1.0000
  H   H932      1.0  0.48154  0.88455  0.07619  1.0000
  H   H933      1.0  0.46615  0.87714  0.08178  1.0000
  H   H934      1.0  0.46397  0.90650  0.17946  1.0000
  H   H935      1.0  0.46000  0.91356  0.12992  1.0000
  H   H936      1.0  0.47223  0.90680  0.12300  1.0000
  H   H937      1.0  0.43374  0.86649  0.23093  1.0000
  H   H938      1.0  0.42889  0.86063  0.18804  1.0000
  H   H939      1.0  0.43088  0.87656  0.18377  1.0000
  H   H940      1.0  0.29595  0.79173  0.22538  1.0000
  H   H941      1.0  0.42615  0.79853  0.10122  1.0000
  C   C580      1.0  0.38754  0.94248  0.11477  1.0000
  C   C581      1.0  0.36899  0.87010  0.04459  1.0000
  H   H942      1.0  0.45796  0.80048  0.05090  1.0000
  H   H943      1.0  0.35915  0.86720  0.92149  1.0000
  H   H944      1.0  0.43656  0.82775  0.13300  1.0000
  H   H945      1.0  0.44517  0.81777  0.11653  1.0000
  N   N37       1.0  0.41566  0.83939  0.51824  1.0000
  C   C582      1.0  0.41543  0.83372  0.56710  1.0000
  C   C583      1.0  0.42834  0.84138  0.48887  1.0000
  C   C584      1.0  0.40662  0.83035  0.50552  1.0000
  C   C585      1.0  0.41215  0.85122  0.51594  1.0000
  C   C586      1.0  0.40297  0.82981  0.60318  1.0000
  C   C587      1.0  0.43844  0.85072  0.49747  1.0000
  C   C588      1.0  0.40825  0.83159  0.45417  1.0000
  C   C589      1.0  0.41325  0.85944  0.46817  1.0000
  H   H946      1.0  0.41890  0.82543  0.56971  1.0000
  H   H947      1.0  0.42152  0.84017  0.57917  1.0000
  H   H948      1.0  0.42916  0.84449  0.45184  1.0000
  H   H949      1.0  0.43080  0.83251  0.49366  1.0000
  H   H950      1.0  0.40670  0.82074  0.52094  1.0000
  H   H951      1.0  0.39723  0.83078  0.51984  1.0000
  H   H952      1.0  0.40252  0.84928  0.53556  1.0000
  H   H953      1.0  0.41712  0.85693  0.53378  1.0000
  H   H954      1.0  0.40397  0.82538  0.63708  1.0000
  H   H955      1.0  0.39957  0.83783  0.60694  1.0000
  H   H956      1.0  0.39606  0.82300  0.59586  1.0000
  H   H957      1.0  0.43982  0.84745  0.53160  1.0000
  H   H958      1.0  0.44716  0.85185  0.47226  1.0000
  H   H959      1.0  0.43683  0.85993  0.49260  1.0000
  H   H960      1.0  0.40020  0.82539  0.45029  1.0000
  H   H961      1.0  0.41627  0.82871  0.43912  1.0000
  H   H962      1.0  0.40892  0.84092  0.43379  1.0000
  H   H963      1.0  0.40462  0.85705  0.45888  1.0000
  H   H964      1.0  0.42081  0.85918  0.44059  1.0000
  H   H965      1.0  0.41518  0.86919  0.46862  1.0000
  H   H966      1.0  0.41397  0.80754  0.42466  1.0000
  N   N38       1.0  0.44921  0.88274  0.90718  1.0000
  C   C590      1.0  0.45108  0.87371  0.94638  1.0000
  C   C591      1.0  0.43634  0.88343  0.92217  1.0000
  C   C592      1.0  0.45786  0.89508  0.89997  1.0000
  C   C593      1.0  0.45170  0.87839  0.86490  1.0000
  C   C594      1.0  0.46409  0.87252  0.94148  1.0000
  C   C595      1.0  0.42643  0.87117  0.93444  1.0000
  C   C596      1.0  0.45759  0.90585  0.86159  1.0000
  C   C597      1.0  0.44583  0.88316  0.82706  1.0000
  H   H967      1.0  0.44820  0.87606  0.97907  1.0000
  H   H968      1.0  0.44535  0.86427  0.95175  1.0000
  H   H969      1.0  0.43419  0.89016  0.89630  1.0000
  H   H970      1.0  0.43498  0.88695  0.95267  1.0000
  H   H971      1.0  0.45635  0.89786  0.93215  1.0000
  H   H972      1.0  0.46742  0.89464  0.89111  1.0000
  H   H973      1.0  0.46162  0.88074  0.84881  1.0000
  H   H974      1.0  0.44850  0.86819  0.87449  1.0000
  H   H975      1.0  0.46805  0.87104  0.90832  1.0000
  H   H976      1.0  0.47011  0.88063  0.94611  1.0000
  H   H977      1.0  0.46393  0.86445  0.96874  1.0000
  H   H978      1.0  0.42776  0.86629  0.90789  1.0000
  H   H979      1.0  0.42590  0.86505  0.96805  1.0000
  H   H980      1.0  0.41747  0.87305  0.93765  1.0000
  H   H981      1.0  0.46121  0.90466  0.82744  1.0000
  H   H982      1.0  0.46370  0.91441  0.86291  1.0000
  H   H983      1.0  0.44850  0.90739  0.86532  1.0000
  H   H984      1.0  0.45230  0.88486  0.79308  1.0000
  H   H985      1.0  0.44337  0.89181  0.82698  1.0000
  H   H986      1.0  0.43771  0.87603  0.82836  1.0000
  C   C598      1.0  0.36369  0.85651  0.07314  1.0000
  H   H987      1.0  0.46646  0.86664  0.23142  1.0000
  H   H988      1.0  0.45758  0.86891  0.28125  1.0000
  S   S190      1.0  0.48437  0.94145  0.00273  1.0000
  H   H989      1.0  0.47020  0.95130  0.94614  1.0000
  H   H990      1.0  0.32652  0.79203  0.12250  1.0000
  S   S191      1.0  0.41221  0.77083  0.11631  1.0000
  H   H991      1.0  0.34380  0.80696  0.69134  1.0000
  C   C599      1.0  0.43648  0.82007  0.11722  1.0000
  H   H992      1.0  0.42878  0.81225  0.14002  1.0000
  H   H993      1.0  0.38233  0.79042  0.13655  1.0000
  C   C600      1.0  0.45668  0.94239  0.89291  1.0000
  H   H994      1.0  0.47278  0.82823  0.71218  1.0000
  H   H995      1.0  0.41975  0.93078  0.10071  1.0000
  H   H996      1.0  0.36048  0.88305  0.92076  1.0000
  H   H997      1.0  0.48031  0.82670  0.75451  1.0000
  H   H998      1.0  0.38280  0.76169  0.39834  1.0000
  H   H999      1.0  0.37625  0.90501  0.96742  1.0000
  H   H1000     1.0  0.48300  0.82654  0.28269  1.0000
  C   C601      1.0  0.29000  0.76808  0.16490  1.0000
  H   H1001     1.0  0.45559  0.93931  0.93017  1.0000
  H   H1002     1.0  0.44771  0.93852  0.88820  1.0000
  H   H1003     1.0  0.29904  0.78911  0.06710  1.0000
  H   H1004     1.0  0.38684  0.92815  0.03299  1.0000
  H   H1005     1.0  0.40821  0.80747  0.05241  1.0000
  C   C602      1.0  0.37778  0.93002  0.13710  1.0000
  H   H1006     1.0  0.42446  0.80336  0.38345  1.0000
  S   S192      1.0  0.48673  0.88425  0.82454  1.0000
  C   C603      1.0  0.41154  0.80466  0.08261  1.0000
  C   C604      1.0  0.37252  0.79732  0.90491  1.0000
  H   H1007     1.0  0.46310  0.93836  0.87370  1.0000
  C   C605      1.0  0.29729  0.79105  0.13834  1.0000
  H   H1008     1.0  0.31999  0.79729  0.07703  1.0000
  H   H1009     1.0  0.42428  0.87256  0.64555  1.0000
  H   H1010     1.0  0.47875  0.96524  0.98271  1.0000
  S   S193      1.0  0.49495  0.91348  0.05212  1.0000
  C   C606      1.0  0.42447  0.80319  0.06898  1.0000
  H   H1011     1.0  0.42425  0.79644  0.04867  1.0000
  H   H1012     1.0  0.37129  0.77917  0.80171  1.0000
  C   C607      1.0  0.37013  0.79470  0.83111  1.0000
  H   H1013     1.0  0.40206  0.93976  0.16625  1.0000
  H   H1014     1.0  0.49445  0.80791  0.71263  1.0000
  C   C608      1.0  0.43652  0.77764  0.27058  1.0000
  H   H1015     1.0  0.30813  0.77538  0.08958  1.0000
  N   N39       1.0  0.33315  0.81801  0.66195  1.0000
  H   H1016     1.0  0.39841  0.92445  0.08047  1.0000
  H   H1017     1.0  0.42157  0.87524  0.76496  1.0000
  C   C609      1.0  0.47576  0.83132  0.20282  1.0000
  H   H1018     1.0  0.44265  0.79199  0.06130  1.0000
  H   H1019     1.0  0.40529  0.79558  0.10354  1.0000
  C   C610      1.0  0.44842  0.80075  0.06253  1.0000
  H   H1020     1.0  0.36518  0.80206  0.90801  1.0000
  C   C611      1.0  0.49178  0.83186  0.68521  1.0000
  H   H1021     1.0  0.39816  0.76741  0.36371  1.0000
  C   C612      1.0  0.43350  0.84380  0.66724  1.0000
  H   H1022     1.0  0.44296  0.83937  0.97696  1.0000
  H   H1023     1.0  0.41082  0.81107  0.10392  1.0000
  H   H1024     1.0  0.44665  0.80105  0.09841  1.0000
  C   C613      1.0  0.49349  0.88833  0.86745  1.0000
  C   C614      1.0  0.43513  0.82425  0.06873  1.0000
  H   H1025     1.0  0.42695  0.82773  0.07184  1.0000
  H   H1026     1.0  0.36377  0.80056  0.83337  1.0000
  H   H1027     1.0  0.45838  0.88500  0.61589  1.0000
  C   C615      1.0  0.37646  0.88612  0.97146  1.0000
  C   C616      1.0  0.41734  0.79984  0.41659  1.0000
  N   N40       1.0  0.43445  0.81479  0.04264  1.0000
  H   H1028     1.0  0.39382  0.78066  0.17840  1.0000
  H   H1029     1.0  0.37900  0.80124  0.81085  1.0000
  H   H1030     1.0  0.28660  0.79466  0.08964  1.0000
  C   C617      1.0  0.50447  0.88448  0.92491  1.0000
  H   H1031     1.0  0.36188  0.89545  0.97096  1.0000
  H   H1032     1.0  0.42174  0.79657  0.44323  1.0000
  C   C618      1.0  0.33876  0.79928  0.63940  1.0000
  C   C619      1.0  0.44652  0.81189  0.02999  1.0000
  H   H1033     1.0  0.44294  0.83245  0.04987  1.0000
  H   H1034     1.0  0.37229  0.79267  0.94046  1.0000
  C   C620      1.0  0.38885  0.86539  0.97696  1.0000
  H   H1035     1.0  0.50368  0.99107  0.01099  1.0000
  S   S194      1.0  0.43125  0.78206  0.18566  1.0000
  H   H1036     1.0  0.39452  0.80522  0.34112  1.0000
  Fe  Fe98      1.0  0.42534  0.76593  0.15528  1.0000
  C   C621      1.0  0.43154  0.82012  0.99890  1.0000
  C   C622      1.0  0.40883  0.95451  0.07804  1.0000
  H   H1037     1.0  0.44806  0.80981  0.99650  1.0000
  H   H1038     1.0  0.49030  0.90623  0.85432  1.0000
  H   H1039     1.0  0.38240  0.77138  0.11114  1.0000
  C   C623      1.0  0.43939  0.96870  0.96212  1.0000
  C   C624      1.0  0.40374  0.93527  0.13831  1.0000
  H   H1040     1.0  0.40048  0.93774  0.99224  1.0000
  H   H1041     1.0  0.42956  0.81295  0.98108  1.0000
  H   H1042     1.0  0.45421  0.82001  0.02494  1.0000
  H   H1043     1.0  0.43644  0.97255  0.93299  1.0000
  H   H1044     1.0  0.34604  0.87194  0.94180  1.0000
  C   C625      1.0  0.34382  0.83989  0.60607  1.0000
  H   H1045     1.0  0.41117  0.93641  0.04390  1.0000
  H   H1046     1.0  0.37895  0.88809  0.93366  1.0000
  H   H1047     1.0  0.40685  0.81129  0.36017  1.0000
  H   H1048     1.0  0.39248  0.80352  0.44280  1.0000
  C   C626      1.0  0.39007  0.78127  0.38790  1.0000
  H   H1049     1.0  0.38444  0.94776  0.08771  1.0000
  H   H1050     1.0  0.39510  0.87468  0.95981  1.0000
  H   H1051     1.0  0.38895  0.86246  0.01312  1.0000
  C   C627      1.0  0.39852  0.80355  0.37018  1.0000
  H   H1052     1.0  0.41838  0.80016  0.32380  1.0000
  H   H1053     1.0  0.33148  0.79781  0.62228  1.0000
  C   C628      1.0  0.33593  0.80584  0.67671  1.0000
  C   C629      1.0  0.45058  0.97197  0.01784  1.0000
  H   H1054     1.0  0.41784  0.92819  0.16059  1.0000
  H   H1055     1.0  0.39078  0.94458  0.02337  1.0000
  C   C630      1.0  0.40695  0.78913  0.41707  1.0000
  H   H1056     1.0  0.39990  0.78666  0.45040  1.0000
  C   C631      1.0  0.49407  0.90001  0.87444  1.0000
  H   H1057     1.0  0.44112  0.84109  0.67836  1.0000
  H   H1058     1.0  0.42593  0.83528  0.67754  1.0000
  H   H1059     1.0  0.39796  0.96434  0.04127  1.0000
  H   H1060     1.0  0.43834  0.83393  0.93277  1.0000
  H   H1061     1.0  0.36729  0.89452  0.02116  1.0000
  C   C632      1.0  0.39168  0.76821  0.39378  1.0000
  C   C633      1.0  0.38957  0.80513  0.41112  1.0000
  H   H1062     1.0  0.38892  0.81475  0.40248  1.0000
  H   H1063     1.0  0.42003  0.85269  0.69056  1.0000
  N   N41       1.0  0.36958  0.87281  0.99447  1.0000
  N   N42       1.0  0.40153  0.79139  0.37752  1.0000
  C   C634      1.0  0.41071  0.79170  0.33474  1.0000
  H   H1064     1.0  0.41071  0.78106  0.41830  1.0000
  H   H1065     1.0  0.38029  0.79916  0.41790  1.0000
  H   H1066     1.0  0.37056  0.85510  0.98437  1.0000
  H   H1067     1.0  0.38526  0.88830  0.97976  1.0000
  H   H1068     1.0  0.39242  0.80346  0.88908  1.0000
  H   H1069     1.0  0.41497  0.78402  0.34111  1.0000
  H   H1070     1.0  0.46703  0.79769  0.69996  1.0000
  C   C635      1.0  0.35577  0.87336  0.94053  1.0000
  C   C636      1.0  0.42949  0.85300  0.69181  1.0000
  H   H1071     1.0  0.41554  0.86270  0.74504  1.0000
  H   H1072     1.0  0.36865  0.93162  0.14236  1.0000
  H   H1073     1.0  0.42880  0.84887  0.72832  1.0000
  H   H1074     1.0  0.43611  0.84725  0.62957  1.0000
  H   H1075     1.0  0.32613  0.76483  0.32269  1.0000
  C   C637      1.0  0.29611  0.79482  0.08895  1.0000
  C   C638      1.0  0.40593  0.79126  0.29272  1.0000
  C   C639      1.0  0.43421  0.87353  0.63628  1.0000
  C   C640      1.0  0.42211  0.87190  0.73415  1.0000
  C   C641      1.0  0.43706  0.87031  0.59052  1.0000
  H   H1076     1.0  0.44574  0.86794  0.58214  1.0000
  C   C642      1.0  0.36995  0.89566  0.98388  1.0000
  Fe  Fe99      1.0  0.42393  0.76727  0.05663  1.0000
  H   H1077     1.0  0.42322  0.82329  0.00600  1.0000
  H   H1078     1.0  0.35652  0.78211  0.81243  1.0000
  H   H1079     1.0  0.35268  0.84507  0.58058  1.0000
  N   N43       1.0  0.43749  0.86607  0.67544  1.0000
  H   H1080     1.0  0.41924  0.87838  0.70963  1.0000
  H   H1081     1.0  0.50007  0.80556  0.24626  1.0000
  H   H1082     1.0  0.36871  0.79212  0.76545  1.0000
  H   H1083     1.0  0.49051  0.96968  0.84353  1.0000
  Fe  Fe100     1.0  0.47091  0.00194  0.02703  1.0000
  H   H1084     1.0  0.38713  0.94776  0.14055  1.0000
  C   C643      1.0  0.43529  0.87166  0.71472  1.0000
  H   H1085     1.0  0.43824  0.88357  0.62961  1.0000
  C   C644      1.0  0.35524  0.77270  0.95324  1.0000
  H   H1086     1.0  0.30013  0.78098  0.26500  1.0000
  H   H1087     1.0  0.43812  0.86671  0.74384  1.0000
  H   H1088     1.0  0.43816  0.87855  0.56214  1.0000
  C   C645      1.0  0.36646  0.78640  0.80142  1.0000
  C   C646      1.0  0.48693  0.95073  0.87857  1.0000
  S   S195      1.0  0.46008  0.98154  0.04150  1.0000
  C   C647      1.0  0.45069  0.86621  0.66357  1.0000
  H   H1089     1.0  0.45297  0.86145  0.63721  1.0000
  H   H1090     1.0  0.40838  0.95947  0.10480  1.0000
  C   C648      1.0  0.31102  0.77797  0.11824  1.0000
  H   H1091     1.0  0.48045  0.98314  0.86636  1.0000
  H   H1092     1.0  0.44081  0.88138  0.70466  1.0000
  H   H1093     1.0  0.45276  0.86089  0.69391  1.0000
  H   H1094     1.0  0.30405  0.79888  0.14173  1.0000
  C   C649      1.0  0.38592  0.77255  0.19726  1.0000
  N   N44       1.0  0.30064  0.77926  0.15333  1.0000
  H   H1095     1.0  0.47410  0.99194  0.80332  1.0000
  C   C650      1.0  0.44657  0.97670  0.98026  1.0000
  H   H1096     1.0  0.38376  0.80236  0.18230  1.0000
  H   H1097     1.0  0.41838  0.95421  0.06722  1.0000
  H   H1098     1.0  0.49419  0.94904  0.85333  1.0000
  H   H1099     1.0  0.38354  0.78082  0.42037  1.0000
  H   H1100     1.0  0.36335  0.87524  0.06171  1.0000
  H   H1101     1.0  0.36385  0.85583  0.10908  1.0000
  N   N45       1.0  0.40030  0.94171  0.09733  1.0000
  C   C651      1.0  0.40710  0.96284  0.03552  1.0000
  H   H1102     1.0  0.39961  0.78223  0.29761  1.0000
  H   H1103     1.0  0.46917  0.87796  0.63437  1.0000
  C   C652      1.0  0.28319  0.76709  0.12842  1.0000
  H   H1104     1.0  0.39802  0.92558  0.15299  1.0000
  H   H1105     1.0  0.50164  0.97454  0.03176  1.0000
  H   H1106     1.0  0.48174  0.89266  0.26883  1.0000
  C   C653      1.0  0.47307  0.80726  0.68934  1.0000
  H   H1107     1.0  0.38525  0.78316  0.36123  1.0000
  H   H1108     1.0  0.48303  0.79464  0.74748  1.0000
  H   H1109     1.0  0.40931  0.95937  0.00528  1.0000
  H   H1110     1.0  0.37718  0.86759  0.93432  1.0000
  H   H1111     1.0  0.37843  0.92548  0.17139  1.0000
  H   H1112     1.0  0.46657  0.82555  0.22354  1.0000
  H   H1113     1.0  0.28851  0.79067  0.16187  1.0000
  H   H1114     1.0  0.48605  0.79363  0.20962  1.0000
  H   H1115     1.0  0.44904  0.98654  0.96508  1.0000
  C   C654      1.0  0.39438  0.93650  0.02656  1.0000
  H   H1116     1.0  0.37811  0.87340  0.04930  1.0000
  C   C655      1.0  0.45992  0.87903  0.64587  1.0000
  H   H1117     1.0  0.36911  0.85054  0.06115  1.0000
  C   C656      1.0  0.35685  0.87021  0.98999  1.0000
  H   H1118     1.0  0.35202  0.86029  0.00546  1.0000
  H   H1119     1.0  0.39255  0.85908  0.95950  1.0000
  H   H1120     1.0  0.35409  0.85288  0.07434  1.0000
  H   H1121     1.0  0.49059  0.81650  0.63554  1.0000
  C   C657      1.0  0.37604  0.86489  0.97187  1.0000
  H   H1122     1.0  0.35140  0.87506  0.00962  1.0000
  H   H1123     1.0  0.41366  0.97204  0.02661  1.0000
  H   H1124     1.0  0.45400  0.81686  0.74630  1.0000
  H   H1125     1.0  0.46010  0.88368  0.67316  1.0000
  H   H1126     1.0  0.37819  0.92364  0.11559  1.0000
  C   C658      1.0  0.40147  0.93450  0.06273  1.0000
  H   H1127     1.0  0.30603  0.82210  0.66610  1.0000
  H   H1128     1.0  0.35239  0.82712  0.63805  1.0000
  H   H1129     1.0  0.44963  0.80135  0.74261  1.0000
  N   N46       1.0  0.47634  0.81052  0.73013  1.0000
  H   H1130     1.0  0.48137  0.95969  0.82170  1.0000
  H   H1131     1.0  0.46356  0.79494  0.78417  1.0000
  H   H1132     1.0  0.48882  0.97051  0.92566  1.0000
  C   C659      1.0  0.48997  0.80704  0.78357  1.0000
  C   C660      1.0  0.34420  0.82659  0.62530  1.0000
  H   H1133     1.0  0.38060  0.80139  0.24135  1.0000
  H   H1134     1.0  0.44624  0.80445  0.79675  1.0000
  C   C661      1.0  0.48607  0.80478  0.74146  1.0000
  C   C662      1.0  0.49969  0.90386  0.90655  1.0000
  H   H1135     1.0  0.33018  0.83223  0.69515  1.0000
  C   C663      1.0  0.36348  0.76425  0.21728  1.0000
  N   N47       1.0  0.48702  0.81596  0.23507  1.0000
  H   H1136     1.0  0.34757  0.80419  0.61364  1.0000
  C   C664      1.0  0.33116  0.82280  0.70330  1.0000
  C   C665      1.0  0.46521  0.80508  0.77098  1.0000
  H   H1137     1.0  0.48094  0.81761  0.17361  1.0000
  H   H1138     1.0  0.34602  0.82310  0.59486  1.0000
  H   H1139     1.0  0.33955  0.79005  0.65572  1.0000
  C   C666      1.0  0.32013  0.81499  0.74412  1.0000
  H   H1140     1.0  0.47766  0.97842  0.94391  1.0000
  H   H1141     1.0  0.32487  0.81492  0.60864  1.0000
  H   H1142     1.0  0.39458  0.76509  0.42487  1.0000
  H   H1143     1.0  0.48775  0.99874  0.22561  1.0000
  H   H1144     1.0  0.33931  0.82367  0.71623  1.0000
  C   C667      1.0  0.32223  0.81598  0.64376  1.0000
  C   C668      1.0  0.37422  0.78238  0.15239  1.0000
  H   H1145     1.0  0.32908  0.78696  0.07244  1.0000
  H   H1146     1.0  0.31549  0.80711  0.66488  1.0000
  C   C669      1.0  0.47991  0.82425  0.72227  1.0000
  C   C670      1.0  0.45318  0.80716  0.76309  1.0000
  C   C671      1.0  0.37421  0.77473  0.11776  1.0000
  H   H1147     1.0  0.31968  0.83450  0.64780  1.0000
  H   H1148     1.0  0.49918  0.82691  0.31663  1.0000
  H   H1149     1.0  0.28918  0.76819  0.09422  1.0000
  C   C672      1.0  0.49939  0.88559  0.18226  1.0000
  S   S196      1.0  0.43750  0.76297  0.09374  1.0000
  C   C673      1.0  0.39158  0.78613  0.84050  1.0000
  H   H1150     1.0  0.28295  0.76746  0.19607  1.0000
  H   H1151     1.0  0.36620  0.78613  0.15355  1.0000
  C   C674      1.0  0.47591  0.79623  0.30311  1.0000
  N   N48       1.0  0.37406  0.77572  0.20011  1.0000
  H   H1152     1.0  0.47425  0.79905  0.33512  1.0000
  H   H1153     1.0  0.48776  0.80006  0.65824  1.0000
  H   H1154     1.0  0.36596  0.76687  0.12847  1.0000
  H   H1155     1.0  0.49008  0.83471  0.65130  1.0000
  H   H1156     1.0  0.27763  0.77368  0.12604  1.0000
  H   H1157     1.0  0.28698  0.77579  0.24780  1.0000
  H   H1158     1.0  0.50191  0.79742  0.18229  1.0000
  H   H1159     1.0  0.49753  0.80290  0.78718  1.0000
  H   H1160     1.0  0.49304  0.80601  0.15682  1.0000
  C   C675      1.0  0.49709  0.81051  0.21801  1.0000
  H   H1161     1.0  0.35422  0.77887  0.97539  1.0000
  H   H1162     1.0  0.38124  0.77843  0.91174  1.0000
  H   H1163     1.0  0.35567  0.76600  0.20467  1.0000
  H   H1164     1.0  0.49550  0.84033  0.69423  1.0000
  C   C676      1.0  0.49815  0.82032  0.29589  1.0000
  H   H1165     1.0  0.49255  0.00662  0.16617  1.0000
  H   H1166     1.0  0.39800  0.76850  0.23860  1.0000
  C   C677      1.0  0.49417  0.80141  0.19017  1.0000
  H   H1167     1.0  0.50491  0.88964  0.14717  1.0000
  C   C678      1.0  0.38808  0.76625  0.24249  1.0000
  Fe  Fe101     1.0  0.50414  0.91777  0.10406  1.0000
  H   H1168     1.0  0.38419  0.76947  0.27158  1.0000
  C   C679      1.0  0.49455  0.00672  0.19917  1.0000
  C   C680      1.0  0.32520  0.76121  0.21784  1.0000
  H   H1169     1.0  0.50308  0.86796  0.18736  1.0000
  H   H1170     1.0  0.35352  0.76477  0.28517  1.0000
  C   C681      1.0  0.29628  0.78204  0.23532  1.0000
  Fe  Fe102     1.0  0.67645  0.18637  0.97179  1.0000
  S   S197      1.0  0.65789  0.18375  0.01663  1.0000
  S   S198      1.0  0.67643  0.17093  0.93634  1.0000
  Fe  Fe103     1.0  0.68777  0.20995  0.99953  1.0000
  S   S199      1.0  0.66919  0.20859  0.04325  1.0000
  Fe  Fe104     1.0  0.66699  0.18834  0.06867  1.0000
  S   S200      1.0  0.65757  0.18038  0.14471  1.0000
  Fe  Fe105     1.0  0.66153  0.20398  0.98752  1.0000
  S   S201      1.0  0.64686  0.21117  0.96298  1.0000
  S   S202      1.0  0.68567  0.18947  0.02722  1.0000
  S   S203      1.0  0.68004  0.20683  0.94051  1.0000
  Fe  Fe106     1.0  0.57310  0.19811  0.91947  1.0000
  S   S204      1.0  0.57082  0.18895  0.99330  1.0000
  S   S205      1.0  0.57831  0.21927  0.89267  1.0000
  Fe  Fe107     1.0  0.56869  0.17295  0.89443  1.0000
  S   S206      1.0  0.56646  0.16261  0.96738  1.0000
  S   S207      1.0  0.56865  0.16003  0.84728  1.0000
  Fe  Fe108     1.0  0.55531  0.17484  0.98764  1.0000
  S   S208      1.0  0.53677  0.16794  0.03856  1.0000
  Fe  Fe109     1.0  0.58226  0.17759  0.96606  1.0000
  S   S209      1.0  0.59642  0.17221  0.99877  1.0000
  S   S210      1.0  0.55657  0.18468  0.91502  1.0000
  S   S211      1.0  0.58552  0.18727  0.89205  1.0000
  Fe  Fe110     1.0  0.63329  0.11627  0.31318  1.0000
  S   S212      1.0  0.62936  0.09770  0.36395  1.0000
  S   S213      1.0  0.65111  0.12564  0.25870  1.0000
  Fe  Fe111     1.0  0.60710  0.11622  0.33792  1.0000
  S   S214      1.0  0.60130  0.09797  0.39063  1.0000
  S   S215      1.0  0.59304  0.12582  0.32454  1.0000
  Fe  Fe112     1.0  0.61782  0.10535  0.41284  1.0000
  S   S216      1.0  0.61476  0.10205  0.49106  1.0000
  Fe  Fe113     1.0  0.61320  0.09218  0.33704  1.0000
  S   S217      1.0  0.60768  0.07401  0.31839  1.0000
  S   S218      1.0  0.62266  0.12414  0.36282  1.0000
  S   S219      1.0  0.61819  0.11021  0.28365  1.0000
  Fe  Fe114     1.0  0.64048  0.13784  0.77909  1.0000
  S   S220      1.0  0.62804  0.12180  0.83678  1.0000
  S   S221      1.0  0.64945  0.15609  0.79101  1.0000
  Fe  Fe115     1.0  0.63546  0.12467  0.70394  1.0000
  S   S222      1.0  0.62335  0.10760  0.75780  1.0000
  S   S223      1.0  0.63867  0.12789  0.62579  1.0000
  Fe  Fe116     1.0  0.61584  0.12066  0.79105  1.0000
  S   S224      1.0  0.59585  0.11809  0.81478  1.0000
  Fe  Fe117     1.0  0.63667  0.11027  0.79833  1.0000
  S   S225      1.0  0.64266  0.09441  0.83359  1.0000
  S   S226      1.0  0.62728  0.13766  0.73618  1.0000
  S   S227      1.0  0.64991  0.12637  0.74179  1.0000
  Fe  Fe118     1.0  0.52242  0.10752  0.23732  1.0000
  C   C682      1.0  0.52572  0.13562  0.30786  1.0000
  S   S228      1.0  0.51426  0.12319  0.21963  1.0000
  Fe  Fe119     1.0  0.54502  0.09926  0.22899  1.0000
  S   S229      1.0  0.53510  0.08012  0.27246  1.0000
  S   S230      1.0  0.56502  0.10394  0.19783  1.0000
  Fe  Fe120     1.0  0.52152  0.08123  0.23139  1.0000
  C   C683      1.0  0.55876  0.09584  0.09270  1.0000
  Fe  Fe121     1.0  0.52526  0.08953  0.31872  1.0000
  S   S231      1.0  0.52299  0.08435  0.39663  1.0000
  S   S232      1.0  0.53236  0.10009  0.18545  1.0000
  S   S233      1.0  0.53618  0.10851  0.27691  1.0000
  Fe  Fe122     1.0  0.53579  0.11870  0.70283  1.0000
  S   S234      1.0  0.54108  0.10224  0.73595  1.0000
  S   S235      1.0  0.53458  0.13366  0.74051  1.0000
  Fe  Fe123     1.0  0.53584  0.11011  0.61341  1.0000
  S   S236      1.0  0.54182  0.09369  0.64202  1.0000
  S   S237      1.0  0.53591  0.11494  0.53690  1.0000
  Fe  Fe124     1.0  0.52795  0.09124  0.70827  1.0000
  S   S238      1.0  0.51909  0.07106  0.74604  1.0000
  Fe  Fe125     1.0  0.55422  0.10617  0.66744  1.0000
  S   S239      1.0  0.57385  0.10673  0.65686  1.0000
  S   S240      1.0  0.52126  0.10734  0.67921  1.0000
  S   S241      1.0  0.54951  0.12298  0.63460  1.0000
  H   H1171     1.0  0.51281  0.13228  0.94519  1.0000
  H   H1172     1.0  0.54869  0.09230  0.04287  1.0000
  H   H1173     1.0  0.57292  0.13320  0.55142  1.0000
  H   H1174     1.0  0.53907  0.08956  0.10034  1.0000
  H   H1175     1.0  0.57576  0.13519  0.49083  1.0000
  H   H1176     1.0  0.57034  0.08211  0.99455  1.0000
  S   S242      1.0  0.57380  0.03157  0.01954  1.0000
  S   S243      1.0  0.60889  0.04396  0.97616  1.0000
  S   S244      1.0  0.58540  0.05603  0.05000  1.0000
  H   H1177     1.0  0.55978  0.07877  0.27113  1.0000
  C   C684      1.0  0.52395  0.03652  0.00581  1.0000
  C   C685      1.0  0.53268  0.04541  0.01376  1.0000
  H   H1178     1.0  0.63499  0.18725  0.02902  1.0000
  N   N49       1.0  0.68745  0.20578  0.16304  1.0000
  C   C686      1.0  0.55226  0.06499  0.39585  1.0000
  H   H1179     1.0  0.52990  0.05174  0.03174  1.0000
  H   H1180     1.0  0.60925  0.21662  0.06068  1.0000
  H   H1181     1.0  0.53925  0.14437  0.01150  1.0000
  H   H1182     1.0  0.56491  0.09222  0.31314  1.0000
  Fe  Fe126     1.0  0.56746  0.04621  0.04522  1.0000
  C   C687      1.0  0.54758  0.09539  0.07424  1.0000
  C   C688      1.0  0.53973  0.02893  0.96762  1.0000
  C   C689      1.0  0.70559  0.22486  0.14963  1.0000
  C   C690      1.0  0.57292  0.08521  0.02309  1.0000
  S   S245      1.0  0.55559  0.05621  0.01382  1.0000
  C   C691      1.0  0.54844  0.03751  0.97718  1.0000
  C   C692      1.0  0.69580  0.21333  0.18316  1.0000
  C   C693      1.0  0.52714  0.09301  0.43463  1.0000
  C   C694      1.0  0.52420  0.08701  0.48179  1.0000
  C   C695      1.0  0.52703  0.09344  0.51333  1.0000
  C   C696      1.0  0.53280  0.10607  0.49836  1.0000
  C   C697      1.0  0.53595  0.11204  0.45105  1.0000
  C   C698      1.0  0.53321  0.10559  0.41946  1.0000
  H   H1183     1.0  0.57857  0.06212  0.81558  1.0000
  H   H1184     1.0  0.52449  0.08865  0.54945  1.0000
  H   H1185     1.0  0.54047  0.12178  0.43878  1.0000
  H   H1186     1.0  0.53575  0.11038  0.38340  1.0000
  H   H1187     1.0  0.58190  0.08370  0.02399  1.0000
  Fe  Fe127     1.0  0.57985  0.04413  0.12304  1.0000
  H   H1188     1.0  0.54645  0.10481  0.06496  1.0000
  Fe  Fe128     1.0  0.59139  0.04048  0.03079  1.0000
  H   H1189     1.0  0.57012  0.12008  0.40104  1.0000
  H   H1190     1.0  0.58729  0.24572  0.86341  1.0000
  H   H1191     1.0  0.57369  0.09514  0.01383  1.0000
  C   C699      1.0  0.58362  0.24304  0.90023  1.0000
  H   H1192     1.0  0.56482  0.12509  0.44927  1.0000
  S   S246      1.0  0.58299  0.05710  0.16895  1.0000
  C   C700      1.0  0.63246  0.08076  0.87314  1.0000
  C   C701      1.0  0.62179  0.08060  0.90456  1.0000
  C   C702      1.0  0.61440  0.06943  0.93699  1.0000
  C   C703      1.0  0.61762  0.05841  0.93758  1.0000
  C   C704      1.0  0.62821  0.05870  0.90592  1.0000
  C   C705      1.0  0.63560  0.06977  0.87434  1.0000
  H   H1193     1.0  0.61943  0.08910  0.90464  1.0000
  H   H1194     1.0  0.60630  0.06932  0.96158  1.0000
  H   H1195     1.0  0.63081  0.05030  0.90613  1.0000
  H   H1196     1.0  0.64385  0.06978  0.85068  1.0000
  C   C706      1.0  0.58953  0.11462  0.77183  1.0000
  C   C707      1.0  0.59686  0.11352  0.73198  1.0000
  C   C708      1.0  0.59185  0.11063  0.69777  1.0000
  C   C709      1.0  0.57958  0.10943  0.70209  1.0000
  C   C710      1.0  0.57230  0.11097  0.74121  1.0000
  C   C711      1.0  0.57721  0.11336  0.77641  1.0000
  H   H1197     1.0  0.60647  0.11535  0.72627  1.0000
  H   H1198     1.0  0.59760  0.10974  0.66716  1.0000
  H   H1199     1.0  0.56298  0.11059  0.74420  1.0000
  H   H1200     1.0  0.57153  0.11454  0.80653  1.0000
  C   C712      1.0  0.58515  0.11976  0.28946  1.0000
  C   C713      1.0  0.57536  0.12391  0.28030  1.0000
  C   C714      1.0  0.56913  0.11916  0.25177  1.0000
  C   C715      1.0  0.57293  0.11054  0.23144  1.0000
  C   C716      1.0  0.58284  0.10659  0.23987  1.0000
  C   C717      1.0  0.58866  0.11089  0.26999  1.0000
  H   H1201     1.0  0.57255  0.13073  0.29540  1.0000
  H   H1202     1.0  0.56158  0.12239  0.24469  1.0000
  H   H1203     1.0  0.58564  0.09976  0.22475  1.0000
  H   H1204     1.0  0.59571  0.10714  0.27850  1.0000
  C   C718      1.0  0.62161  0.10942  0.52777  1.0000
  C   C719      1.0  0.63126  0.12017  0.51087  1.0000
  C   C720      1.0  0.63630  0.12561  0.54129  1.0000
  C   C721      1.0  0.63182  0.12048  0.58920  1.0000
  C   C722      1.0  0.62208  0.10982  0.60614  1.0000
  C   C723      1.0  0.61704  0.10436  0.57572  1.0000
  H   H1205     1.0  0.63492  0.12425  0.47431  1.0000
  H   H1206     1.0  0.64381  0.13384  0.52749  1.0000
  H   H1207     1.0  0.61847  0.10570  0.64269  1.0000
  H   H1208     1.0  0.60956  0.09611  0.58953  1.0000
  C   C724      1.0  0.60101  0.06962  0.27588  1.0000
  C   C725      1.0  0.59915  0.05739  0.27358  1.0000
  C   C726      1.0  0.59400  0.05348  0.24051  1.0000
  C   C727      1.0  0.59033  0.06166  0.20971  1.0000
  C   C728      1.0  0.59213  0.07388  0.21221  1.0000
  C   C729      1.0  0.59762  0.07788  0.24437  1.0000
  H   H1209     1.0  0.60176  0.05087  0.29747  1.0000
  H   H1210     1.0  0.59267  0.04405  0.23947  1.0000
  H   H1211     1.0  0.56638  0.10294  0.06615  1.0000
  H   H1212     1.0  0.59906  0.08732  0.24522  1.0000
  C   C730      1.0  0.57964  0.24885  0.97140  1.0000
  C   C731      1.0  0.54490  0.04575  0.00023  1.0000
  C   C732      1.0  0.57853  0.23045  0.92396  1.0000
  C   C733      1.0  0.57382  0.22717  0.97156  1.0000
  C   C734      1.0  0.57431  0.23629  0.99493  1.0000
  H   H1213     1.0  0.56977  0.21759  0.99043  1.0000
  H   H1214     1.0  0.57065  0.23357  0.03177  1.0000
  C   C735      1.0  0.55882  0.15267  0.81873  1.0000
  C   C736      1.0  0.56098  0.14235  0.80513  1.0000
  C   C737      1.0  0.55366  0.13638  0.78167  1.0000
  C   C738      1.0  0.54410  0.14071  0.77075  1.0000
  C   C739      1.0  0.54188  0.15096  0.78473  1.0000
  C   C740      1.0  0.54915  0.15689  0.80843  1.0000
  H   H1215     1.0  0.56836  0.13889  0.81292  1.0000
  H   H1216     1.0  0.55541  0.12840  0.77208  1.0000
  H   H1217     1.0  0.53454  0.15445  0.77665  1.0000
  H   H1218     1.0  0.54743  0.16491  0.81775  1.0000
  C   C741      1.0  0.53144  0.15538  0.08868  1.0000
  C   C742      1.0  0.53814  0.14712  0.10097  1.0000
  C   C743      1.0  0.53299  0.13702  0.14087  1.0000
  C   C744      1.0  0.52125  0.13531  0.16856  1.0000
  C   C745      1.0  0.51470  0.14360  0.15595  1.0000
  C   C746      1.0  0.51972  0.15349  0.11626  1.0000
  H   H1219     1.0  0.54723  0.14854  0.07995  1.0000
  H   H1220     1.0  0.53816  0.13069  0.15052  1.0000
  H   H1221     1.0  0.71053  0.20196  0.13433  1.0000
  H   H1222     1.0  0.51448  0.15978  0.10702  1.0000
  C   C747      1.0  0.66704  0.16700  0.90072  1.0000
  C   C748      1.0  0.66180  0.15454  0.90511  1.0000
  C   C749      1.0  0.65567  0.15105  0.87379  1.0000
  C   C750      1.0  0.65519  0.15995  0.83615  1.0000
  C   C751      1.0  0.66016  0.17241  0.83241  1.0000
  C   C752      1.0  0.66589  0.17592  0.86465  1.0000
  H   H1223     1.0  0.66263  0.14753  0.93270  1.0000
  H   H1224     1.0  0.65169  0.14145  0.87794  1.0000
  H   H1225     1.0  0.65986  0.17943  0.80366  1.0000
  H   H1226     1.0  0.66996  0.18553  0.86027  1.0000
  C   C753      1.0  0.65608  0.16515  0.17537  1.0000
  C   C754      1.0  0.64851  0.16054  0.22044  1.0000
  C   C755      1.0  0.64674  0.14836  0.24576  1.0000
  C   C756      1.0  0.65290  0.14083  0.22682  1.0000
  C   C757      1.0  0.66070  0.14551  0.18210  1.0000
  C   C758      1.0  0.66215  0.15760  0.15611  1.0000
  H   H1227     1.0  0.64390  0.16638  0.23573  1.0000
  H   H1228     1.0  0.64085  0.14489  0.28038  1.0000
  H   H1229     1.0  0.66559  0.13977  0.16741  1.0000
  H   H1230     1.0  0.66807  0.16111  0.12148  1.0000
  C   C759      1.0  0.63281  0.20034  0.97292  1.0000
  C   C760      1.0  0.62492  0.20301  0.94662  1.0000
  C   C761      1.0  0.61357  0.19460  0.95484  1.0000
  C   C762      1.0  0.61017  0.18339  0.98892  1.0000
  C   C763      1.0  0.61804  0.18074  0.01505  1.0000
  C   C764      1.0  0.62922  0.18924  0.00757  1.0000
  H   H1231     1.0  0.62761  0.21157  0.91974  1.0000
  H   H1232     1.0  0.60756  0.19672  0.93438  1.0000
  H   H1233     1.0  0.61548  0.17205  0.04115  1.0000
  N   N50       1.0  0.59731  0.15068  0.64673  1.0000
  C   C765      1.0  0.58517  0.15284  0.64500  1.0000
  C   C766      1.0  0.60676  0.16294  0.62906  1.0000
  C   C767      1.0  0.59720  0.14473  0.69490  1.0000
  C   C768      1.0  0.60001  0.14220  0.61812  1.0000
  C   C769      1.0  0.57403  0.14155  0.66758  1.0000
  C   C770      1.0  0.61029  0.16895  0.57696  1.0000
  C   C771      1.0  0.59375  0.15170  0.73021  1.0000
  C   C772      1.0  0.61246  0.13945  0.61375  1.0000
  H   H1234     1.0  0.58345  0.16018  0.66104  1.0000
  H   H1235     1.0  0.58504  0.15628  0.60897  1.0000
  H   H1236     1.0  0.61524  0.16233  0.63866  1.0000
  H   H1237     1.0  0.60364  0.16972  0.64556  1.0000
  H   H1238     1.0  0.59091  0.13537  0.70777  1.0000
  H   H1239     1.0  0.60624  0.14338  0.69601  1.0000
  H   H1240     1.0  0.59320  0.13308  0.63270  1.0000
  H   H1241     1.0  0.59895  0.14542  0.58326  1.0000
  H   H1242     1.0  0.56570  0.14439  0.66476  1.0000
  H   H1243     1.0  0.57434  0.13419  0.65048  1.0000
  H   H1244     1.0  0.57285  0.13777  0.70456  1.0000
  H   H1245     1.0  0.60233  0.17015  0.56481  1.0000
  H   H1246     1.0  0.61664  0.17823  0.56860  1.0000
  H   H1247     1.0  0.61512  0.16366  0.55758  1.0000
  H   H1248     1.0  0.59371  0.14621  0.76438  1.0000
  H   H1249     1.0  0.58452  0.15291  0.73363  1.0000
  H   H1250     1.0  0.60042  0.16074  0.72211  1.0000
  H   H1251     1.0  0.61193  0.13146  0.64210  1.0000
  H   H1252     1.0  0.61980  0.14725  0.61316  1.0000
  H   H1253     1.0  0.61545  0.13734  0.58078  1.0000
  H   H1254     1.0  0.56073  0.13108  0.52667  1.0000
  N   N51       1.0  0.61460  0.15223  0.17771  1.0000
  C   C773      1.0  0.60574  0.15431  0.21618  1.0000
  C   C774      1.0  0.60826  0.15003  0.14201  1.0000
  C   C775      1.0  0.62548  0.16325  0.15576  1.0000
  C   C776      1.0  0.61889  0.14137  0.19705  1.0000
  C   C777      1.0  0.61088  0.15793  0.25418  1.0000
  C   C778      1.0  0.59871  0.13752  0.15504  1.0000
  C   C779      1.0  0.62275  0.17562  0.13892  1.0000
  C   C780      1.0  0.62778  0.13755  0.16222  1.0000
  H   H1255     1.0  0.60140  0.16145  0.20287  1.0000
  H   H1256     1.0  0.59811  0.14586  0.23371  1.0000
  H   H1257     1.0  0.61484  0.15105  0.10887  1.0000
  H   H1258     1.0  0.60345  0.15716  0.13356  1.0000
  H   H1259     1.0  0.63111  0.16441  0.17948  1.0000
  H   H1260     1.0  0.63162  0.16191  0.12570  1.0000
  H   H1261     1.0  0.62382  0.14331  0.22231  1.0000
  H   H1262     1.0  0.61118  0.13320  0.21776  1.0000
  H   H1263     1.0  0.61841  0.16651  0.24101  1.0000
  H   H1264     1.0  0.60356  0.15958  0.27929  1.0000
  H   H1265     1.0  0.61383  0.15044  0.27365  1.0000
  H   H1266     1.0  0.59428  0.13723  0.12717  1.0000
  H   H1267     1.0  0.60281  0.12972  0.15914  1.0000
  H   H1268     1.0  0.59145  0.13615  0.18651  1.0000
  H   H1269     1.0  0.61795  0.17853  0.16757  1.0000
  H   H1270     1.0  0.61751  0.17544  0.11357  1.0000
  H   H1271     1.0  0.63149  0.18284  0.12162  1.0000
  H   H1272     1.0  0.63728  0.14282  0.15700  1.0000
  H   H1273     1.0  0.62593  0.13881  0.12853  1.0000
  H   H1274     1.0  0.62688  0.12759  0.17528  1.0000
  N   N52       1.0  0.57757  0.11139  0.50454  1.0000
  C   C781      1.0  0.57795  0.09879  0.52975  1.0000
  C   C782      1.0  0.59032  0.11967  0.49096  1.0000
  C   C783      1.0  0.57380  0.11035  0.46208  1.0000
  C   C784      1.0  0.56853  0.11554  0.53564  1.0000
  C   C785      1.0  0.56627  0.08823  0.54154  1.0000
  C   C786      1.0  0.59551  0.12149  0.53107  1.0000
  C   C787      1.0  0.57246  0.12211  0.43162  1.0000
  C   C788      1.0  0.56981  0.12953  0.52481  1.0000
  H   H1275     1.0  0.58548  0.09597  0.50999  1.0000
  H   H1276     1.0  0.57990  0.09886  0.56302  1.0000
  H   H1277     1.0  0.59128  0.12891  0.46899  1.0000
  H   H1278     1.0  0.59667  0.11601  0.46909  1.0000
  H   H1279     1.0  0.58030  0.10686  0.44020  1.0000
  H   H1280     1.0  0.56475  0.10365  0.47107  1.0000
  H   H1281     1.0  0.55913  0.11089  0.53672  1.0000
  H   H1282     1.0  0.56894  0.11253  0.57150  1.0000
  H   H1283     1.0  0.56692  0.08015  0.56686  1.0000
  H   H1284     1.0  0.55804  0.09067  0.55720  1.0000
  H   H1285     1.0  0.56522  0.08523  0.51099  1.0000
  H   H1286     1.0  0.59716  0.11296  0.54956  1.0000
  H   H1287     1.0  0.60445  0.12848  0.51732  1.0000
  H   H1288     1.0  0.58957  0.12468  0.55586  1.0000
  H   H1289     1.0  0.58096  0.12969  0.41863  1.0000
  H   H1290     1.0  0.70692  0.23220  0.16703  1.0000
  S   S247      1.0  0.70271  0.22712  0.99991  1.0000
  C   C789      1.0  0.52170  0.13129  0.95007  1.0000
  H   H1291     1.0  0.57692  0.07759  0.12194  1.0000
  H   H1292     1.0  0.58645  0.09875  0.06109  1.0000
  C   C790      1.0  0.58422  0.25216  0.92370  1.0000
  C   C791      1.0  0.69382  0.20469  0.11727  1.0000
  H   H1293     1.0  0.55723  0.09972  0.12226  1.0000
  H   H1294     1.0  0.55443  0.07470  0.06066  1.0000
  C   C792      1.0  0.68574  0.15913  0.73143  1.0000
  H   H1295     1.0  0.51774  0.06173  0.10195  1.0000
  C   C793      1.0  0.52005  0.06471  0.88367  1.0000
  N   N53       1.0  0.61421  0.23231  0.00045  1.0000
  H   H1296     1.0  0.70090  0.20758  0.20025  1.0000
  H   H1297     1.0  0.57022  0.06228  0.33439  1.0000
  C   C794      1.0  0.56822  0.07126  0.32350  1.0000
  C   C795      1.0  0.56047  0.06977  0.29014  1.0000
  H   H1298     1.0  0.56503  0.06587  0.26403  1.0000
  H   H1299     1.0  0.54302  0.07263  0.13395  1.0000
  H   H1300     1.0  0.72143  0.22088  0.04444  1.0000
  H   H1301     1.0  0.67034  0.20472  0.14704  1.0000
  S   S248      1.0  0.51842  0.06888  0.18385  1.0000
  H   H1302     1.0  0.51633  0.04585  0.92686  1.0000
  H   H1303     1.0  0.51057  0.06192  0.88213  1.0000
  H   H1304     1.0  0.70355  0.22896  0.11775  1.0000
  H   H1305     1.0  0.52217  0.08691  0.82204  1.0000
  H   H1306     1.0  0.69045  0.21635  0.21049  1.0000
  H   H1307     1.0  0.53119  0.12866  0.02406  1.0000
  H   H1308     1.0  0.59206  0.14146  0.91796  1.0000
  N   N54       1.0  0.52091  0.07309  0.91398  1.0000
  C   C796      1.0  0.54418  0.08065  0.87371  1.0000
  H   H1309     1.0  0.63066  0.21988  0.03616  1.0000
  H   H1310     1.0  0.54966  0.08395  0.34188  1.0000
  H   H1311     1.0  0.62418  0.25289  0.91683  1.0000
  H   H1312     1.0  0.59125  0.09661  0.11188  1.0000
  C   C797      1.0  0.56319  0.07778  0.06839  1.0000
  N   N55       1.0  0.56174  0.08377  0.10654  1.0000
  C   C798      1.0  0.55306  0.06313  0.17116  1.0000
  C   C799      1.0  0.52557  0.15921  0.90827  1.0000
  H   H1313     1.0  0.67183  0.21163  0.19165  1.0000
  H   H1314     1.0  0.68978  0.18892  0.20275  1.0000
  H   H1315     1.0  0.52406  0.12678  0.37757  1.0000
  H   H1316     1.0  0.66288  0.11549  0.83099  1.0000
  H   H1317     1.0  0.57704  0.07796  0.30262  1.0000
  H   H1318     1.0  0.54856  0.08008  0.17220  1.0000
  C   C800      1.0  0.55118  0.07531  0.14583  1.0000
  C   C801      1.0  0.67747  0.14796  0.77154  1.0000
  C   C802      1.0  0.61424  0.24979  0.93232  1.0000
  C   C803      1.0  0.71543  0.23612  0.01359  1.0000
  C   C804      1.0  0.57296  0.08543  0.12320  1.0000
  C   C805      1.0  0.58335  0.09728  0.09839  1.0000
  H   H1319     1.0  0.57064  0.08531  0.15985  1.0000
  C   C806      1.0  0.72291  0.23071  0.03620  1.0000
  H   H1320     1.0  0.60040  0.16885  0.86374  1.0000
  H   H1321     1.0  0.58337  0.15206  0.90984  1.0000
  C   C807      1.0  0.59232  0.15124  0.91406  1.0000
  C   C808      1.0  0.55882  0.08659  0.34718  1.0000
  H   H1322     1.0  0.58075  0.10545  0.10560  1.0000
  H   H1323     1.0  0.54455  0.05776  0.19828  1.0000
  H   H1324     1.0  0.60038  0.15582  0.84284  1.0000
  C   C809      1.0  0.60222  0.15966  0.87095  1.0000
  H   H1325     1.0  0.59311  0.15381  0.94553  1.0000
  H   H1326     1.0  0.56562  0.06905  0.07926  1.0000
  H   H1327     1.0  0.56026  0.06463  0.18860  1.0000
  H   H1328     1.0  0.53684  0.01713  0.13311  1.0000
  H   H1329     1.0  0.62126  0.15584  0.78775  1.0000
  H   H1330     1.0  0.55131  0.06338  0.30727  1.0000
  H   H1331     1.0  0.55456  0.05606  0.40261  1.0000
  H   H1332     1.0  0.70011  0.18808  0.13339  1.0000
  H   H1333     1.0  0.54489  0.06332  0.37907  1.0000
  C   C810      1.0  0.62156  0.16562  0.78391  1.0000
  H   H1334     1.0  0.55505  0.05736  0.14824  1.0000
  H   H1335     1.0  0.62203  0.17895  0.82224  1.0000
  H   H1336     1.0  0.61406  0.17544  0.90483  1.0000
  H   H1337     1.0  0.63118  0.17277  0.94220  1.0000
  C   C811      1.0  0.58620  0.05467  0.90770  1.0000
  C   C812      1.0  0.67363  0.19142  0.24192  1.0000
  N   N56       1.0  0.61519  0.16097  0.87218  1.0000
  H   H1338     1.0  0.61354  0.21309  0.00831  1.0000
  H   H1339     1.0  0.59414  0.23237  0.08312  1.0000
  H   H1340     1.0  0.61216  0.16110  0.94337  1.0000
  C   C813      1.0  0.61740  0.16707  0.90857  1.0000
  H   H1341     1.0  0.61279  0.14279  0.86220  1.0000
  C   C814      1.0  0.62325  0.16953  0.82667  1.0000
  H   H1342     1.0  0.61330  0.16745  0.77552  1.0000
  H   H1343     1.0  0.62940  0.17116  0.75405  1.0000
  H   H1344     1.0  0.61703  0.13173  0.92822  1.0000
  N   N57       1.0  0.56290  0.07534  0.36430  1.0000
  C   C815      1.0  0.61802  0.14868  0.87892  1.0000
  H   H1345     1.0  0.67205  0.18201  0.26445  1.0000
  C   C816      1.0  0.50943  0.05626  0.12775  1.0000
  C   C817      1.0  0.63190  0.08776  0.18762  1.0000
  H   H1346     1.0  0.52582  0.04285  0.11235  1.0000
  H   H1347     1.0  0.58908  0.09369  0.89299  1.0000
  H   H1348     1.0  0.53151  0.16724  0.87959  1.0000
  H   H1349     1.0  0.63299  0.17057  0.82496  1.0000
  C   C818      1.0  0.61588  0.14096  0.92865  1.0000
  H   H1350     1.0  0.62267  0.14508  0.94452  1.0000
  H   H1351     1.0  0.68510  0.22473  0.08998  1.0000
  H   H1352     1.0  0.63572  0.17991  0.88207  1.0000
  H   H1353     1.0  0.63563  0.16411  0.90385  1.0000
  H   H1354     1.0  0.62768  0.14982  0.86166  1.0000
  C   C819      1.0  0.63077  0.17111  0.90887  1.0000
  C   C820      1.0  0.59515  0.21332  0.02743  1.0000
  C   C821      1.0  0.52239  0.09201  0.84797  1.0000
  H   H1355     1.0  0.55288  0.09131  0.41201  1.0000
  C   C822      1.0  0.52746  0.02841  0.98197  1.0000
  H   H1356     1.0  0.60671  0.13955  0.95090  1.0000
  C   C823      1.0  0.68437  0.12943  0.76496  1.0000
  C   C824      1.0  0.60967  0.23604  0.95922  1.0000
  H   H1357     1.0  0.61513  0.23670  0.06359  1.0000
  H   H1358     1.0  0.59331  0.08084  0.92265  1.0000
  H   H1359     1.0  0.55450  0.10287  0.36092  1.0000
  C   C825      1.0  0.55850  0.09569  0.37626  1.0000
  H   H1360     1.0  0.54179  0.08280  0.84111  1.0000
  H   H1361     1.0  0.61136  0.25567  0.95373  1.0000
  C   C826      1.0  0.67993  0.22394  0.12520  1.0000
  H   H1362     1.0  0.52572  0.12804  0.29192  1.0000
  H   H1363     1.0  0.51455  0.03585  0.01888  1.0000
  H   H1364     1.0  0.58076  0.08573  0.36124  1.0000
  H   H1365     1.0  0.53223  0.05428  0.90867  1.0000
  H   H1366     1.0  0.51548  0.10833  0.36869  1.0000
  H   H1367     1.0  0.59773  0.09247  0.82230  1.0000
  H   H1368     1.0  0.52235  0.14265  0.28777  1.0000
  H   H1369     1.0  0.56779  0.10055  0.37543  1.0000
  N   N58       1.0  0.68329  0.13854  0.79226  1.0000
  H   H1370     1.0  0.51576  0.13153  0.07204  1.0000
  C   C827      1.0  0.57289  0.07842  0.38646  1.0000
  H   H1371     1.0  0.53446  0.08573  0.93072  1.0000
  H   H1372     1.0  0.58213  0.06390  0.37949  1.0000
  H   H1373     1.0  0.53914  0.07168  0.43845  1.0000
  H   H1374     1.0  0.54867  0.07313  0.87493  1.0000
  H   H1375     1.0  0.57047  0.06015  0.43333  1.0000
  H   H1376     1.0  0.55241  0.14213  0.93759  1.0000
  H   H1377     1.0  0.51439  0.12226  0.45289  1.0000
  H   H1378     1.0  0.52540  0.06931  0.84766  1.0000
  C   C828      1.0  0.67530  0.13141  0.83995  1.0000
  C   C829      1.0  0.51600  0.08372  0.89702  1.0000
  H   H1379     1.0  0.68760  0.16748  0.74338  1.0000
  C   C830      1.0  0.71790  0.24905  0.00285  1.0000
  C   C831      1.0  0.54615  0.06674  0.44203  1.0000
  C   C832      1.0  0.52846  0.03861  0.14275  1.0000
  H   H1380     1.0  0.53177  0.09718  0.84453  1.0000
  H   H1381     1.0  0.57793  0.08854  0.81724  1.0000
  H   H1382     1.0  0.63658  0.07613  0.26511  1.0000
  H   H1383     1.0  0.58906  0.21846  0.04138  1.0000
  H   H1384     1.0  0.64762  0.08384  0.31195  1.0000
  C   C833      1.0  0.69566  0.15315  0.82727  1.0000
  C   C834      1.0  0.60853  0.21878  0.02496  1.0000
  H   H1385     1.0  0.57018  0.08240  0.41488  1.0000
  H   H1386     1.0  0.62032  0.07915  0.74283  1.0000
  H   H1387     1.0  0.53698  0.03633  0.13049  1.0000
  C   C835      1.0  0.58934  0.08410  0.89461  1.0000
  H   H1388     1.0  0.71227  0.25350  0.98560  1.0000
  H   H1389     1.0  0.54169  0.05759  0.46732  1.0000
  C   C836      1.0  0.73242  0.23799  0.04815  1.0000
  H   H1390     1.0  0.55254  0.07154  0.45763  1.0000
  C   C837      1.0  0.57769  0.06762  0.40633  1.0000
  H   H1391     1.0  0.53055  0.04552  0.16140  1.0000
  C   C838      1.0  0.69260  0.13447  0.71544  1.0000
  H   H1392     1.0  0.58933  0.08034  0.18887  1.0000
  H   H1393     1.0  0.52818  0.12132  0.90259  1.0000
  H   H1394     1.0  0.58477  0.07097  0.42248  1.0000
  H   H1395     1.0  0.55790  0.03785  0.96609  1.0000
  H   H1396     1.0  0.67736  0.19804  0.25932  1.0000
  C   C839      1.0  0.52921  0.13102  0.90302  1.0000
  H   H1397     1.0  0.68714  0.19968  0.10285  1.0000
  H   H1398     1.0  0.52504  0.04865  0.86958  1.0000
  H   H1399     1.0  0.65199  0.09934  0.27745  1.0000
  C   C840      1.0  0.51689  0.14317  0.00400  1.0000
  H   H1400     1.0  0.69961  0.13700  0.81155  1.0000
  C   C841      1.0  0.62732  0.07399  0.19205  1.0000
  H   H1401     1.0  0.57976  0.07877  0.90377  1.0000
  H   H1402     1.0  0.58476  0.06046  0.93084  1.0000
  H   H1403     1.0  0.63888  0.10819  0.21557  1.0000
  H   H1404     1.0  0.58955  0.04727  0.92568  1.0000
  H   H1405     1.0  0.63370  0.23503  0.04532  1.0000
  H   H1406     1.0  0.65386  0.09014  0.14011  1.0000
  S   S249      1.0  0.56116  0.03529  0.11882  1.0000
  H   H1407     1.0  0.65715  0.12011  0.87994  1.0000
  H   H1408     1.0  0.50898  0.11134  0.32278  1.0000
  C   C842      1.0  0.64615  0.10548  0.19401  1.0000
  H   H1409     1.0  0.69794  0.21372  0.09157  1.0000
  H   H1410     1.0  0.57744  0.05003  0.90331  1.0000
  H   H1411     1.0  0.54292  0.24715  0.92763  1.0000
  H   H1412     1.0  0.56760  0.07767  0.80182  1.0000
  C   C843      1.0  0.64842  0.11315  0.14416  1.0000
  C   C844      1.0  0.60165  0.07540  0.78391  1.0000
  C   C845      1.0  0.61211  0.23999  0.03289  1.0000
  H   H1413     1.0  0.67978  0.12502  0.85769  1.0000
  H   H1414     1.0  0.60462  0.06402  0.86874  1.0000
  H   H1415     1.0  0.59626  0.05453  0.84253  1.0000
  H   H1416     1.0  0.69062  0.15999  0.81862  1.0000
  H   H1417     1.0  0.61585  0.06588  0.79097  1.0000
  H   H1418     1.0  0.63225  0.08923  0.27185  1.0000
  H   H1419     1.0  0.57409  0.06700  0.86436  1.0000
  H   H1420     1.0  0.62422  0.09054  0.20659  1.0000
  H   H1421     1.0  0.59966  0.23386  0.96830  1.0000
  C   C846      1.0  0.73479  0.25090  0.03797  1.0000
  H   H1422     1.0  0.65227  0.12299  0.14137  1.0000
  H   H1423     1.0  0.58269  0.08408  0.76551  1.0000
  H   H1424     1.0  0.60659  0.08537  0.85110  1.0000
  C   C847      1.0  0.55291  0.24909  0.91526  1.0000
  C   C848      1.0  0.59572  0.06157  0.86140  1.0000
  H   H1425     1.0  0.65504  0.11060  0.11941  1.0000
  C   C849      1.0  0.59719  0.08391  0.84829  1.0000
  H   H1426     1.0  0.70516  0.15834  0.82237  1.0000
  H   H1427     1.0  0.74958  0.25788  0.90601  1.0000
  H   H1428     1.0  0.62505  0.06810  0.22761  1.0000
  N   N59       1.0  0.59362  0.07273  0.83207  1.0000
  H   H1429     1.0  0.70218  0.14947  0.76356  1.0000
  C   C850      1.0  0.53359  0.07750  0.91773  1.0000
  H   H1430     1.0  0.63382  0.07097  0.16855  1.0000
  H   H1431     1.0  0.61882  0.07241  0.18153  1.0000
  H   H1432     1.0  0.63986  0.11258  0.13430  1.0000
  H   H1433     1.0  0.52022  0.15132  0.01551  1.0000
  H   H1434     1.0  0.63350  0.09239  0.15078  1.0000
  C   C851      1.0  0.58066  0.07002  0.82996  1.0000
  C   C852      1.0  0.63997  0.08627  0.25426  1.0000
  N   N60       1.0  0.64302  0.09167  0.20311  1.0000
  C   C853      1.0  0.57721  0.08079  0.80184  1.0000
  H   H1435     1.0  0.63250  0.24421  0.96671  1.0000
  H   H1436     1.0  0.65453  0.10890  0.20367  1.0000
  H   H1437     1.0  0.67339  0.15195  0.79813  1.0000
  H   H1438     1.0  0.53530  0.14009  0.30504  1.0000
  H   H1439     1.0  0.67748  0.18660  0.17877  1.0000
  H   H1440     1.0  0.65890  0.08823  0.25806  1.0000
  H   H1441     1.0  0.69193  0.14809  0.86420  1.0000
  H   H1442     1.0  0.59417  0.21273  0.99332  1.0000
  H   H1443     1.0  0.68763  0.12190  0.78295  1.0000
  H   H1444     1.0  0.60191  0.08454  0.76219  1.0000
  C   C854      1.0  0.65369  0.08841  0.17682  1.0000
  H   H1445     1.0  0.61939  0.08104  0.79854  1.0000
  H   H1446     1.0  0.66235  0.09457  0.17698  1.0000
  C   C855      1.0  0.59897  0.24020  0.05208  1.0000
  H   H1447     1.0  0.65704  0.07154  0.16387  1.0000
  C   C856      1.0  0.65460  0.07511  0.19379  1.0000
  H   H1448     1.0  0.66211  0.07504  0.21000  1.0000
  C   C857      1.0  0.65033  0.08969  0.27597  1.0000
  N   N61       1.0  0.51779  0.01541  0.16372  1.0000
  H   H1449     1.0  0.64626  0.06839  0.21754  1.0000
  H   H1450     1.0  0.69306  0.12662  0.70093  1.0000
  C   C858      1.0  0.69555  0.14428  0.79700  1.0000
  C   C859      1.0  0.61502  0.07535  0.77943  1.0000
  H   H1451     1.0  0.59798  0.06861  0.76674  1.0000
  H   H1452     1.0  0.55691  0.24763  0.94436  1.0000
  H   H1453     1.0  0.53714  0.02265  0.20604  1.0000
  H   H1454     1.0  0.67536  0.12494  0.76180  1.0000
  H   H1455     1.0  0.67378  0.13769  0.86145  1.0000
  C   C860      1.0  0.66254  0.12368  0.84341  1.0000
  S   S250      1.0  0.58672  0.02854  0.10376  1.0000
  H   H1456     1.0  0.51572  0.05784  0.97562  1.0000
  H   H1457     1.0  0.52043  0.15278  0.89339  1.0000
  H   H1458     1.0  0.66982  0.14354  0.75991  1.0000
  H   H1459     1.0  0.68868  0.14047  0.69343  1.0000
  C   C861      1.0  0.62774  0.23431  0.98307  1.0000
  C   C862      1.0  0.53578  0.13719  0.99552  1.0000
  H   H1460     1.0  0.69439  0.15798  0.71311  1.0000
  H   H1461     1.0  0.68074  0.16123  0.70563  1.0000
  C   C863      1.0  0.51814  0.02741  0.17489  1.0000
  H   H1462     1.0  0.65751  0.12918  0.82522  1.0000
  H   H1463     1.0  0.70204  0.13920  0.71297  1.0000
  C   C864      1.0  0.51625  0.01686  0.11640  1.0000
  H   H1464     1.0  0.64393  0.23171  0.00190  1.0000
  H   H1465     1.0  0.68468  0.23104  0.13855  1.0000
  H   H1466     1.0  0.62984  0.22962  0.95600  1.0000
  C   C865      1.0  0.70392  0.19812  0.11729  1.0000
  C   C866      1.0  0.68237  0.19288  0.19509  1.0000
  H   H1467     1.0  0.71453  0.22290  0.14098  1.0000
  H   H1468     1.0  0.61786  0.24967  0.01769  1.0000
  H   H1469     1.0  0.53751  0.16012  0.95129  1.0000
  H   H1470     1.0  0.55125  0.08887  0.87238  1.0000
  H   H1471     1.0  0.61011  0.25129  0.90351  1.0000
  H   H1472     1.0  0.51643  0.09004  0.91892  1.0000
  H   H1473     1.0  0.70895  0.19933  0.08129  1.0000
  C   C867      1.0  0.53350  0.15333  0.93477  1.0000
  H   H1474     1.0  0.53541  0.07033  0.94369  1.0000
  C   C868      1.0  0.63414  0.22991  0.01932  1.0000
  H   H1475     1.0  0.59379  0.24021  0.02683  1.0000
  H   H1476     1.0  0.54137  0.15286  0.90899  1.0000
  H   H1477     1.0  0.55480  0.24217  0.89727  1.0000
  H   H1478     1.0  0.54413  0.12592  0.95721  1.0000
  H   H1479     1.0  0.52554  0.13514  0.87522  1.0000
  C   C869      1.0  0.67692  0.21098  0.15822  1.0000
  H   H1480     1.0  0.66462  0.19227  0.23845  1.0000
  H   H1481     1.0  0.67130  0.22608  0.12241  1.0000
  Fe  Fe129     1.0  0.56829  0.02063  0.09325  1.0000
  N   N62       1.0  0.52708  0.14111  0.97011  1.0000
  H   H1482     1.0  0.53903  0.13540  0.89389  1.0000
  C   C870      1.0  0.52371  0.05277  0.89853  1.0000
  H   H1483     1.0  0.51952  0.07730  0.49426  1.0000
  H   H1484     1.0  0.51967  0.12202  0.97450  1.0000
  C   C871      1.0  0.51133  0.07286  0.99746  1.0000
  H   H1485     1.0  0.59193  0.20374  0.05020  1.0000
  H   H1486     1.0  0.50854  0.02079  0.11257  1.0000
  H   H1487     1.0  0.61203  0.23065  0.93484  1.0000
  C   C872      1.0  0.72741  0.25634  0.01488  1.0000
  H   H1488     1.0  0.55286  0.13257  0.98984  1.0000
  H   H1489     1.0  0.73800  0.23353  0.06560  1.0000
  C   C873      1.0  0.54685  0.13436  0.96769  1.0000
  H   H1490     1.0  0.51747  0.09902  0.83970  1.0000
  S   S251      1.0  0.51055  0.08889  0.28178  1.0000
  H   H1491     1.0  0.50969  0.04643  0.80270  1.0000
  H   H1492     1.0  0.52436  0.02364  0.09068  1.0000
  C   C874      1.0  0.51830  0.13105  0.35870  1.0000
  H   H1493     1.0  0.54252  0.02267  0.94932  1.0000
  H   H1494     1.0  0.51820  0.02671  0.21096  1.0000
  C   C875      1.0  0.50730  0.11039  0.36009  1.0000
  H   H1495     1.0  0.51767  0.13939  0.37009  1.0000
  S   S252      1.0  0.51671  0.01767  0.96935  1.0000
  N   N63       1.0  0.50586  0.12225  0.36985  1.0000
  H   H1496     1.0  0.51926  0.16281  0.93019  1.0000
  C   C876      1.0  0.51019  0.13241  0.04760  1.0000
  H   H1497     1.0  0.59896  0.24895  0.06095  1.0000
  H   H1498     1.0  0.50979  0.14533  0.98774  1.0000
  S   S253      1.0  0.74707  0.25959  0.05466  1.0000
  H   H1499     1.0  0.50966  0.03000  0.17324  1.0000
  H   H1500     1.0  0.54468  0.25578  0.98834  1.0000
  C   C877      1.0  0.53408  0.01292  0.20612  1.0000
  C   C878      1.0  0.52935  0.01179  0.16455  1.0000
  H   H1501     1.0  0.50845  0.10693  0.44915  1.0000
  C   C879      1.0  0.51260  0.06583  0.96097  1.0000
  H   H1502     1.0  0.50733  0.12356  0.03991  1.0000
  H   H1503     1.0  0.52021  0.07722  0.00161  1.0000
  C   C880      1.0  0.50707  0.05815  0.17153  1.0000
  S   S254      1.0  0.58082  0.25975  0.00381  1.0000
  C   C881      1.0  0.50610  0.11536  0.45414  1.0000
  C   C882      1.0  0.50646  0.06428  0.79478  1.0000
  H   H1504     1.0  0.50565  0.14237  0.17698  1.0000
  H   H1505     1.0  0.50591  0.06623  0.03100  1.0000
  H   H1506     1.0  0.50623  0.08029  0.89896  1.0000
  H   H1507     1.0  0.50623  0.07974  0.99038  1.0000
  H   H1508     1.0  0.55865  0.45426  0.75915  1.0000
  Fe  Fe130     1.0  0.58459  0.28061  0.99668  1.0000
  S   S255      1.0  0.58969  0.29699  0.93417  1.0000
  H   H1509     1.0  0.58620  0.41950  0.17259  1.0000
  Fe  Fe131     1.0  0.58217  0.29688  0.06238  1.0000
  S   S256      1.0  0.58660  0.31402  0.00555  1.0000
  S   S257      1.0  0.58052  0.29975  0.13242  1.0000
  Fe  Fe132     1.0  0.57475  0.30293  0.97400  1.0000
  S   S258      1.0  0.56092  0.31120  0.94800  1.0000
  Fe  Fe133     1.0  0.60131  0.30712  0.97067  1.0000
  S   S259      1.0  0.61898  0.32215  0.93490  1.0000
  S   S260      1.0  0.56883  0.28614  0.03452  1.0000
  S   S261      1.0  0.59764  0.29031  0.02952  1.0000
  Fe  Fe134     1.0  0.68154  0.38422  0.06213  1.0000
  S   S262      1.0  0.66258  0.37277  0.10292  1.0000
  S   S263      1.0  0.69636  0.38076  0.09786  1.0000
  Fe  Fe135     1.0  0.67159  0.39625  0.98651  1.0000
  S   S264      1.0  0.65219  0.38592  0.02152  1.0000
  S   S265      1.0  0.67761  0.41166  0.92063  1.0000
  Fe  Fe136     1.0  0.65642  0.38968  0.08444  1.0000
  S   S266      1.0  0.64066  0.39138  0.13692  1.0000
  Fe  Fe137     1.0  0.65921  0.36944  0.03801  1.0000
  S   S267      1.0  0.64663  0.35023  0.05245  1.0000
  S   S268      1.0  0.67540  0.40151  0.04846  1.0000
  S   S269      1.0  0.67871  0.37948  0.99804  1.0000
  Fe  Fe138     1.0  0.54627  0.36642  0.19560  1.0000
  S   S270      1.0  0.55949  0.35576  0.17783  1.0000
  S   S271      1.0  0.54383  0.37923  0.13468  1.0000
  Fe  Fe139     1.0  0.54310  0.35684  0.29906  1.0000
  S   S272      1.0  0.55577  0.34506  0.28865  1.0000
  S   S273      1.0  0.53366  0.35868  0.36819  1.0000
  Fe  Fe140     1.0  0.56734  0.36155  0.23097  1.0000
  S   S274      1.0  0.58717  0.36991  0.21824  1.0000
  Fe  Fe141     1.0  0.54658  0.34042  0.23635  1.0000
  S   S275      1.0  0.54012  0.32194  0.22530  1.0000
  S   S276      1.0  0.55528  0.37364  0.24418  1.0000
  S   S277      1.0  0.53273  0.35074  0.25134  1.0000
  Fe  Fe142     1.0  0.60103  0.41130  0.36530  1.0000
  S   S278      1.0  0.59695  0.42465  0.40416  1.0000
  S   S279      1.0  0.58688  0.39364  0.38004  1.0000
  Fe  Fe143     1.0  0.62632  0.42715  0.31111  1.0000
  S   S280      1.0  0.62452  0.44189  0.34620  1.0000
  S   S281      1.0  0.64296  0.42962  0.25322  1.0000
  Fe  Fe144     1.0  0.61580  0.42648  0.41199  1.0000
  S   S282      1.0  0.62048  0.42244  0.48033  1.0000
  Fe  Fe145     1.0  0.60582  0.43872  0.33562  1.0000
  S   S283      1.0  0.59839  0.45401  0.30420  1.0000
  S   S284      1.0  0.61918  0.41199  0.37696  1.0000
  S   S285      1.0  0.60832  0.42509  0.29669  1.0000
  Fe  Fe146     1.0  0.53211  0.34817  0.70984  1.0000
  S   S286      1.0  0.53838  0.33311  0.68461  1.0000
  H   H1510     1.0  0.58881  0.43739  0.82330  1.0000
  Fe  Fe147     1.0  0.55617  0.36664  0.66535  1.0000
  S   S287      1.0  0.56451  0.35337  0.63764  1.0000
  S   S288      1.0  0.56706  0.38591  0.65379  1.0000
  Fe  Fe148     1.0  0.54742  0.34788  0.61721  1.0000
  S   S289      1.0  0.55211  0.34511  0.54570  1.0000
  Fe  Fe149     1.0  0.55502  0.33984  0.70617  1.0000
  S   S290      1.0  0.56660  0.32862  0.73531  1.0000
  S   S291      1.0  0.53968  0.36233  0.64083  1.0000
  S   S292      1.0  0.54814  0.35371  0.73576  1.0000
  Fe  Fe150     1.0  0.63208  0.42216  0.77478  1.0000
  S   S293      1.0  0.61800  0.40848  0.83519  1.0000
  S   S294      1.0  0.65222  0.42709  0.76505  1.0000
  Fe  Fe151     1.0  0.61353  0.42894  0.72604  1.0000
  S   S295      1.0  0.59787  0.41633  0.78453  1.0000
  S   S296      1.0  0.61035  0.43989  0.66159  1.0000
  Fe  Fe152     1.0  0.60810  0.42310  0.83097  1.0000
  S   S297      1.0  0.59840  0.42455  0.89982  1.0000
  Fe  Fe153     1.0  0.60912  0.40303  0.78353  1.0000
  S   S298      1.0  0.60103  0.38381  0.78316  1.0000
  S   S299      1.0  0.62272  0.43721  0.77289  1.0000
  S   S300      1.0  0.62423  0.41520  0.72320  1.0000
  H   H1511     1.0  0.65080  0.46590  0.54209  1.0000
  C   C883      1.0  0.55953  0.41029  0.36484  1.0000
  S   S301      1.0  0.53838  0.41830  0.91683  1.0000
  S   S302      1.0  0.54743  0.46773  0.11493  1.0000
  Fe  Fe154     1.0  0.57592  0.47167  0.01536  1.0000
  S   S303      1.0  0.56279  0.45353  0.05556  1.0000
  S   S304      1.0  0.59198  0.47253  0.95703  1.0000
  Fe  Fe155     1.0  0.54845  0.46316  0.04857  1.0000
  S   S305      1.0  0.53160  0.45614  0.02897  1.0000
  Fe  Fe156     1.0  0.56339  0.45997  0.11766  1.0000
  S   S306      1.0  0.56460  0.44452  0.17481  1.0000
  S   S307      1.0  0.56141  0.48096  0.00384  1.0000
  C   C884      1.0  0.53701  0.43020  0.94186  1.0000
  C   C885      1.0  0.54697  0.43692  0.95168  1.0000
  C   C886      1.0  0.54556  0.44569  0.97531  1.0000
  C   C887      1.0  0.53408  0.44734  0.99089  1.0000
  C   C888      1.0  0.52426  0.44105  0.97919  1.0000
  C   C889      1.0  0.52578  0.43264  0.95405  1.0000
  H   H1512     1.0  0.55565  0.43503  0.94262  1.0000
  H   H1513     1.0  0.55327  0.45086  0.98279  1.0000
  H   H1514     1.0  0.54114  0.35549  0.98447  1.0000
  H   H1515     1.0  0.65013  0.44380  0.91204  1.0000
  C   C890      1.0  0.59690  0.43812  0.91412  1.0000
  C   C891      1.0  0.58797  0.43705  0.95383  1.0000
  C   C892      1.0  0.58637  0.44750  0.96710  1.0000
  C   C893      1.0  0.59382  0.45917  0.94118  1.0000
  C   C894      1.0  0.60300  0.46023  0.90186  1.0000
  C   C895      1.0  0.60451  0.44974  0.88816  1.0000
  H   H1516     1.0  0.58217  0.42807  0.97435  1.0000
  H   H1517     1.0  0.57944  0.44647  0.99766  1.0000
  H   H1518     1.0  0.60886  0.46922  0.88173  1.0000
  H   H1519     1.0  0.61153  0.45066  0.85770  1.0000
  H   H1520     1.0  0.57920  0.43137  0.79215  1.0000
  N   N64       1.0  0.57494  0.44674  0.81444  1.0000
  C   C896      1.0  0.56142  0.44293  0.82074  1.0000
  H   H1521     1.0  0.51043  0.34996  0.84971  1.0000
  H   H1522     1.0  0.56061  0.42581  0.39309  1.0000
  C   C897      1.0  0.57809  0.38539  0.68321  1.0000
  C   C898      1.0  0.58553  0.39627  0.68515  1.0000
  C   C899      1.0  0.59304  0.39580  0.71432  1.0000
  C   C900      1.0  0.59314  0.38447  0.74142  1.0000
  C   C901      1.0  0.58641  0.37362  0.73658  1.0000
  C   C902      1.0  0.57889  0.37408  0.70759  1.0000
  H   H1523     1.0  0.58520  0.40507  0.66536  1.0000
  H   H1524     1.0  0.59860  0.40423  0.71612  1.0000
  H   H1525     1.0  0.58681  0.36483  0.75566  1.0000
  H   H1526     1.0  0.57355  0.36562  0.70495  1.0000
  C   C903      1.0  0.61631  0.42705  0.53077  1.0000
  C   C904      1.0  0.61296  0.43793  0.53075  1.0000
  C   C905      1.0  0.61090  0.44167  0.57119  1.0000
  C   C906      1.0  0.61199  0.43450  0.61210  1.0000
  C   C907      1.0  0.61489  0.42343  0.61231  1.0000
  C   C908      1.0  0.61723  0.41985  0.57183  1.0000
  H   H1527     1.0  0.61229  0.44361  0.49935  1.0000
  H   H1528     1.0  0.60861  0.45024  0.57055  1.0000
  H   H1529     1.0  0.61549  0.41766  0.64351  1.0000
  H   H1530     1.0  0.61986  0.41146  0.57233  1.0000
  C   C909      1.0  0.58896  0.45131  0.26836  1.0000
  C   C910      1.0  0.58712  0.46129  0.23851  1.0000
  C   C911      1.0  0.57980  0.45937  0.20921  1.0000
  C   C912      1.0  0.57412  0.44742  0.21007  1.0000
  C   C913      1.0  0.57599  0.43743  0.23984  1.0000
  C   C914      1.0  0.58343  0.43936  0.26869  1.0000
  H   H1531     1.0  0.59138  0.47056  0.23799  1.0000
  H   H1532     1.0  0.57840  0.46714  0.18649  1.0000
  H   H1533     1.0  0.57169  0.42818  0.24045  1.0000
  H   H1534     1.0  0.58484  0.43164  0.29146  1.0000
  C   C915      1.0  0.53923  0.35560  0.41678  1.0000
  C   C916      1.0  0.54980  0.35182  0.41485  1.0000
  C   C917      1.0  0.55363  0.34879  0.45456  1.0000
  C   C918      1.0  0.54704  0.34962  0.49664  1.0000
  C   C919      1.0  0.53653  0.35356  0.49851  1.0000
  C   C920      1.0  0.53261  0.35644  0.45881  1.0000
  H   H1535     1.0  0.55501  0.35115  0.38283  1.0000
  H   H1536     1.0  0.56179  0.34579  0.45270  1.0000
  H   H1537     1.0  0.53132  0.35415  0.53072  1.0000
  H   H1538     1.0  0.52435  0.35924  0.46082  1.0000
  C   C921      1.0  0.53125  0.37542  0.11353  1.0000
  H   H1539     1.0  0.62522  0.41836  0.90466  1.0000
  C   C922      1.0  0.54171  0.36684  0.82960  1.0000
  H   H1540     1.0  0.55887  0.43483  0.80779  1.0000
  S   S308      1.0  0.57730  0.47793  0.07791  1.0000
  H   H1541     1.0  0.72636  0.36230  0.09609  1.0000
  C   C923      1.0  0.52942  0.34695  0.05581  1.0000
  H   H1542     1.0  0.55441  0.28784  0.81443  1.0000
  H   H1543     1.0  0.57707  0.40529  0.51185  1.0000
  C   C924      1.0  0.58839  0.37577  0.26444  1.0000
  C   C925      1.0  0.57982  0.37006  0.30692  1.0000
  C   C926      1.0  0.57990  0.37528  0.34304  1.0000
  C   C927      1.0  0.58839  0.38639  0.33653  1.0000
  C   C928      1.0  0.59725  0.39194  0.29449  1.0000
  C   C929      1.0  0.59729  0.38658  0.25841  1.0000
  H   H1544     1.0  0.57302  0.36167  0.31195  1.0000
  H   H1545     1.0  0.57311  0.37093  0.37563  1.0000
  H   H1546     1.0  0.60385  0.40047  0.28945  1.0000
  H   H1547     1.0  0.60386  0.39106  0.22542  1.0000
  C   C930      1.0  0.64165  0.40218  0.16839  1.0000
  C   C931      1.0  0.65122  0.41291  0.15403  1.0000
  C   C932      1.0  0.65152  0.42133  0.18021  1.0000
  C   C933      1.0  0.64228  0.41904  0.22070  1.0000
  C   C934      1.0  0.63272  0.40834  0.23479  1.0000
  C   C935      1.0  0.63240  0.39995  0.20869  1.0000
  H   H1548     1.0  0.65831  0.41477  0.12269  1.0000
  H   H1549     1.0  0.65890  0.42967  0.16902  1.0000
  H   H1550     1.0  0.62565  0.40645  0.26619  1.0000
  H   H1551     1.0  0.62502  0.39161  0.22009  1.0000
  C   C936      1.0  0.66982  0.41506  0.87901  1.0000
  C   C937      1.0  0.65808  0.40824  0.88251  1.0000
  C   C938      1.0  0.65242  0.41178  0.84796  1.0000
  C   C939      1.0  0.65855  0.42205  0.80990  1.0000
  C   C940      1.0  0.67024  0.42869  0.80673  1.0000
  C   C941      1.0  0.67578  0.42528  0.84105  1.0000
  H   H1552     1.0  0.65346  0.40026  0.91151  1.0000
  H   H1553     1.0  0.64345  0.40646  0.85031  1.0000
  H   H1554     1.0  0.67507  0.43658  0.77752  1.0000
  H   H1555     1.0  0.68483  0.43058  0.83796  1.0000
  C   C942      1.0  0.56532  0.32477  0.79434  1.0000
  C   C943      1.0  0.57427  0.32020  0.80985  1.0000
  C   C944      1.0  0.57323  0.31642  0.85686  1.0000
  C   C945      1.0  0.56308  0.31692  0.88872  1.0000
  C   C946      1.0  0.55425  0.32172  0.87323  1.0000
  C   C947      1.0  0.55539  0.32571  0.82613  1.0000
  H   H1556     1.0  0.58199  0.31951  0.78532  1.0000
  H   H1557     1.0  0.58013  0.31283  0.86840  1.0000
  H   H1558     1.0  0.54637  0.32215  0.89770  1.0000
  H   H1559     1.0  0.54842  0.32918  0.81444  1.0000
  C   C948      1.0  0.56953  0.30683  0.15371  1.0000
  C   C949      1.0  0.57239  0.31528  0.17815  1.0000
  C   C950      1.0  0.56354  0.32038  0.19849  1.0000
  C   C951      1.0  0.55163  0.31659  0.19633  1.0000
  C   C952      1.0  0.54874  0.30809  0.17213  1.0000
  C   C953      1.0  0.55773  0.30343  0.14996  1.0000
  H   H1560     1.0  0.58145  0.31774  0.18183  1.0000
  H   H1561     1.0  0.56583  0.32685  0.21742  1.0000
  H   H1562     1.0  0.53950  0.30497  0.17093  1.0000
  H   H1563     1.0  0.55541  0.29675  0.13187  1.0000
  C   C954      1.0  0.62602  0.33052  0.96779  1.0000
  C   C955      1.0  0.63533  0.34150  0.94570  1.0000
  C   C956      1.0  0.64146  0.34796  0.97104  1.0000
  C   C957      1.0  0.63850  0.34333  0.01871  1.0000
  C   C958      1.0  0.62905  0.33247  0.04071  1.0000
  C   C959      1.0  0.62275  0.32619  0.01554  1.0000
  H   H1564     1.0  0.63797  0.34491  0.90878  1.0000
  H   H1565     1.0  0.64876  0.35626  0.95360  1.0000
  H   H1566     1.0  0.62673  0.32874  0.07746  1.0000
  H   H1567     1.0  0.61562  0.31775  0.03306  1.0000
  C   C960      1.0  0.73677  0.39831  0.08682  1.0000
  H   H1568     1.0  0.58412  0.37872  0.59490  1.0000
  C   C961      1.0  0.71763  0.38225  0.12334  1.0000
  C   C962      1.0  0.71194  0.38788  0.09247  1.0000
  C   C963      1.0  0.71874  0.39887  0.05906  1.0000
  C   C964      1.0  0.73102  0.40404  0.05644  1.0000
  H   H1569     1.0  0.59829  0.44602  0.15969  1.0000
  H   H1570     1.0  0.71457  0.40340  0.03515  1.0000
  H   H1571     1.0  0.73614  0.41252  0.03031  1.0000
  H   H1572     1.0  0.73443  0.36210  0.97142  1.0000
  C   C965      1.0  0.56353  0.28686  0.81546  1.0000
  H   H1573     1.0  0.59820  0.35190  0.09539  1.0000
  N   N65       1.0  0.61128  0.43526  0.15001  1.0000
  C   C966      1.0  0.60328  0.42489  0.19101  1.0000
  C   C967      1.0  0.62114  0.44264  0.16484  1.0000
  C   C968      1.0  0.59337  0.41545  0.18193  1.0000
  C   C969      1.0  0.61727  0.45124  0.19274  1.0000
  H   H1574     1.0  0.60876  0.41968  0.20818  1.0000
  H   H1575     1.0  0.59849  0.42857  0.21732  1.0000
  H   H1576     1.0  0.62896  0.44836  0.13514  1.0000
  H   H1577     1.0  0.62510  0.43647  0.18635  1.0000
  H   H1578     1.0  0.61032  0.42610  0.09693  1.0000
  H   H1579     1.0  0.59704  0.41110  0.15590  1.0000
  H   H1580     1.0  0.60940  0.44627  0.22271  1.0000
  H   H1581     1.0  0.62482  0.45510  0.20596  1.0000
  H   H1582     1.0  0.61515  0.45911  0.17168  1.0000
  N   N66       1.0  0.55104  0.39984  0.35664  1.0000
  C   C970      1.0  0.54187  0.39171  0.40056  1.0000
  C   C971      1.0  0.54433  0.40507  0.32452  1.0000
  C   C972      1.0  0.54705  0.38682  0.44009  1.0000
  C   C973      1.0  0.53757  0.39593  0.30337  1.0000
  H   H1583     1.0  0.53518  0.39649  0.41363  1.0000
  H   H1584     1.0  0.53640  0.38345  0.39460  1.0000
  H   H1585     1.0  0.55048  0.41305  0.29589  1.0000
  H   H1586     1.0  0.53743  0.40894  0.34239  1.0000
  H   H1587     1.0  0.56563  0.40691  0.38427  1.0000
  H   H1588     1.0  0.53940  0.38135  0.47069  1.0000
  H   H1589     1.0  0.55256  0.38053  0.43188  1.0000
  H   H1590     1.0  0.54102  0.27209  0.87139  1.0000
  H   H1591     1.0  0.53116  0.38770  0.32975  1.0000
  H   H1592     1.0  0.53219  0.40053  0.28358  1.0000
  C   C974      1.0  0.57198  0.42468  0.86529  1.0000
  H   H1593     1.0  0.55645  0.43991  0.85768  1.0000
  H   H1594     1.0  0.56256  0.42081  0.86499  1.0000
  H   H1595     1.0  0.57633  0.41705  0.86702  1.0000
  H   H1596     1.0  0.57191  0.42741  0.89708  1.0000
  C   C975      1.0  0.54040  0.31899  0.39374  1.0000
  H   H1597     1.0  0.52749  0.42504  0.06558  1.0000
  H   H1598     1.0  0.51319  0.33587  0.14300  1.0000
  H   H1599     1.0  0.72887  0.26619  0.00683  1.0000
  N   N67       1.0  0.55643  0.27267  0.89897  1.0000
  C   C976      1.0  0.64485  0.43572  0.90448  1.0000
  C   C977      1.0  0.54027  0.28429  0.91415  1.0000
  C   C978      1.0  0.58461  0.40341  0.52582  1.0000
  C   C979      1.0  0.62846  0.44820  0.95575  1.0000
  H   H1600     1.0  0.63409  0.45205  0.67162  1.0000
  H   H1601     1.0  0.63501  0.43631  0.64076  1.0000
  H   H1602     1.0  0.58997  0.39812  0.46423  1.0000
  H   H1603     1.0  0.73394  0.38095  0.03787  1.0000
  H   H1604     1.0  0.55689  0.32975  0.07809  1.0000
  C   C980      1.0  0.51130  0.35791  0.77938  1.0000
  H   H1605     1.0  0.62067  0.43637  0.91916  1.0000
  H   H1606     1.0  0.61883  0.35446  0.24396  1.0000
  H   H1607     1.0  0.53487  0.32237  0.48106  1.0000
  H   H1608     1.0  0.53577  0.36762  0.86113  1.0000
  H   H1609     1.0  0.53385  0.40193  0.72540  1.0000
  C   C981      1.0  0.56492  0.28428  0.86446  1.0000
  C   C982      1.0  0.52874  0.32912  0.11576  1.0000
  C   C983      1.0  0.56926  0.37887  0.49168  1.0000
  H   H1610     1.0  0.55345  0.41286  0.19060  1.0000
  H   H1611     1.0  0.51540  0.44239  0.99058  1.0000
  H   H1612     1.0  0.53072  0.28175  0.93541  1.0000
  H   H1613     1.0  0.56284  0.28156  0.94719  1.0000
  C   C984      1.0  0.52522  0.31828  0.48365  1.0000
  H   H1614     1.0  0.56070  0.41832  0.02158  1.0000
  C   C985      1.0  0.51119  0.47516  0.06381  1.0000
  H   H1615     1.0  0.57455  0.28429  0.86178  1.0000
  H   H1616     1.0  0.54832  0.34154  0.12224  1.0000
  H   H1617     1.0  0.55807  0.35813  0.02402  1.0000
  H   H1618     1.0  0.56877  0.26298  0.87105  1.0000
  C   C986      1.0  0.54346  0.27282  0.90332  1.0000
  C   C987      1.0  0.59163  0.39634  0.49842  1.0000
  H   H1619     1.0  0.55524  0.43083  0.03195  1.0000
  H   H1620     1.0  0.54016  0.38880  0.04792  1.0000
  C   C988      1.0  0.55793  0.35588  0.06038  1.0000
  C   C989      1.0  0.53597  0.35801  0.01341  1.0000
  H   H1621     1.0  0.53677  0.32895  0.02823  1.0000
  Fe  Fe157     1.0  0.51947  0.40652  0.93189  1.0000
  H   H1622     1.0  0.55027  0.42782  0.12883  1.0000
  N   N68       1.0  0.53592  0.41574  0.11329  1.0000
  C   C990      1.0  0.74338  0.36222  0.11157  1.0000
  C   C991      1.0  0.52173  0.38007  0.05237  1.0000
  H   H1623     1.0  0.71562  0.34558  0.06086  1.0000
  C   C992      1.0  0.60267  0.38866  0.57038  1.0000
  C   C993      1.0  0.53185  0.38204  0.06930  1.0000
  C   C994      1.0  0.53181  0.42660  0.09293  1.0000
  H   H1624     1.0  0.74318  0.30151  0.34700  1.0000
  H   H1625     1.0  0.51006  0.40880  0.11360  1.0000
  S   S309      1.0  0.55819  0.50343  0.08100  1.0000
  H   H1626     1.0  0.55934  0.37454  0.50551  1.0000
  H   H1627     1.0  0.54553  0.40359  0.08772  1.0000
  H   H1628     1.0  0.54501  0.31666  0.08033  1.0000
  S   S310      1.0  0.51423  0.34516  0.76168  1.0000
  H   H1629     1.0  0.52869  0.43867  0.13671  1.0000
  C   C995      1.0  0.55883  0.26202  0.88176  1.0000
  H   H1630     1.0  0.52831  0.32112  0.32725  1.0000
  H   H1631     1.0  0.54585  0.28828  0.93434  1.0000
  H   H1632     1.0  0.52904  0.36195  0.00116  1.0000
  H   H1633     1.0  0.51149  0.46635  0.08569  1.0000
  N   N69       1.0  0.53717  0.33976  0.07636  1.0000
  H   H1634     1.0  0.53887  0.41126  0.04868  1.0000
  C   C996      1.0  0.75474  0.26232  0.86977  1.0000
  H   H1635     1.0  0.54395  0.39301  0.27906  1.0000
  H   H1636     1.0  0.54181  0.36546  0.02209  1.0000
  H   H1637     1.0  0.56218  0.42293  0.07127  1.0000
  H   H1638     1.0  0.51814  0.42791  0.94491  1.0000
  C   C997      1.0  0.50612  0.36738  0.84078  1.0000
  C   C998      1.0  0.50946  0.35771  0.82555  1.0000
  C   C999      1.0  0.52052  0.33250  0.15416  1.0000
  C   C1000     1.0  0.75213  0.30837  0.32992  1.0000
  H   H1639     1.0  0.50878  0.33046  0.37989  1.0000
  C   C1001     1.0  0.64537  0.41691  0.99279  1.0000
  H   H1640     1.0  0.52228  0.38539  0.01845  1.0000
  H   H1641     1.0  0.54126  0.35355  0.11148  1.0000
  H   H1642     1.0  0.62796  0.37750  0.07988  1.0000
  N   N70       1.0  0.73953  0.36465  0.03211  1.0000
  H   H1643     1.0  0.51320  0.46444  0.99377  1.0000
  H   H1644     1.0  0.64873  0.41115  0.60515  1.0000
  H   H1645     1.0  0.58889  0.40788  0.21395  1.0000
  H   H1646     1.0  0.53246  0.40756  0.83853  1.0000
  C   C1002     1.0  0.61817  0.37360  0.08489  1.0000
  C   C1003     1.0  0.55099  0.32582  0.05877  1.0000
  C   C1004     1.0  0.74998  0.28415  0.91865  1.0000
  H   H1647     1.0  0.64839  0.41661  0.02424  1.0000
  C   C1005     1.0  0.54710  0.31406  0.35671  1.0000
  H   H1648     1.0  0.64333  0.42046  0.56517  1.0000
  H   H1649     1.0  0.74822  0.34388  0.99796  1.0000
  C   C1006     1.0  0.51168  0.32426  0.35996  1.0000
  C   C1007     1.0  0.55612  0.42180  0.04902  1.0000
  C   C1008     1.0  0.51539  0.40197  0.11438  1.0000
  H   H1650     1.0  0.51069  0.30220  0.43402  1.0000
  H   H1651     1.0  0.55274  0.38368  0.33356  1.0000
  C   C1009     1.0  0.61004  0.35525  0.23801  1.0000
  H   H1652     1.0  0.52271  0.32268  0.10324  1.0000
  H   H1653     1.0  0.67610  0.38012  0.27367  1.0000
  N   N71       1.0  0.60106  0.34807  0.86557  1.0000
  C   C1010     1.0  0.61149  0.34379  0.84291  1.0000
  C   C1011     1.0  0.60644  0.36090  0.86740  1.0000
  C   C1012     1.0  0.59270  0.34858  0.83530  1.0000
  C   C1013     1.0  0.59467  0.33912  0.91216  1.0000
  C   C1014     1.0  0.60821  0.33098  0.83497  1.0000
  C   C1015     1.0  0.61520  0.36199  0.89753  1.0000
  C   C1016     1.0  0.58084  0.35180  0.85342  1.0000
  C   C1017     1.0  0.58672  0.34368  0.94773  1.0000
  H   H1654     1.0  0.61674  0.35048  0.80905  1.0000
  H   H1655     1.0  0.61803  0.34333  0.86372  1.0000
  H   H1656     1.0  0.59942  0.36544  0.87862  1.0000
  H   H1657     1.0  0.61159  0.36694  0.83232  1.0000
  H   H1658     1.0  0.59760  0.35524  0.80107  1.0000
  H   H1659     1.0  0.58968  0.33960  0.82886  1.0000
  H   H1660     1.0  0.58879  0.33067  0.90879  1.0000
  H   H1661     1.0  0.60142  0.33594  0.92834  1.0000
  H   H1662     1.0  0.60250  0.32375  0.86652  1.0000
  H   H1663     1.0  0.60384  0.33099  0.80692  1.0000
  H   H1664     1.0  0.61671  0.32833  0.82426  1.0000
  H   H1665     1.0  0.61143  0.35543  0.93220  1.0000
  H   H1666     1.0  0.62405  0.36074  0.88108  1.0000
  H   H1667     1.0  0.61712  0.37140  0.90164  1.0000
  H   H1668     1.0  0.58246  0.36103  0.85890  1.0000
  H   H1669     1.0  0.57481  0.34464  0.88465  1.0000
  H   H1670     1.0  0.57567  0.35188  0.82763  1.0000
  H   H1671     1.0  0.57766  0.33687  0.96281  1.0000
  H   H1672     1.0  0.58510  0.35263  0.93441  1.0000
  H   H1673     1.0  0.59070  0.34409  0.97664  1.0000
  C   C1018     1.0  0.61170  0.36659  0.13553  1.0000
  S   S311      1.0  0.74869  0.31551  0.10047  1.0000
  H   H1674     1.0  0.61638  0.43001  0.97890  1.0000
  C   C1019     1.0  0.61713  0.43041  0.11249  1.0000
  C   C1020     1.0  0.60358  0.44296  0.13224  1.0000
  H   H1675     1.0  0.62366  0.43810  0.08375  1.0000
  H   H1676     1.0  0.63153  0.42511  0.14063  1.0000
  H   H1677     1.0  0.60587  0.46174  0.09247  1.0000
  H   H1678     1.0  0.55568  0.26188  0.85078  1.0000
  C   C1021     1.0  0.59176  0.37956  0.56517  1.0000
  H   H1679     1.0  0.59327  0.37024  0.57239  1.0000
  H   H1680     1.0  0.55239  0.39426  0.45030  1.0000
  C   C1022     1.0  0.57925  0.43526  0.82164  1.0000
  H   H1681     1.0  0.57329  0.44696  0.88460  1.0000
  C   C1023     1.0  0.54350  0.33435  0.04154  1.0000
  H   H1682     1.0  0.56577  0.41655  0.33183  1.0000
  C   C1024     1.0  0.55578  0.45247  0.79689  1.0000
  H   H1683     1.0  0.54576  0.44864  0.80817  1.0000
  H   H1684     1.0  0.54638  0.39972  0.68530  1.0000
  H   H1685     1.0  0.71248  0.37382  0.14967  1.0000
  C   C1025     1.0  0.62419  0.42111  0.12687  1.0000
  C   C1026     1.0  0.61032  0.45425  0.09045  1.0000
  H   H1686     1.0  0.59640  0.43741  0.12137  1.0000
  H   H1687     1.0  0.61988  0.45816  0.08898  1.0000
  H   H1688     1.0  0.51997  0.36135  0.17462  1.0000
  H   H1689     1.0  0.59827  0.33632  0.10012  1.0000
  H   H1690     1.0  0.59206  0.34037  0.15032  1.0000
  Fe  Fe158     1.0  0.56117  0.48533  0.07042  1.0000
  C   C1027     1.0  0.54580  0.34755  0.09473  1.0000
  H   H1691     1.0  0.61820  0.41248  0.15229  1.0000
  H   H1692     1.0  0.63895  0.43836  0.56087  1.0000
  H   H1693     1.0  0.59104  0.36655  0.50031  1.0000
  H   H1694     1.0  0.61129  0.37545  0.50748  1.0000
  C   C1028     1.0  0.59939  0.34364  0.11773  1.0000
  H   H1695     1.0  0.64364  0.43506  0.98930  1.0000
  C   C1029     1.0  0.55846  0.39225  0.33665  1.0000
  C   C1030     1.0  0.55343  0.41848  0.38929  1.0000
  C   C1031     1.0  0.57787  0.45307  0.84941  1.0000
  H   H1696     1.0  0.58758  0.45478  0.84801  1.0000
  H   H1697     1.0  0.55775  0.46122  0.80573  1.0000
  H   H1698     1.0  0.61007  0.45191  0.05802  1.0000
  H   H1699     1.0  0.63763  0.41840  0.62608  1.0000
  H   H1700     1.0  0.62858  0.41848  0.09675  1.0000
  H   H1701     1.0  0.54823  0.42317  0.36899  1.0000
  C   C1032     1.0  0.57439  0.46513  0.84892  1.0000
  H   H1702     1.0  0.56477  0.46327  0.86863  1.0000
  H   H1703     1.0  0.65567  0.37112  0.24546  1.0000
  H   H1704     1.0  0.58114  0.39871  0.56291  1.0000
  H   H1705     1.0  0.55793  0.37715  0.77503  1.0000
  H   H1706     1.0  0.61020  0.36507  0.22875  1.0000
  H   H1707     1.0  0.64494  0.37939  0.23508  1.0000
  H   H1708     1.0  0.56095  0.40780  0.80996  1.0000
  N   N72       1.0  0.58847  0.38272  0.52054  1.0000
  C   C1033     1.0  0.59467  0.37675  0.48760  1.0000
  C   C1034     1.0  0.61210  0.34600  0.12550  1.0000
  H   H1709     1.0  0.61301  0.33682  0.14196  1.0000
  H   H1710     1.0  0.56348  0.38872  0.36044  1.0000
  H   H1711     1.0  0.57061  0.39224  0.27313  1.0000
  C   C1035     1.0  0.58147  0.45461  0.76614  1.0000
  H   H1712     1.0  0.57887  0.44973  0.74131  1.0000
  H   H1713     1.0  0.57613  0.47123  0.81416  1.0000
  H   H1714     1.0  0.65823  0.39879  0.22315  1.0000
  C   C1036     1.0  0.52787  0.50680  0.04115  1.0000
  H   H1715     1.0  0.67206  0.40238  0.15295  1.0000
  H   H1716     1.0  0.60699  0.33908  0.21432  1.0000
  H   H1717     1.0  0.60177  0.36500  0.14028  1.0000
  C   C1037     1.0  0.56590  0.40534  0.78039  1.0000
  H   H1718     1.0  0.56295  0.39755  0.72611  1.0000
  C   C1038     1.0  0.60686  0.34881  0.20222  1.0000
  H   H1719     1.0  0.59718  0.34834  0.20451  1.0000
  H   H1720     1.0  0.57110  0.39888  0.79166  1.0000
  N   N73       1.0  0.61467  0.35474  0.15355  1.0000
  C   C1039     1.0  0.60856  0.37968  0.47724  1.0000
  H   H1721     1.0  0.61203  0.37562  0.44976  1.0000
  H   H1722     1.0  0.61895  0.34912  0.09139  1.0000
  C   C1040     1.0  0.56821  0.39905  0.29073  1.0000
  H   H1723     1.0  0.54751  0.41331  0.42415  1.0000
  H   H1724     1.0  0.56504  0.40527  0.26664  1.0000
  H   H1725     1.0  0.57878  0.46325  0.75807  1.0000
  H   H1726     1.0  0.58022  0.47054  0.86522  1.0000
  C   C1041     1.0  0.65474  0.37988  0.22539  1.0000
  H   H1727     1.0  0.53022  0.38474  0.83735  1.0000
  H   H1728     1.0  0.61404  0.37318  0.15523  1.0000
  C   C1042     1.0  0.72989  0.38741  0.12070  1.0000
  H   H1729     1.0  0.66662  0.41433  0.25087  1.0000
  H   H1730     1.0  0.67829  0.38986  0.15317  1.0000
  C   C1043     1.0  0.67879  0.39816  0.16567  1.0000
  C   C1044     1.0  0.66190  0.39108  0.23636  1.0000
  H   H1731     1.0  0.65743  0.38063  0.18840  1.0000
  C   C1045     1.0  0.51093  0.37133  0.07934  1.0000
  C   C1046     1.0  0.55740  0.40020  0.75386  1.0000
  H   H1732     1.0  0.57272  0.41383  0.75702  1.0000
  H   H1733     1.0  0.59894  0.46355  0.77598  1.0000
  H   H1734     1.0  0.59919  0.45035  0.75394  1.0000
  H   H1735     1.0  0.65923  0.38925  0.27430  1.0000
  H   H1736     1.0  0.51794  0.42374  0.15884  1.0000
  C   C1047     1.0  0.67570  0.41613  0.22665  1.0000
  H   H1737     1.0  0.63185  0.33984  0.15027  1.0000
  H   H1738     1.0  0.63362  0.36160  0.11508  1.0000
  H   H1739     1.0  0.55476  0.40807  0.73544  1.0000
  C   C1048     1.0  0.62794  0.35757  0.15116  1.0000
  H   H1740     1.0  0.59280  0.37945  0.45399  1.0000
  H   H1741     1.0  0.64208  0.34978  0.16918  1.0000
  H   H1742     1.0  0.51085  0.46281  0.92172  1.0000
  H   H1743     1.0  0.57652  0.40438  0.29632  1.0000
  C   C1049     1.0  0.59545  0.45837  0.75363  1.0000
  N   N74       1.0  0.67553  0.39456  0.21737  1.0000
  C   C1050     1.0  0.57498  0.37701  0.53167  1.0000
  H   H1744     1.0  0.63705  0.44733  0.85892  1.0000
  C   C1051     1.0  0.63237  0.34646  0.17090  1.0000
  H   H1745     1.0  0.63043  0.36473  0.16845  1.0000
  C   C1052     1.0  0.52030  0.30365  0.41484  1.0000
  H   H1746     1.0  0.55646  0.38160  0.82639  1.0000
  C   C1053     1.0  0.64731  0.44569  0.55564  1.0000
  H   H1747     1.0  0.67592  0.37569  0.22272  1.0000
  C   C1054     1.0  0.68076  0.40485  0.23560  1.0000
  H   H1748     1.0  0.50874  0.47736  0.96805  1.0000
  H   H1749     1.0  0.73853  0.32526  0.17092  1.0000
  H   H1750     1.0  0.72349  0.36617  0.00992  1.0000
  C   C1055     1.0  0.67964  0.38345  0.23562  1.0000
  H   H1751     1.0  0.67915  0.40146  0.27334  1.0000
  H   H1752     1.0  0.67504  0.41894  0.19118  1.0000
  H   H1753     1.0  0.69075  0.40830  0.22143  1.0000
  C   C1056     1.0  0.55136  0.37912  0.80227  1.0000
  H   H1754     1.0  0.54376  0.37924  0.73294  1.0000
  C   C1057     1.0  0.69133  0.40730  0.13923  1.0000
  H   H1755     1.0  0.68177  0.42404  0.23228  1.0000
  H   H1756     1.0  0.61444  0.38150  0.07490  1.0000
  H   H1757     1.0  0.62739  0.34161  0.20713  1.0000
  N   N75       1.0  0.54659  0.38952  0.78169  1.0000
  H   H1758     1.0  0.61094  0.39113  0.54150  1.0000
  H   H1759     1.0  0.69507  0.37656  0.24300  1.0000
  C   C1058     1.0  0.69339  0.38499  0.22351  1.0000
  H   H1760     1.0  0.66655  0.44761  0.65488  1.0000
  H   H1761     1.0  0.52540  0.40170  0.79932  1.0000
  H   H1762     1.0  0.60297  0.35075  0.27122  1.0000
  H   H1763     1.0  0.69164  0.41673  0.14162  1.0000
  H   H1764     1.0  0.54596  0.31770  0.32246  1.0000
  H   H1765     1.0  0.52448  0.35083  0.08105  1.0000
  H   H1766     1.0  0.74620  0.37212  0.10891  1.0000
  C   C1059     1.0  0.53943  0.38518  0.75087  1.0000
  C   C1060     1.0  0.51040  0.36441  0.12318  1.0000
  C   C1061     1.0  0.53773  0.39507  0.71261  1.0000
  H   H1767     1.0  0.53133  0.39052  0.69613  1.0000
  H   H1768     1.0  0.54064  0.41177  0.78077  1.0000
  H   H1769     1.0  0.69706  0.38567  0.18697  1.0000
  H   H1770     1.0  0.69853  0.39278  0.23263  1.0000
  H   H1771     1.0  0.67942  0.45870  0.61313  1.0000
  H   H1772     1.0  0.57262  0.37420  0.46623  1.0000
  H   H1773     1.0  0.73398  0.38304  0.14527  1.0000
  H   H1774     1.0  0.52598  0.33287  0.42617  1.0000
  H   H1775     1.0  0.63778  0.43298  0.84633  1.0000
  H   H1776     1.0  0.69311  0.40780  0.10235  1.0000
  H   H1777     1.0  0.60036  0.39718  0.57467  1.0000
  H   H1778     1.0  0.67676  0.44292  0.61430  1.0000
  C   C1062     1.0  0.67217  0.45016  0.61891  1.0000
  H   H1779     1.0  0.58843  0.26173  0.90494  1.0000
  H   H1780     1.0  0.69893  0.40458  0.15005  1.0000
  C   C1063     1.0  0.53860  0.39246  0.82030  1.0000
  H   H1781     1.0  0.54293  0.39306  0.84838  1.0000
  H   H1782     1.0  0.71685  0.34506  0.00356  1.0000
  H   H1783     1.0  0.60488  0.38447  0.60208  1.0000
  C   C1064     1.0  0.54289  0.41913  0.14582  1.0000
  H   H1784     1.0  0.61718  0.39801  0.97376  1.0000
  H   H1785     1.0  0.54226  0.31436  0.42566  1.0000
  C   C1065     1.0  0.72225  0.34709  0.02739  1.0000
  H   H1786     1.0  0.56549  0.35182  0.06489  1.0000
  H   H1787     1.0  0.53025  0.37930  0.77137  1.0000
  H   H1788     1.0  0.54441  0.30387  0.36694  1.0000
  C   C1066     1.0  0.52526  0.40466  0.13900  1.0000
  C   C1067     1.0  0.66480  0.45244  0.58408  1.0000
  H   H1789     1.0  0.67082  0.45341  0.54972  1.0000
  H   H1790     1.0  0.66347  0.46168  0.58156  1.0000
  H   H1791     1.0  0.64854  0.45365  0.68104  1.0000
  H   H1792     1.0  0.56010  0.36480  0.06856  1.0000
  C   C1068     1.0  0.52335  0.43102  0.12716  1.0000
  H   H1793     1.0  0.65990  0.42774  0.62354  1.0000
  H   H1794     1.0  0.57053  0.38870  0.47488  1.0000
  H   H1795     1.0  0.54140  0.40072  0.18932  1.0000
  H   H1796     1.0  0.55507  0.40698  0.14215  1.0000
  H   H1797     1.0  0.65354  0.44611  0.52243  1.0000
  H   H1798     1.0  0.53605  0.36324  0.80892  1.0000
  H   H1799     1.0  0.54638  0.35980  0.84048  1.0000
  C   C1069     1.0  0.53408  0.40398  0.80825  1.0000
  H   H1800     1.0  0.61303  0.38968  0.46448  1.0000
  H   H1801     1.0  0.59911  0.46452  0.71803  1.0000
  H   H1802     1.0  0.63990  0.40747  0.99706  1.0000
  C   C1070     1.0  0.64369  0.45289  0.65459  1.0000
  H   H1803     1.0  0.64671  0.43507  0.66758  1.0000
  C   C1071     1.0  0.65623  0.43075  0.59423  1.0000
  H   H1804     1.0  0.66353  0.43190  0.56274  1.0000
  H   H1805     1.0  0.64687  0.46158  0.62682  1.0000
  H   H1806     1.0  0.65115  0.44523  0.83172  1.0000
  C   C1072     1.0  0.62845  0.41656  0.93567  1.0000
  N   N76       1.0  0.65305  0.44271  0.59400  1.0000
  C   C1073     1.0  0.64435  0.44113  0.63973  1.0000
  C   C1074     1.0  0.64235  0.44051  0.85818  1.0000
  C   C1075     1.0  0.64576  0.41967  0.59789  1.0000
  H   H1807     1.0  0.65127  0.43009  0.89846  1.0000
  H   H1808     1.0  0.53972  0.43469  0.07464  1.0000
  H   H1809     1.0  0.63532  0.41156  0.92716  1.0000
  H   H1810     1.0  0.63563  0.45693  0.57826  1.0000
  N   N77       1.0  0.63389  0.42849  0.94424  1.0000
  C   C1076     1.0  0.62437  0.43535  0.94918  1.0000
  H   H1811     1.0  0.62073  0.45236  0.95806  1.0000
  C   C1077     1.0  0.54969  0.26496  0.98834  1.0000
  H   H1812     1.0  0.60145  0.40073  0.49109  1.0000
  H   H1813     1.0  0.54970  0.34149  0.01075  1.0000
  H   H1814     1.0  0.63106  0.44772  0.98798  1.0000
  C   C1078     1.0  0.64327  0.45757  0.54891  1.0000
  C   C1079     1.0  0.63792  0.42634  0.98726  1.0000
  H   H1815     1.0  0.54507  0.32894  0.38598  1.0000
  H   H1816     1.0  0.74725  0.34153  0.20329  1.0000
  S   S312      1.0  0.50604  0.40359  0.99889  1.0000
  H   H1817     1.0  0.55698  0.31700  0.35302  1.0000
  H   H1818     1.0  0.56979  0.38031  0.55851  1.0000
  H   H1819     1.0  0.63007  0.42343  0.01823  1.0000
  H   H1820     1.0  0.60879  0.40937  0.96820  1.0000
  C   C1080     1.0  0.61736  0.40761  0.97388  1.0000
  H   H1821     1.0  0.65365  0.41941  0.96374  1.0000
  H   H1822     1.0  0.63599  0.45451  0.92642  1.0000
  H   H1823     1.0  0.63970  0.45875  0.51856  1.0000
  H   H1824     1.0  0.51079  0.29628  0.36931  1.0000
  H   H1825     1.0  0.57281  0.36689  0.54651  1.0000
  H   H1826     1.0  0.61689  0.36791  0.06135  1.0000
  H   H1827     1.0  0.52697  0.30177  0.34376  1.0000
  H   H1828     1.0  0.61755  0.40803  0.00868  1.0000
  H   H1829     1.0  0.56393  0.29244  0.87614  1.0000
  H   H1830     1.0  0.53027  0.33407  0.34766  1.0000
  H   H1831     1.0  0.59075  0.41254  0.52176  1.0000
  H   H1832     1.0  0.56571  0.27984  0.79867  1.0000
  H   H1833     1.0  0.51232  0.32092  0.44629  1.0000
  C   C1081     1.0  0.54369  0.41251  0.07494  1.0000
  N   N78       1.0  0.52697  0.31715  0.40036  1.0000
  C   C1082     1.0  0.52494  0.32427  0.35728  1.0000
  H   H1834     1.0  0.51921  0.40173  0.07900  1.0000
  C   C1083     1.0  0.53786  0.50260  0.04884  1.0000
  C   C1084     1.0  0.54846  0.40925  0.16789  1.0000
  H   H1835     1.0  0.53396  0.32361  0.13311  1.0000
  C   C1085     1.0  0.55973  0.27217  0.94340  1.0000
  C   C1086     1.0  0.73451  0.35924  0.08332  1.0000
  H   H1836     1.0  0.55692  0.32419  0.02903  1.0000
  S   S313      1.0  0.51466  0.38691  0.93091  1.0000
  C   C1087     1.0  0.74795  0.33048  0.15631  1.0000
  H   H1837     1.0  0.73120  0.34908  0.09352  1.0000
  C   C1088     1.0  0.73012  0.36055  0.00848  1.0000
  H   H1838     1.0  0.54150  0.29156  0.88222  1.0000
  H   H1839     1.0  0.57009  0.29578  0.79424  1.0000
  H   H1840     1.0  0.52075  0.40531  0.17326  1.0000
  H   H1841     1.0  0.75151  0.35896  0.10195  1.0000
  H   H1842     1.0  0.53995  0.49513  0.03618  1.0000
  H   H1843     1.0  0.55391  0.26354  0.01694  1.0000
  H   H1844     1.0  0.52834  0.39621  0.14672  1.0000
  C   C1089     1.0  0.75095  0.34800  0.02422  1.0000
  H   H1845     1.0  0.52048  0.28783  0.38834  1.0000
  H   H1846     1.0  0.51600  0.32409  0.18336  1.0000
  H   H1847     1.0  0.52423  0.29835  0.43930  1.0000
  H   H1848     1.0  0.74940  0.26766  0.85245  1.0000
  H   H1849     1.0  0.74510  0.34238  0.05850  1.0000
  H   H1850     1.0  0.52572  0.33928  0.16760  1.0000
  H   H1851     1.0  0.52232  0.34078  0.04645  1.0000
  H   H1852     1.0  0.72762  0.34037  0.03073  1.0000
  C   C1090     1.0  0.52055  0.36647  0.14035  1.0000
  H   H1853     1.0  0.53698  0.42119  0.17453  1.0000
  H   H1854     1.0  0.52287  0.30813  0.49635  1.0000
  H   H1855     1.0  0.51898  0.47840  0.03251  1.0000
  C   C1091     1.0  0.51976  0.29733  0.37631  1.0000
  C   C1092     1.0  0.52236  0.32270  0.43782  1.0000
  H   H1856     1.0  0.50532  0.31494  0.37471  1.0000
  H   H1857     1.0  0.51671  0.43441  0.11098  1.0000
  H   H1858     1.0  0.52241  0.50257  0.02221  1.0000
  H   H1859     1.0  0.74842  0.28161  0.95631  1.0000
  C   C1093     1.0  0.50974  0.36783  0.74857  1.0000
  H   H1860     1.0  0.51251  0.48197  0.08345  1.0000
  C   C1094     1.0  0.74220  0.37844  0.02235  1.0000
  H   H1861     1.0  0.51093  0.36796  0.71311  1.0000
  H   H1862     1.0  0.53698  0.26452  0.92922  1.0000
  H   H1863     1.0  0.50896  0.39280  0.13321  1.0000
  H   H1864     1.0  0.74438  0.27672  0.90940  1.0000
  H   H1865     1.0  0.56772  0.26848  0.94321  1.0000
  H   H1866     1.0  0.73879  0.35741  0.14831  1.0000
  H   H1867     1.0  0.74770  0.39583  0.96955  1.0000
  C   C1095     1.0  0.75287  0.33973  0.17451  1.0000
  H   H1868     1.0  0.51982  0.32155  0.50994  1.0000
  H   H1869     1.0  0.75044  0.30994  0.26253  1.0000
  H   H1870     1.0  0.74660  0.29236  0.90972  1.0000
  H   H1871     1.0  0.75058  0.31755  0.32843  1.0000
  H   H1872     1.0  0.54311  0.27027  0.99652  1.0000
  C   C1096     1.0  0.74658  0.38596  0.97145  1.0000
  S   S314      1.0  0.75247  0.40515  0.08070  1.0000
  H   H1873     1.0  0.75420  0.36519  0.97541  1.0000
  C   C1097     1.0  0.54523  0.50818  0.07222  1.0000
  C   C1098     1.0  0.75116  0.36168  0.01338  1.0000
  C   C1099     1.0  0.50608  0.37731  0.76400  1.0000
  H   H1874     1.0  0.51098  0.32792  0.32486  1.0000
  H   H1875     1.0  0.74929  0.38216  0.03787  1.0000
  H   H1876     1.0  0.73993  0.38348  0.95252  1.0000
  S   S315      1.0  0.50736  0.41207  0.89055  1.0000
  C   C1100     1.0  0.50530  0.46730  0.98553  1.0000
  H   H1877     1.0  0.54390  0.55696  0.84934  1.0000
  H   H1878     1.0  0.53913  0.53073  0.96876  1.0000
  H   H1879     1.0  0.52644  0.54615  0.01465  1.0000
  H   H1880     1.0  0.51896  0.56044  0.96950  1.0000
  H   H1881     1.0  0.55419  0.55640  0.92070  1.0000
  H   H1882     1.0  0.53324  0.56908  0.00740  1.0000
  H   H1883     1.0  0.52067  0.53803  0.95780  1.0000
  C   C1101     1.0  0.54937  0.56426  0.85967  1.0000
  H   H1884     1.0  0.52799  0.54421  0.89922  1.0000
  C   C1102     1.0  0.53226  0.52204  0.08099  1.0000
  C   C1103     1.0  0.53930  0.56296  0.00940  1.0000
  H   H1885     1.0  0.53870  0.55946  0.04622  1.0000
  C   C1104     1.0  0.52025  0.56308  0.89891  1.0000
  H   H1886     1.0  0.51573  0.57059  0.89605  1.0000
  C   C1105     1.0  0.52651  0.56305  0.93747  1.0000
  H   H1887     1.0  0.54186  0.54627  0.99652  1.0000
  H   H1888     1.0  0.55892  0.56490  0.84261  1.0000
  H   H1889     1.0  0.54650  0.53764  0.90815  1.0000
  C   C1106     1.0  0.52976  0.54285  0.93311  1.0000
  C   C1107     1.0  0.53765  0.53379  0.93474  1.0000
  N   N79       1.0  0.53487  0.55485  0.94214  1.0000
  H   H1890     1.0  0.52661  0.56470  0.86504  1.0000
  H   H1891     1.0  0.51300  0.55438  0.90721  1.0000
  C   C1108     1.0  0.54753  0.56138  0.91174  1.0000
  C   C1109     1.0  0.53543  0.55186  0.99116  1.0000
  H   H1892     1.0  0.55077  0.57042  0.91784  1.0000
  H   H1893     1.0  0.54884  0.56833  0.99187  1.0000
  H   H1894     1.0  0.51134  0.59690  0.89362  1.0000
  H   H1895     1.0  0.54750  0.57314  0.84601  1.0000
  H   H1896     1.0  0.53016  0.52948  0.09369  1.0000
  S   S316      1.0  0.51233  0.52134  0.04552  1.0000
  H   H1897     1.0  0.53135  0.57278  0.93295  1.0000
  H   H1898     1.0  0.53284  0.52535  0.92796  1.0000
  C   C1110     1.0  0.54241  0.51798  0.08794  1.0000
  C   C1111     1.0  0.52492  0.51642  0.05758  1.0000
  H   H1899     1.0  0.54806  0.52238  0.10598  1.0000
  S   S317      1.0  0.50818  0.55333  0.08148  1.0000
  H   H1900     1.0  0.54473  0.00417  0.91797  1.0000
  H   H1901     1.0  0.52726  0.00751  0.23895  1.0000
  C   C1112     1.0  0.53140  0.90878  0.17228  1.0000
  H   H1902     1.0  0.53240  0.93977  0.11644  1.0000
  S   S318      1.0  0.52273  0.91937  0.06061  1.0000
  C   C1113     1.0  0.52572  0.93703  0.20950  1.0000
  Fe  Fe159     1.0  0.52411  0.93978  0.03514  1.0000
  S   S319      1.0  0.54015  0.95665  0.02622  1.0000
  H   H1903     1.0  0.55490  0.93083  0.12176  1.0000
  H   H1904     1.0  0.55688  0.94581  0.17633  1.0000
  C   C1114     1.0  0.51458  0.00507  0.10083  1.0000
  C   C1115     1.0  0.52083  0.98583  0.00023  1.0000
  Fe  Fe160     1.0  0.51332  0.91624  0.00582  1.0000
  H   H1905     1.0  0.52014  0.92058  0.15751  1.0000
  H   H1906     1.0  0.52725  0.96512  0.90416  1.0000
  H   H1907     1.0  0.53468  0.90460  0.20109  1.0000
  H   H1908     1.0  0.51844  0.91431  0.21657  1.0000
  H   H1909     1.0  0.54576  0.93042  0.08238  1.0000
  C   C1116     1.0  0.52537  0.91878  0.18276  1.0000
  H   H1910     1.0  0.54821  0.92262  0.19361  1.0000
  S   S320      1.0  0.55440  0.00121  0.11540  1.0000
  H   H1911     1.0  0.55612  0.94440  0.08040  1.0000
  H   H1912     1.0  0.52597  0.99378  0.88345  1.0000
  H   H1913     1.0  0.52266  0.00150  0.09879  1.0000
  C   C1117     1.0  0.54365  0.96920  0.05086  1.0000
  C   C1118     1.0  0.53583  0.97027  0.08985  1.0000
  C   C1119     1.0  0.53922  0.98010  0.10861  1.0000
  C   C1120     1.0  0.55038  0.98929  0.08840  1.0000
  C   C1121     1.0  0.55806  0.98838  0.04876  1.0000
  C   C1122     1.0  0.55478  0.97840  0.03057  1.0000
  H   H1914     1.0  0.52718  0.96348  0.10577  1.0000
  H   H1915     1.0  0.53313  0.98061  0.13916  1.0000
  H   H1916     1.0  0.56670  0.99523  0.03265  1.0000
  H   H1917     1.0  0.56098  0.97780  0.00047  1.0000
  H   H1918     1.0  0.51748  0.97388  0.88336  1.0000
  H   H1919     1.0  0.53795  0.92230  0.24421  1.0000
  C   C1123     1.0  0.54267  0.92813  0.20844  1.0000
  C   C1124     1.0  0.53654  0.98401  0.93876  1.0000
  H   H1920     1.0  0.55507  0.99509  0.92475  1.0000
  H   H1921     1.0  0.53102  0.94642  0.20719  1.0000
  C   C1125     1.0  0.53934  0.93911  0.13522  1.0000
  H   H1922     1.0  0.52824  0.00208  0.16383  1.0000
  H   H1923     1.0  0.51659  0.94363  0.15771  1.0000
  H   H1924     1.0  0.55842  0.93658  0.22757  1.0000
  N   N80       1.0  0.53352  0.93069  0.18316  1.0000
  H   H1925     1.0  0.52519  0.00274  0.92178  1.0000
  H   H1926     1.0  0.52246  0.93193  0.24666  1.0000
  H   H1927     1.0  0.52447  0.90124  0.16833  1.0000
  H   H1928     1.0  0.54717  0.94472  0.23184  1.0000
  C   C1126     1.0  0.54949  0.93578  0.10387  1.0000
  C   C1127     1.0  0.54574  0.99563  0.93921  1.0000
  H   H1929     1.0  0.53881  0.91211  0.14011  1.0000
  S   S321      1.0  0.51364  0.90108  0.96898  1.0000
  H   H1930     1.0  0.54519  0.99627  0.97449  1.0000
  H   H1931     1.0  0.50993  0.94415  0.21401  1.0000
  H   H1932     1.0  0.53918  0.98323  0.90331  1.0000
  C   C1128     1.0  0.52110  0.99356  0.91863  1.0000
  C   C1129     1.0  0.55171  0.93957  0.21082  1.0000
  H   H1933     1.0  0.54298  0.94878  0.13531  1.0000
  C   C1130     1.0  0.51600  0.97091  0.95715  1.0000
  H   H1934     1.0  0.52554  0.99543  0.99787  1.0000
  H   H1935     1.0  0.52458  0.97976  0.02305  1.0000
  H   H1936     1.0  0.50633  0.99780  0.12282  1.0000
  S   S322      1.0  0.51676  0.93668  0.97582  1.0000
  C   C1131     1.0  0.51437  0.93865  0.19438  1.0000
  H   H1937     1.0  0.50754  0.92972  0.20187  1.0000
  H   H1938     1.0  0.53834  0.97602  0.96053  1.0000
  N   N81       1.0  0.52330  0.98363  0.95361  1.0000
  H   H1939     1.0  0.50745  0.82061  0.27735  1.0000
  H   H1940     1.0  0.50816  0.00526  0.23412  1.0000
  C   C1132     1.0  0.51828  0.96702  0.91268  1.0000
  H   H1941     1.0  0.51778  0.96393  0.98392  1.0000
  H   H1942     1.0  0.50871  0.87847  0.94362  1.0000
  H   H1943     1.0  0.50767  0.99625  0.19559  1.0000
  H   H1944     1.0  0.51136  0.95829  0.91784  1.0000
  C   C1133     1.0  0.50779  0.99274  0.91873  1.0000
  C   C1134     1.0  0.50739  0.00552  0.19908  1.0000
  H   H1945     1.0  0.51345  0.00730  0.06588  1.0000
  C   C1135     1.0  0.50753  0.98382  0.02666  1.0000
  H   H1946     1.0  0.50726  0.98468  0.06151  1.0000
  H   H1947     1.0  0.54214  0.00928  0.20408  1.0000
  S   S323      1.0  0.50597  0.93806  0.08127  1.0000
  H   H1948     1.0  0.50623  0.00195  0.91618  1.0000
  H   H1949     1.0  0.50535  0.81798  0.19635  1.0000
  H   H1950     1.0  0.50612  0.96969  0.96864  1.0000
  H   H1951     1.0  0.50606  0.99030  0.88793  1.0000
  C   C1136     1.0  0.50518  0.89622  0.93153  1.0000
  H   H1952     1.0  0.76963  0.25219  0.93117  1.0000
  H   H1953     1.0  0.76643  0.25215  0.98974  1.0000
  C   C1137     1.0  0.77103  0.25805  0.95412  1.0000
  H   H1954     1.0  0.75535  0.25454  0.85499  1.0000
  Fe  Fe161     1.0  0.79256  0.39528  0.05086  1.0000
  S   S324      1.0  0.78765  0.41116  0.07222  1.0000
  S   S325      1.0  0.80600  0.39550  0.98613  1.0000
  Fe  Fe162     1.0  0.77714  0.37719  0.14170  1.0000
  S   S326      1.0  0.77134  0.39187  0.17049  1.0000
  S   S327      1.0  0.77120  0.35722  0.18271  1.0000
  Fe  Fe163     1.0  0.76836  0.39861  0.10082  1.0000
  Fe  Fe164     1.0  0.79110  0.40301  0.13986  1.0000
  S   S328      1.0  0.80618  0.41474  0.16210  1.0000
  S   S329      1.0  0.77338  0.38335  0.07435  1.0000
  S   S330      1.0  0.79676  0.38764  0.11627  1.0000
  C   C1138     1.0  0.00036  0.42953  0.95748  1.0000
  Fe  Fe165     1.0  0.78011  0.29247  0.08993  1.0000
  S   S331      1.0  0.78045  0.31107  0.04870  1.0000
  S   S332      1.0  0.79261  0.29107  0.13768  1.0000
  Fe  Fe166     1.0  0.75913  0.27866  0.05454  1.0000
  H   H1955     1.0  0.78604  0.34456  0.24368  1.0000
  Fe  Fe167     1.0  0.77879  0.30229  0.99241  1.0000
  S   S333      1.0  0.78769  0.31309  0.91787  1.0000
  Fe  Fe168     1.0  0.86051  0.33638  0.24963  1.0000
  S   S334      1.0  0.84335  0.32364  0.30179  1.0000
  S   S335      1.0  0.87473  0.32899  0.21214  1.0000
  Fe  Fe169     1.0  0.85222  0.35881  0.25438  1.0000
  S   S336      1.0  0.83434  0.34800  0.30449  1.0000
  S   S337      1.0  0.85680  0.37912  0.22221  1.0000
  Fe  Fe170     1.0  0.84552  0.33792  0.34121  1.0000
  S   S338      1.0  0.84089  0.33475  0.41978  1.0000
  Fe  Fe171     1.0  0.83373  0.33481  0.26089  1.0000
  S   S339      1.0  0.81748  0.32980  0.23139  1.0000
  S   S340      1.0  0.86347  0.34944  0.29191  1.0000
  S   S341      1.0  0.85087  0.34681  0.20807  1.0000
  Fe  Fe172     1.0  0.85365  0.36279  0.71158  1.0000
  S   S342      1.0  0.87156  0.36689  0.66001  1.0000
  S   S343      1.0  0.84503  0.37781  0.72140  1.0000
  Fe  Fe173     1.0  0.85200  0.33611  0.74737  1.0000
  S   S344      1.0  0.87009  0.33823  0.69817  1.0000
  S   S345      1.0  0.84173  0.31894  0.80604  1.0000
  Fe  Fe174     1.0  0.87669  0.35561  0.71777  1.0000
  S   S346      1.0  0.89526  0.36161  0.73172  1.0000
  Fe  Fe175     1.0  0.86331  0.34938  0.64449  1.0000
  S   S347      1.0  0.86749  0.35021  0.56735  1.0000
  S   S348      1.0  0.85910  0.35252  0.76986  1.0000
  S   S349      1.0  0.84487  0.34618  0.69315  1.0000
  Fe  Fe176     1.0  0.86881  0.42455  0.34682  1.0000
  S   S350      1.0  0.85106  0.41715  0.40118  1.0000
  S   S351      1.0  0.88034  0.41190  0.33302  1.0000
  Fe  Fe177     1.0  0.86596  0.44992  0.32386  1.0000
  S   S352      1.0  0.84782  0.44444  0.37728  1.0000
  S   S353      1.0  0.87398  0.46914  0.27584  1.0000
  Fe  Fe178     1.0  0.85693  0.43410  0.42413  1.0000
  S   S354      1.0  0.85443  0.43100  0.50253  1.0000
  Fe  Fe179     1.0  0.84363  0.42800  0.34963  1.0000
  S   S355      1.0  0.82551  0.41861  0.33817  1.0000
  S   S356      1.0  0.87523  0.44072  0.37181  1.0000
  S   S357      1.0  0.86122  0.43430  0.29419  1.0000
  Fe  Fe180     1.0  0.85734  0.44542  0.81163  1.0000
  S   S358      1.0  0.87273  0.46177  0.76666  1.0000
  S   S359      1.0  0.83850  0.44623  0.84427  1.0000
  Fe  Fe181     1.0  0.87273  0.42800  0.80471  1.0000
  S   S360      1.0  0.88923  0.44285  0.75942  1.0000
  S   S361      1.0  0.87351  0.40854  0.82628  1.0000
  Fe  Fe182     1.0  0.88431  0.45386  0.80859  1.0000
  S   S362      1.0  0.89658  0.46156  0.85087  1.0000
  Fe  Fe183     1.0  0.87613  0.44910  0.72175  1.0000
  S   S363      1.0  0.87915  0.45337  0.64309  1.0000
  S   S364      1.0  0.86841  0.43833  0.85546  1.0000
  S   S365      1.0  0.86014  0.43352  0.76510  1.0000
  Fe  Fe184     1.0  0.96565  0.49728  0.03386  1.0000
  S   S366      1.0  0.95575  0.48369  0.10237  1.0000
  Fe  Fe185     1.0  0.94364  0.48855  0.99349  1.0000
  S   S367      1.0  0.93266  0.47473  0.06039  1.0000
  S   S368      1.0  0.93627  0.49130  0.93014  1.0000
  Fe  Fe186     1.0  0.93913  0.48931  0.09260  1.0000
  S   S369      1.0  0.92765  0.49431  0.14967  1.0000
  Fe  Fe187     1.0  0.95028  0.47050  0.06337  1.0000
  S   S370      1.0  0.95231  0.45142  0.08296  1.0000
  H   H1956     1.0  0.98966  0.45284  0.05641  1.0000
  S   S371      1.0  0.96110  0.48346  0.99474  1.0000
  Fe  Fe188     1.0  0.92524  0.40249  0.99107  1.0000
  S   S372      1.0  0.93833  0.40981  0.92113  1.0000
  S   S373      1.0  0.91555  0.41447  0.02313  1.0000
  Fe  Fe189     1.0  0.92741  0.37686  0.00061  1.0000
  S   S374      1.0  0.94133  0.38249  0.93172  1.0000
  S   S375      1.0  0.92039  0.35667  0.03918  1.0000
  Fe  Fe190     1.0  0.92850  0.39263  0.90731  1.0000
  S   S376      1.0  0.92144  0.39379  0.84345  1.0000
  S   S377      1.0  0.93691  0.39236  0.02341  1.0000
  S   S378      1.0  0.91454  0.38641  0.97551  1.0000
  C   C1139     1.0  0.94204  0.44126  0.06619  1.0000
  C   C1140     1.0  0.94580  0.43232  0.04780  1.0000
  C   C1141     1.0  0.93777  0.42435  0.03328  1.0000
  C   C1142     1.0  0.92579  0.42491  0.03893  1.0000
  C   C1143     1.0  0.92191  0.43365  0.05839  1.0000
  C   C1144     1.0  0.93007  0.44190  0.07158  1.0000
  H   H1957     1.0  0.95501  0.43171  0.04383  1.0000
  H   H1958     1.0  0.94092  0.41778  0.01766  1.0000
  H   H1959     1.0  0.91265  0.43411  0.06284  1.0000
  H   H1960     1.0  0.92703  0.44860  0.08664  1.0000
  C   C1145     1.0  0.90740  0.46988  0.87382  1.0000
  C   C1146     1.0  0.90795  0.46509  0.91885  1.0000
  C   C1147     1.0  0.91676  0.47131  0.93663  1.0000
  C   C1148     1.0  0.92504  0.48261  0.90995  1.0000
  C   C1149     1.0  0.92431  0.48745  0.86538  1.0000
  C   C1150     1.0  0.91568  0.48114  0.84740  1.0000
  H   H1961     1.0  0.90161  0.45645  0.93999  1.0000
  H   H1962     1.0  0.91715  0.46736  0.97088  1.0000
  H   H1963     1.0  0.93059  0.49614  0.84422  1.0000
  H   H1964     1.0  0.91546  0.48502  0.81281  1.0000
  C   C1151     1.0  0.86168  0.43733  0.54058  1.0000
  C   C1152     1.0  0.85706  0.43173  0.58820  1.0000
  C   C1153     1.0  0.86223  0.43643  0.61987  1.0000
  C   C1154     1.0  0.87223  0.44685  0.60462  1.0000
  C   C1155     1.0  0.87691  0.45239  0.55698  1.0000
  C   C1156     1.0  0.87173  0.44770  0.52528  1.0000
  H   H1965     1.0  0.84931  0.42371  0.60075  1.0000
  H   H1966     1.0  0.85851  0.43189  0.65610  1.0000
  H   H1967     1.0  0.88461  0.46046  0.54436  1.0000
  H   H1968     1.0  0.87545  0.45221  0.48897  1.0000
  C   C1157     1.0  0.88942  0.47435  0.24442  1.0000
  C   C1158     1.0  0.89401  0.46995  0.20775  1.0000
  C   C1159     1.0  0.90595  0.47560  0.17904  1.0000
  C   C1160     1.0  0.91319  0.48580  0.18662  1.0000
  C   C1161     1.0  0.90856  0.49004  0.22342  1.0000
  C   C1162     1.0  0.89676  0.48440  0.25196  1.0000
  H   H1969     1.0  0.88817  0.46253  0.20054  1.0000
  H   H1970     1.0  0.90941  0.47230  0.15050  1.0000
  H   H1971     1.0  0.91403  0.49797  0.22929  1.0000
  H   H1972     1.0  0.89319  0.48808  0.27934  1.0000
  C   C1163     1.0  0.85247  0.38587  0.75308  1.0000
  C   C1164     1.0  0.86337  0.38396  0.75991  1.0000
  C   C1165     1.0  0.86950  0.39061  0.78415  1.0000
  C   C1166     1.0  0.86495  0.39942  0.80063  1.0000
  C   C1167     1.0  0.85396  0.40125  0.79441  1.0000
  C   C1168     1.0  0.84772  0.39448  0.77057  1.0000
  H   H1973     1.0  0.86739  0.37775  0.74499  1.0000
  H   H1974     1.0  0.87806  0.38931  0.78847  1.0000
  H   H1975     1.0  0.85022  0.40779  0.80834  1.0000
  H   H1976     1.0  0.83929  0.39598  0.76541  1.0000
  C   C1169     1.0  0.90173  0.36949  0.76775  1.0000
  C   C1170     1.0  0.89498  0.37344  0.80176  1.0000
  C   C1171     1.0  0.90086  0.38022  0.82723  1.0000
  C   C1172     1.0  0.91355  0.38295  0.81965  1.0000
  C   C1173     1.0  0.92018  0.37878  0.78623  1.0000
  C   C1174     1.0  0.91434  0.37205  0.76098  1.0000
  H   H1977     1.0  0.88527  0.37151  0.80771  1.0000
  H   H1978     1.0  0.89559  0.38373  0.85159  1.0000
  H   H1979     1.0  0.92996  0.38117  0.77842  1.0000
  H   H1980     1.0  0.91972  0.36915  0.73478  1.0000
  C   C1175     1.0  0.84851  0.33927  0.46001  1.0000
  C   C1176     1.0  0.86099  0.34497  0.44794  1.0000
  C   C1177     1.0  0.86657  0.34804  0.48127  1.0000
  C   C1178     1.0  0.85984  0.34561  0.52728  1.0000
  C   C1179     1.0  0.84735  0.34006  0.53923  1.0000
  C   C1180     1.0  0.84178  0.33688  0.50598  1.0000
  H   H1981     1.0  0.86637  0.34685  0.41302  1.0000
  H   H1982     1.0  0.87623  0.35231  0.47130  1.0000
  H   H1983     1.0  0.84197  0.33811  0.57420  1.0000
  H   H1984     1.0  0.83215  0.33245  0.51606  1.0000
  C   C1181     1.0  0.88693  0.33744  0.16298  1.0000
  C   C1182     1.0  0.88833  0.34962  0.13833  1.0000
  C   C1183     1.0  0.89856  0.35581  0.09998  1.0000
  C   C1184     1.0  0.90727  0.34975  0.08621  1.0000
  C   C1185     1.0  0.90552  0.33750  0.11004  1.0000
  C   C1186     1.0  0.89549  0.33143  0.14807  1.0000
  H   H1985     1.0  0.88159  0.35423  0.14887  1.0000
  H   H1986     1.0  0.89972  0.36521  0.08112  1.0000
  H   H1987     1.0  0.91213  0.33272  0.09961  1.0000
  H   H1988     1.0  0.89447  0.32203  0.16659  1.0000
  C   C1187     1.0  0.86308  0.38799  0.25422  1.0000
  C   C1188     1.0  0.86691  0.38266  0.29140  1.0000
  C   C1189     1.0  0.87247  0.39006  0.31502  1.0000
  C   C1190     1.0  0.87377  0.40271  0.30260  1.0000
  C   C1191     1.0  0.86981  0.40798  0.26579  1.0000
  C   C1192     1.0  0.86459  0.40066  0.24136  1.0000
  H   H1989     1.0  0.86564  0.37289  0.30197  1.0000
  H   H1990     1.0  0.87549  0.38592  0.34354  1.0000
  H   H1991     1.0  0.87094  0.41774  0.25549  1.0000
  H   H1992     1.0  0.86165  0.40482  0.21265  1.0000
  C   C1193     1.0  0.80040  0.30225  0.16042  1.0000
  C   C1194     1.0  0.80560  0.29830  0.19569  1.0000
  C   C1195     1.0  0.81139  0.30666  0.21617  1.0000
  C   C1196     1.0  0.81224  0.31921  0.20138  1.0000
  C   C1197     1.0  0.80722  0.32320  0.16551  1.0000
  C   C1198     1.0  0.80142  0.31483  0.14506  1.0000
  H   H1993     1.0  0.80483  0.28862  0.20820  1.0000
  H   H1994     1.0  0.81475  0.30327  0.24473  1.0000
  H   H1995     1.0  0.80756  0.33281  0.15417  1.0000
  C   C1199     1.0  0.80277  0.31460  0.88799  1.0000
  C   C1200     1.0  0.80743  0.32221  0.84278  1.0000
  C   C1201     1.0  0.81937  0.32365  0.81750  1.0000
  C   C1202     1.0  0.82673  0.31739  0.83712  1.0000
  C   C1203     1.0  0.82202  0.30965  0.88219  1.0000
  C   C1204     1.0  0.81011  0.30832  0.90773  1.0000
  H   H1996     1.0  0.80177  0.32702  0.82715  1.0000
  H   H1997     1.0  0.82286  0.32950  0.78263  1.0000
  H   H1998     1.0  0.82765  0.30471  0.89744  1.0000
  H   H1999     1.0  0.80659  0.30238  0.94247  1.0000
  C   C1205     1.0  0.81456  0.40957  0.94544  1.0000
  C   C1206     1.0  0.82585  0.41022  0.91687  1.0000
  C   C1207     1.0  0.83316  0.42141  0.88550  1.0000
  C   C1208     1.0  0.82914  0.43200  0.88185  1.0000
  C   C1209     1.0  0.81770  0.43129  0.90943  1.0000
  C   C1210     1.0  0.81046  0.42012  0.94142  1.0000
  H   H2000     1.0  0.82909  0.40212  0.91975  1.0000
  H   H2001     1.0  0.84194  0.42184  0.86438  1.0000
  H   H2002     1.0  0.81451  0.43944  0.90655  1.0000
  H   H2003     1.0  0.80169  0.41965  0.96287  1.0000
  C   C1211     1.0  0.81118  0.41591  0.21186  1.0000
  C   C1212     1.0  0.82299  0.42317  0.20599  1.0000
  C   C1213     1.0  0.82754  0.42408  0.24386  1.0000
  C   C1214     1.0  0.82030  0.41788  0.28861  1.0000
  C   C1215     1.0  0.80845  0.41074  0.29452  1.0000
  C   C1216     1.0  0.80393  0.40974  0.25664  1.0000
  H   H2004     1.0  0.82876  0.42805  0.17193  1.0000
  H   H2005     1.0  0.83664  0.42964  0.23848  1.0000
  H   H2006     1.0  0.80269  0.40598  0.32883  1.0000
  H   H2007     1.0  0.79479  0.40425  0.26221  1.0000
  C   C1217     1.0  0.80672  0.38052  0.22784  1.0000
  C   C1218     1.0  0.76499  0.34665  0.15568  1.0000
  C   C1219     1.0  0.78517  0.33571  0.23508  1.0000
  H   H2008     1.0  0.00193  0.48657  0.00307  1.0000
  C   C1220     1.0  0.76544  0.26892  0.94505  1.0000
  C   C1221     1.0  0.76742  0.33448  0.10167  1.0000
  C   C1222     1.0  0.77225  0.34410  0.11886  1.0000
  N   N82       1.0  0.76978  0.31446  0.25502  1.0000
  H   H2009     1.0  0.98795  0.44713  0.96802  1.0000
  H   H2010     1.0  0.77309  0.33245  0.07369  1.0000
  H   H2011     1.0  0.78168  0.34929  0.10458  1.0000
  N   N83       1.0  0.83418  0.45287  0.68146  1.0000
  C   C1223     1.0  0.84334  0.45880  0.63497  1.0000
  C   C1224     1.0  0.83638  0.46133  0.71080  1.0000
  C   C1225     1.0  0.82163  0.45153  0.67511  1.0000
  C   C1226     1.0  0.83607  0.44050  0.70051  1.0000
  C   C1227     1.0  0.84085  0.45344  0.59581  1.0000
  C   C1228     1.0  0.84896  0.46369  0.71933  1.0000
  C   C1229     1.0  0.81120  0.45034  0.71709  1.0000
  H   H2012     1.0  0.84410  0.46881  0.62319  1.0000
  H   H2013     1.0  0.85260  0.45826  0.63652  1.0000
  H   H2014     1.0  0.82973  0.45793  0.74514  1.0000
  H   H2015     1.0  0.83513  0.47043  0.69521  1.0000
  H   H2016     1.0  0.82155  0.45970  0.64853  1.0000
  H   H2017     1.0  0.81894  0.44346  0.66213  1.0000
  H   H2018     1.0  0.83417  0.43440  0.67867  1.0000
  H   H2019     1.0  0.84576  0.44126  0.69873  1.0000
  H   H2020     1.0  0.98964  0.48745  0.92545  1.0000
  H   H2021     1.0  0.83331  0.45620  0.58415  1.0000
  H   H2022     1.0  0.84903  0.45716  0.56583  1.0000
  H   H2023     1.0  0.84942  0.46980  0.74202  1.0000
  H   H2024     1.0  0.85048  0.45505  0.73743  1.0000
  H   H2025     1.0  0.99634  0.46209  0.10953  1.0000
  H   H2026     1.0  0.80247  0.44822  0.70835  1.0000
  H   H2027     1.0  0.78697  0.33804  0.19738  1.0000
  H   H2028     1.0  0.76576  0.33201  0.24817  1.0000
  C   C1230     1.0  0.83864  0.45078  0.06880  1.0000
  N   N84       1.0  0.85992  0.38579  0.49160  1.0000
  C   C1231     1.0  0.84964  0.37655  0.53005  1.0000
  C   C1232     1.0  0.85583  0.38699  0.44864  1.0000
  C   C1233     1.0  0.86182  0.39795  0.50255  1.0000
  C   C1234     1.0  0.87114  0.38128  0.48848  1.0000
  C   C1235     1.0  0.85122  0.37467  0.57872  1.0000
  C   C1236     1.0  0.85283  0.37510  0.43407  1.0000
  C   C1237     1.0  0.87232  0.40865  0.46883  1.0000
  C   C1238     1.0  0.88116  0.38624  0.44221  1.0000
  H   H2029     1.0  0.84095  0.37904  0.53107  1.0000
  H   H2030     1.0  0.84813  0.36727  0.52451  1.0000
  H   H2031     1.0  0.86254  0.39404  0.41880  1.0000
  H   H2032     1.0  0.84756  0.39035  0.45268  1.0000
  H   H2033     1.0  0.85338  0.40103  0.50570  1.0000
  H   H2034     1.0  0.86381  0.39712  0.53608  1.0000
  H   H2035     1.0  0.87538  0.38314  0.51565  1.0000
  H   H2036     1.0  0.86858  0.37115  0.49548  1.0000
  H   H2037     1.0  0.84419  0.36631  0.60211  1.0000
  H   H2038     1.0  0.86012  0.37315  0.58032  1.0000
  H   H2039     1.0  0.84981  0.38241  0.59265  1.0000
  H   H2040     1.0  0.86019  0.37052  0.43239  1.0000
  H   H2041     1.0  0.84423  0.36849  0.45706  1.0000
  H   H2042     1.0  0.85150  0.37741  0.39935  1.0000
  H   H2043     1.0  0.87151  0.41069  0.43349  1.0000
  H   H2044     1.0  0.88124  0.40702  0.46944  1.0000
  H   H2045     1.0  0.87219  0.41712  0.47963  1.0000
  H   H2046     1.0  0.89016  0.38798  0.44901  1.0000
  H   H2047     1.0  0.88097  0.39487  0.41927  1.0000
  H   H2048     1.0  0.88100  0.37914  0.42354  1.0000
  H   H2049     1.0  0.82688  0.43866  0.77326  1.0000
  H   H2050     1.0  0.88725  0.50048  0.10262  1.0000
  H   H2051     1.0  0.85643  0.46836  0.68742  1.0000
  H   H2052     1.0  0.79907  0.29624  0.83658  1.0000
  H   H2053     1.0  0.82901  0.29076  0.17521  1.0000
  H   H2054     1.0  0.89984  0.48939  0.10378  1.0000
  H   H2055     1.0  0.97385  0.46443  0.00248  1.0000
  N   N85       1.0  0.90171  0.38562  0.17235  1.0000
  C   C1239     1.0  0.90452  0.37348  0.18729  1.0000
  C   C1240     1.0  0.91217  0.39371  0.13207  1.0000
  C   C1241     1.0  0.89034  0.38311  0.15711  1.0000
  C   C1242     1.0  0.89985  0.39096  0.21241  1.0000
  C   C1243     1.0  0.89454  0.36335  0.22619  1.0000
  C   C1244     1.0  0.92476  0.39596  0.14081  1.0000
  C   C1245     1.0  0.88615  0.39431  0.13709  1.0000
  C   C1246     1.0  0.90194  0.40506  0.20136  1.0000
  H   H2056     1.0  0.90670  0.36963  0.15780  1.0000
  H   H2057     1.0  0.91272  0.37467  0.19987  1.0000
  H   H2058     1.0  0.91091  0.40287  0.11896  1.0000
  H   H2059     1.0  0.91274  0.38975  0.10251  1.0000
  H   H2060     1.0  0.89140  0.37801  0.13087  1.0000
  H   H2061     1.0  0.88246  0.37713  0.18612  1.0000
  H   H2062     1.0  0.89055  0.38655  0.23591  1.0000
  H   H2063     1.0  0.90613  0.38878  0.23310  1.0000
  H   H2064     1.0  0.89162  0.36646  0.25685  1.0000
  H   H2065     1.0  0.88657  0.35980  0.21474  1.0000
  H   H2066     1.0  0.89813  0.35538  0.23688  1.0000
  H   H2067     1.0  0.92469  0.39839  0.17315  1.0000
  H   H2068     1.0  0.92834  0.38785  0.14081  1.0000
  H   H2069     1.0  0.93127  0.40372  0.11247  1.0000
  H   H2070     1.0  0.88307  0.39878  0.16357  1.0000
  H   H2071     1.0  0.87810  0.39106  0.12542  1.0000
  H   H2072     1.0  0.89306  0.40103  0.10680  1.0000
  H   H2073     1.0  0.89550  0.40706  0.22863  1.0000
  H   H2074     1.0  0.90053  0.40958  0.16866  1.0000
  H   H2075     1.0  0.91110  0.40955  0.20285  1.0000
  H   H2076     1.0  0.97242  0.44636  0.97255  1.0000
  C   C1247     1.0  0.99428  0.48227  0.99110  1.0000
  C   C1248     1.0  0.90644  0.49085  0.07048  1.0000
  H   H2077     1.0  0.98598  0.48369  0.01193  1.0000
  S   S379      1.0  0.75837  0.29688  0.01296  1.0000
  H   H2078     1.0  0.77600  0.29807  0.26760  1.0000
  S   S380      1.0  0.98571  0.50876  0.01769  1.0000
  H   H2079     1.0  0.91469  0.48914  0.07954  1.0000
  H   H2080     1.0  0.81204  0.45914  0.72615  1.0000
  H   H2081     1.0  0.77472  0.29875  0.34188  1.0000
  C   C1249     1.0  0.99684  0.49025  0.94164  1.0000
  C   C1250     1.0  0.99847  0.46836  0.07453  1.0000
  C   C1251     1.0  0.77871  0.30778  0.26837  1.0000
  H   H2082     1.0  0.97709  0.44362  0.02343  1.0000
  H   H2083     1.0  0.81044  0.44290  0.74745  1.0000
  C   C1252     1.0  0.91838  0.50449  0.99574  1.0000
  Fe  Fe191     1.0  0.76023  0.30404  0.07299  1.0000
  H   H2084     1.0  0.79036  0.30707  0.31358  1.0000
  H   H2085     1.0  0.78566  0.30113  0.83849  1.0000
  H   H2086     1.0  0.78769  0.31156  0.24254  1.0000
  S   S381      1.0  0.94916  0.50379  0.02576  1.0000
  H   H2087     1.0  0.78039  0.32048  0.18358  1.0000
  C   C1253     1.0  0.90143  0.48049  0.05055  1.0000
  H   H2088     1.0  0.77404  0.26464  0.85773  1.0000
  C   C1254     1.0  0.77095  0.31574  0.20498  1.0000
  H   H2089     1.0  0.76471  0.29230  0.85694  1.0000
  H   H2090     1.0  0.99445  0.42582  0.89977  1.0000
  H   H2091     1.0  0.98309  0.46768  0.94681  1.0000
  H   H2092     1.0  0.79223  0.33175  0.24575  1.0000
  H   H2093     1.0  0.78846  0.28948  0.81044  1.0000
  H   H2094     1.0  0.82859  0.37111  0.94041  1.0000
  N   N86       1.0  0.83063  0.43659  0.02164  1.0000
  C   C1255     1.0  0.83297  0.42528  0.00928  1.0000
  C   C1256     1.0  0.81711  0.43486  0.03398  1.0000
  C   C1257     1.0  0.83549  0.43782  0.06179  1.0000
  C   C1258     1.0  0.82601  0.41282  0.04500  1.0000
  C   C1259     1.0  0.81254  0.44546  0.04659  1.0000
  H   H2095     1.0  0.83084  0.42483  0.97671  1.0000
  H   H2096     1.0  0.84275  0.42563  0.00287  1.0000
  H   H2097     1.0  0.83234  0.44625  0.95166  1.0000
  H   H2098     1.0  0.81348  0.43292  0.00555  1.0000
  H   H2099     1.0  0.81238  0.42678  0.06424  1.0000
  H   H2100     1.0  0.82897  0.43146  0.09413  1.0000
  H   H2101     1.0  0.81631  0.41029  0.04571  1.0000
  H   H2102     1.0  0.82976  0.40548  0.03510  1.0000
  H   H2103     1.0  0.82677  0.41274  0.07976  1.0000
  H   H2104     1.0  0.81396  0.44643  0.07969  1.0000
  H   H2105     1.0  0.80257  0.44314  0.05183  1.0000
  H   H2106     1.0  0.81647  0.45427  0.01925  1.0000
  H   H2107     1.0  0.83381  0.45713  0.05417  1.0000
  N   N87       1.0  0.90599  0.42637  0.88411  1.0000
  C   C1260     1.0  0.91174  0.43605  0.90403  1.0000
  C   C1261     1.0  0.89337  0.42745  0.88562  1.0000
  C   C1262     1.0  0.91338  0.42943  0.83496  1.0000
  C   C1263     1.0  0.90607  0.41388  0.91126  1.0000
  C   C1264     1.0  0.92508  0.43727  0.90336  1.0000
  C   C1265     1.0  0.88521  0.42622  0.93337  1.0000
  C   C1266     1.0  0.90858  0.42152  0.80594  1.0000
  C   C1267     1.0  0.89628  0.40266  0.91090  1.0000
  H   H2108     1.0  0.91126  0.44527  0.88576  1.0000
  H   H2109     1.0  0.90679  0.43430  0.94060  1.0000
  H   H2110     1.0  0.88836  0.42063  0.87208  1.0000
  H   H2111     1.0  0.89378  0.43643  0.86250  1.0000
  H   H2112     1.0  0.91441  0.43919  0.81669  1.0000
  H   H2113     1.0  0.92270  0.42854  0.83298  1.0000
  H   H2114     1.0  0.91508  0.41223  0.89975  1.0000
  H   H2115     1.0  0.90472  0.41357  0.94795  1.0000
  H   H2116     1.0  0.92780  0.44390  0.92247  1.0000
  H   H2117     1.0  0.92635  0.42846  0.92088  1.0000
  H   H2118     1.0  0.93131  0.44100  0.86820  1.0000
  H   H2119     1.0  0.88726  0.43506  0.94209  1.0000
  H   H2120     1.0  0.87557  0.42404  0.93311  1.0000
  H   H2121     1.0  0.88613  0.41881  0.96054  1.0000
  H   H2122     1.0  0.89937  0.42181  0.80397  1.0000
  H   H2123     1.0  0.90892  0.41192  0.81804  1.0000
  H   H2124     1.0  0.91460  0.42518  0.77035  1.0000
  H   H2125     1.0  0.90001  0.39460  0.91397  1.0000
  H   H2126     1.0  0.89322  0.40363  0.87963  1.0000
  H   H2127     1.0  0.88835  0.40006  0.94146  1.0000
  C   C1268     1.0  0.83668  0.44735  0.97941  1.0000
  H   H2128     1.0  0.84398  0.43488  0.05876  1.0000
  Fe  Fe192     1.0  0.94990  0.39914  0.95244  1.0000
  H   H2129     1.0  0.75881  0.36669  0.02378  1.0000
  H   H2130     1.0  0.83546  0.45612  0.98511  1.0000
  H   H2131     1.0  0.83630  0.44981  0.10614  1.0000
  C   C1269     1.0  0.76727  0.30373  0.19190  1.0000
  H   H2132     1.0  0.83745  0.40389  0.14519  1.0000
  C   C1270     1.0  0.82844  0.43302  0.74959  1.0000
  H   H2133     1.0  0.81231  0.36433  0.95438  1.0000
  C   C1271     1.0  0.85039  0.44940  0.95915  1.0000
  H   H2134     1.0  0.85537  0.44929  0.98543  1.0000
  H   H2135     1.0  0.84857  0.45514  0.05574  1.0000
  H   H2136     1.0  0.90237  0.31754  0.98915  1.0000
  H   H2137     1.0  0.90395  0.32266  0.92932  1.0000
  H   H2138     1.0  0.91710  0.32498  0.95132  1.0000
  H   H2139     1.0  0.85422  0.45849  0.93296  1.0000
  C   C1272     1.0  0.88637  0.50218  0.06744  1.0000
  C   C1273     1.0  0.90747  0.32503  0.95728  1.0000
  H   H2140     1.0  0.83346  0.42690  0.76496  1.0000
  H   H2141     1.0  0.85212  0.44245  0.94113  1.0000
  C   C1274     1.0  0.78922  0.29298  0.84016  1.0000
  H   H2142     1.0  0.92705  0.34261  0.90051  1.0000
  H   H2143     1.0  0.81964  0.42721  0.74955  1.0000
  H   H2144     1.0  0.91034  0.33969  0.86756  1.0000
  H   H2145     1.0  0.89067  0.33789  0.86355  1.0000
  H   H2146     1.0  0.89766  0.47170  0.07840  1.0000
  H   H2147     1.0  0.79751  0.31809  0.11797  1.0000
  C   C1275     1.0  0.92440  0.35058  0.90961  1.0000
  C   C1276     1.0  0.90556  0.33730  0.96422  1.0000
  H   H2148     1.0  0.92796  0.35169  0.93923  1.0000
  H   H2149     1.0  0.94152  0.36333  0.86559  1.0000
  H   H2150     1.0  0.84350  0.31065  0.08723  1.0000
  C   C1277     1.0  0.91990  0.42963  0.30268  1.0000
  C   C1278     1.0  0.78315  0.28293  0.88629  1.0000
  C   C1279     1.0  0.75524  0.32761  0.12056  1.0000
  C   C1280     1.0  0.90647  0.34639  0.88213  1.0000
  H   H2151     1.0  0.89565  0.33555  0.97830  1.0000
  H   H2152     1.0  0.90940  0.33903  0.99256  1.0000
  C   C1281     1.0  0.82036  0.37113  0.92866  1.0000
  H   H2153     1.0  0.83776  0.33145  0.09941  1.0000
  H   H2154     1.0  0.76804  0.29471  0.90751  1.0000
  H   H2155     1.0  0.77992  0.31532  0.32764  1.0000
  H   H2156     1.0  0.78518  0.28710  0.91362  1.0000
  N   N88       1.0  0.91080  0.34834  0.92263  1.0000
  C   C1282     1.0  0.93170  0.36182  0.86834  1.0000
  C   C1283     1.0  0.89267  0.34278  0.88896  1.0000
  H   H2157     1.0  0.93046  0.36026  0.83571  1.0000
  C   C1284     1.0  0.78083  0.30722  0.31571  1.0000
  N   N89       1.0  0.76967  0.27725  0.89677  1.0000
  C   C1285     1.0  0.76361  0.28754  0.89336  1.0000
  H   H2158     1.0  0.76533  0.32157  0.19275  1.0000
  H   H2159     1.0  0.91416  0.49849  0.97695  1.0000
  H   H2160     1.0  0.91003  0.35496  0.85319  1.0000
  H   H2161     1.0  0.88928  0.35107  0.88336  1.0000
  H   H2162     1.0  0.88745  0.33624  0.92259  1.0000
  S   S382      1.0  0.77983  0.28387  0.03120  1.0000
  H   H2163     1.0  0.76725  0.27432  0.96927  1.0000
  H   H2164     1.0  0.88654  0.41214  0.55211  1.0000
  H   H2165     1.0  0.76902  0.30611  0.15416  1.0000
  H   H2166     1.0  0.88322  0.42654  0.55398  1.0000
  C   C1286     1.0  0.90805  0.35960  0.93430  1.0000
  H   H2167     1.0  0.89496  0.35311  0.00261  1.0000
  H   H2168     1.0  0.92606  0.50097  0.00309  1.0000
  H   H2169     1.0  0.00129  0.47158  0.90615  1.0000
  H   H2170     1.0  0.83884  0.44332  0.60513  1.0000
  H   H2171     1.0  0.78820  0.27586  0.88579  1.0000
  H   H2172     1.0  0.96853  0.40825  0.03106  1.0000
  H   H2173     1.0  0.85633  0.40721  0.65394  1.0000
  C   C1287     1.0  0.89548  0.35789  0.96688  1.0000
  H   H2174     1.0  0.91472  0.36370  0.95083  1.0000
  H   H2175     1.0  0.88792  0.35296  0.95650  1.0000
  H   H2176     1.0  0.83323  0.29012  0.11704  1.0000
  C   C1288     1.0  0.89012  0.42136  0.55560  1.0000
  H   H2177     1.0  0.86724  0.41021  0.60050  1.0000
  C   C1289     1.0  0.86516  0.40586  0.63756  1.0000
  H   H2178     1.0  0.86364  0.39578  0.64441  1.0000
  H   H2179     1.0  0.90907  0.36691  0.90284  1.0000
  H   H2180     1.0  0.89414  0.36707  0.96694  1.0000
  H   H2181     1.0  0.89800  0.42597  0.52490  1.0000
  H   H2182     1.0  0.89380  0.43025  0.60546  1.0000
  S   S383      1.0  0.97046  0.40898  0.93417  1.0000
  C   C1290     1.0  0.89436  0.42131  0.59898  1.0000
  H   H2183     1.0  0.92945  0.37041  0.87183  1.0000
  H   H2184     1.0  0.88260  0.39646  0.60898  1.0000
  H   H2185     1.0  0.87460  0.42118  0.65623  1.0000
  C   C1291     1.0  0.87476  0.41150  0.65920  1.0000
  H   H2186     1.0  0.90428  0.42224  0.58995  1.0000
  N   N90       1.0  0.88757  0.41085  0.64147  1.0000
  H   H2187     1.0  0.87117  0.40670  0.69637  1.0000
  C   C1292     1.0  0.81917  0.36377  0.19430  1.0000
  C   C1293     1.0  0.88747  0.39843  0.63420  1.0000
  H   H2188     1.0  0.90473  0.39570  0.64559  1.0000
  H   H2189     1.0  0.88360  0.42191  0.71746  1.0000
  H   H2190     1.0  0.91811  0.45187  0.30944  1.0000
  H   H2191     1.0  0.83238  0.31097  0.13387  1.0000
  C   C1294     1.0  0.90000  0.39620  0.61844  1.0000
  H   H2192     1.0  0.88234  0.39110  0.66664  1.0000
  H   H2193     1.0  0.90581  0.40319  0.58641  1.0000
  H   H2194     1.0  0.89312  0.44412  0.23672  1.0000
  C   C1295     1.0  0.89303  0.42297  0.69777  1.0000
  H   H2195     1.0  0.89857  0.42313  0.72229  1.0000
  C   C1296     1.0  0.89398  0.41210  0.67785  1.0000
  C   C1297     1.0  0.97735  0.41417  0.01025  1.0000
  H   H2196     1.0  0.90384  0.41313  0.66465  1.0000
  C   C1298     1.0  0.91197  0.43224  0.27004  1.0000
  H   H2197     1.0  0.82307  0.39466  0.14759  1.0000
  H   H2198     1.0  0.83602  0.38823  0.14743  1.0000
  H   H2199     1.0  0.89869  0.38711  0.61143  1.0000
  H   H2200     1.0  0.89047  0.40364  0.70748  1.0000
  H   H2201     1.0  0.91153  0.43456  0.17772  1.0000
  H   H2202     1.0  0.84217  0.36248  0.86713  1.0000
  H   H2203     1.0  0.89656  0.43198  0.67131  1.0000
  N   N91       1.0  0.82274  0.35663  0.87730  1.0000
  H   H2204     1.0  0.82594  0.39955  0.22230  1.0000
  C   C1299     1.0  0.83113  0.39450  0.16029  1.0000
  H   H2205     1.0  0.80499  0.38957  0.22756  1.0000
  H   H2206     1.0  0.80732  0.37994  0.19256  1.0000
  H   H2207     1.0  0.85975  0.30053  0.15845  1.0000
  H   H2208     1.0  0.83053  0.33454  0.91171  1.0000
  C   C1300     1.0  0.82819  0.39148  0.21268  1.0000
  H   H2209     1.0  0.82391  0.35662  0.19006  1.0000
  H   H2210     1.0  0.79180  0.37298  0.29137  1.0000
  H   H2211     1.0  0.83693  0.39120  0.22047  1.0000
  H   H2212     1.0  0.86133  0.30520  0.07257  1.0000
  H   H2213     1.0  0.89176  0.43973  0.18643  1.0000
  H   H2214     1.0  0.81219  0.38718  0.29682  1.0000
  N   N92       1.0  0.81830  0.37991  0.24032  1.0000
  C   C1301     1.0  0.79521  0.37056  0.25943  1.0000
  C   C1302     1.0  0.81622  0.37968  0.29005  1.0000
  H   H2215     1.0  0.93341  0.45095  0.16906  1.0000
  H   H2216     1.0  0.89247  0.42867  0.23492  1.0000
  C   C1303     1.0  0.89610  0.43847  0.21469  1.0000
  H   H2217     1.0  0.79681  0.36137  0.26836  1.0000
  H   H2218     1.0  0.75746  0.29900  0.20677  1.0000
  H   H2219     1.0  0.83344  0.39050  0.29546  1.0000
  H   H2220     1.0  0.91540  0.43014  0.33715  1.0000
  H   H2221     1.0  0.78792  0.37000  0.24191  1.0000
  C   C1304     1.0  0.82207  0.36860  0.23402  1.0000
  H   H2222     1.0  0.84823  0.34465  0.10233  1.0000
  H   H2223     1.0  0.80957  0.37096  0.31278  1.0000
  H   H2224     1.0  0.82223  0.37091  0.16109  1.0000
  C   C1305     1.0  0.91001  0.44181  0.19432  1.0000
  H   H2225     1.0  0.91279  0.45044  0.16558  1.0000
  C   C1306     1.0  0.82755  0.38089  0.30793  1.0000
  H   H2226     1.0  0.83197  0.37014  0.22927  1.0000
  H   H2227     1.0  0.80934  0.35931  0.20184  1.0000
  H   H2228     1.0  0.79273  0.34207  0.94137  1.0000
  H   H2229     1.0  0.92915  0.43588  0.29156  1.0000
  H   H2230     1.0  0.82465  0.37857  0.34587  1.0000
  C   C1307     1.0  0.93248  0.43177  0.19318  1.0000
  H   H2231     1.0  0.90901  0.42362  0.26056  1.0000
  H   H2232     1.0  0.83291  0.37460  0.29856  1.0000
  H   H2233     1.0  0.81778  0.36068  0.26533  1.0000
  H   H2234     1.0  0.92190  0.46285  0.20641  1.0000
  C   C1308     1.0  0.91739  0.45505  0.23809  1.0000
  C   C1309     1.0  0.93033  0.44374  0.20272  1.0000
  H   H2235     1.0  0.77072  0.32729  0.29652  1.0000
  H   H2236     1.0  0.94239  0.43323  0.17918  1.0000
  N   N93       1.0  0.91751  0.44300  0.22755  1.0000
  H   H2237     1.0  0.92936  0.42387  0.22434  1.0000
  H   H2238     1.0  0.81884  0.38032  0.92718  1.0000
  H   H2239     1.0  0.90346  0.43335  0.29078  1.0000
  H   H2240     1.0  0.90799  0.45569  0.24989  1.0000
  H   H2241     1.0  0.92833  0.42935  0.16669  1.0000
  C   C1310     1.0  0.84409  0.33464  0.11866  1.0000
  H   H2242     1.0  0.81434  0.37173  0.86894  1.0000
  H   H2243     1.0  0.93693  0.44689  0.22086  1.0000
  C   C1311     1.0  0.98235  0.46311  0.98273  1.0000
  H   H2244     1.0  0.86850  0.31559  0.14911  1.0000
  C   C1312     1.0  0.76766  0.27041  0.86215  1.0000
  C   C1313     1.0  0.92340  0.45797  0.27490  1.0000
  H   H2245     1.0  0.81757  0.36020  0.76864  1.0000
  H   H2246     1.0  0.83365  0.35490  0.92508  1.0000
  H   H2247     1.0  0.80683  0.35976  0.81957  1.0000
  C   C1314     1.0  0.82196  0.36922  0.88062  1.0000
  H   H2248     1.0  0.83022  0.37637  0.85705  1.0000
  H   H2249     1.0  0.98056  0.46288  0.06688  1.0000
  H   H2250     1.0  0.79831  0.35654  0.90042  1.0000
  C   C1315     1.0  0.99745  0.42712  0.00516  1.0000
  C   C1316     1.0  0.98985  0.46273  0.04921  1.0000
  H   H2251     1.0  0.98336  0.41757  0.06806  1.0000
  C   C1317     1.0  0.86771  0.31025  0.08778  1.0000
  C   C1318     1.0  0.83413  0.35478  0.88926  1.0000
  C   C1319     1.0  0.98039  0.41624  0.96267  1.0000
  C   C1320     1.0  0.79936  0.34713  0.90750  1.0000
  H   H2252     1.0  0.82021  0.37270  0.79257  1.0000
  H   H2253     1.0  0.81237  0.34528  0.94635  1.0000
  H   H2254     1.0  0.82172  0.34634  0.82769  1.0000
  H   H2255     1.0  0.92073  0.42010  0.30732  1.0000
  H   H2256     1.0  0.92336  0.46747  0.27598  1.0000
  H   H2257     1.0  0.81274  0.33743  0.90494  1.0000
  H   H2258     1.0  0.84616  0.34287  0.89081  1.0000
  C   C1321     1.0  0.81213  0.34646  0.91022  1.0000
  C   C1322     1.0  0.84079  0.30799  0.12533  1.0000
  H   H2259     1.0  0.83763  0.34130  0.85102  1.0000
  C   C1323     1.0  0.83712  0.34266  0.88528  1.0000
  C   C1324     1.0  0.82404  0.35602  0.82869  1.0000
  C   C1325     1.0  0.98583  0.41948  0.03121  1.0000
  H   H2260     1.0  0.83365  0.36003  0.80758  1.0000
  H   H2261     1.0  0.79670  0.34273  0.88172  1.0000
  C   C1326     1.0  0.81660  0.36256  0.80158  1.0000
  C   C1327     1.0  0.99197  0.42402  0.93658  1.0000
  N   N94       1.0  0.99296  0.46871  0.99826  1.0000
  C   C1328     1.0  0.97997  0.44927  0.98723  1.0000
  C   C1329     1.0  0.85424  0.32805  0.11671  1.0000
  H   H2262     1.0  0.84387  0.28957  0.14850  1.0000
  S   S384      1.0  0.75965  0.28556  0.11697  1.0000
  H   H2263     1.0  0.87502  0.30558  0.08868  1.0000
  C   C1330     1.0  0.86156  0.31008  0.13701  1.0000
  H   H2264     1.0  0.90877  0.47912  0.02465  1.0000
  H   H2265     1.0  0.84126  0.29349  0.22213  1.0000
  H   H2266     1.0  0.86146  0.33330  0.12854  1.0000
  C   C1331     1.0  0.83657  0.29385  0.14316  1.0000
  H   H2267     1.0  0.83886  0.33354  0.15405  1.0000
  H   H2268     1.0  0.93299  0.45781  0.26749  1.0000
  C   C1332     1.0  0.77227  0.32728  0.26029  1.0000
  H   H2269     1.0  0.89410  0.48222  0.03516  1.0000
  H   H2270     1.0  0.83960  0.30190  0.26309  1.0000
  H   H2271     1.0  0.85448  0.30249  0.23222  1.0000
  C   C1333     1.0  0.84518  0.30215  0.22906  1.0000
  C   C1334     1.0  0.84527  0.31373  0.19313  1.0000
  N   N95       1.0  0.85036  0.31462  0.14329  1.0000
  H   H2272     1.0  0.99715  0.49984  0.94231  1.0000
  H   H2273     1.0  0.87217  0.31974  0.06526  1.0000
  H   H2274     1.0  0.83585  0.31452  0.20008  1.0000
  H   H2275     1.0  0.85046  0.32158  0.20215  1.0000
  H   H2276     1.0  0.85830  0.32938  0.07973  1.0000
  H   H2277     1.0  0.77002  0.27698  0.82754  1.0000
  C   C1335     1.0  0.75691  0.30719  0.28149  1.0000
  H   H2278     1.0  0.77273  0.29736  0.20096  1.0000
  N   N96       1.0  0.90940  0.50375  0.03975  1.0000
  H   H2279     1.0  0.88107  0.50902  0.06373  1.0000
  H   H2280     1.0  0.89653  0.50351  0.99991  1.0000
  H   H2281     1.0  0.75567  0.29721  0.28488  1.0000
  H   H2282     1.0  0.00485  0.45693  0.99134  1.0000
  H   H2283     1.0  0.76017  0.34719  0.02454  1.0000
  H   H2284     1.0  0.99713  0.47728  0.07866  1.0000
  C   C1336     1.0  0.89844  0.50709  0.02862  1.0000
  H   H2285     1.0  0.90479  0.50417  0.13414  1.0000
  H   H2286     1.0  0.88064  0.49372  0.06384  1.0000
  H   H2287     1.0  0.75558  0.38521  0.95406  1.0000
  C   C1337     1.0  0.00467  0.46646  0.97542  1.0000
  H   H2288     1.0  0.75811  0.30660  0.35185  1.0000
  H   H2289     1.0  0.75550  0.26486  0.95658  1.0000
  H   H2290     1.0  0.78078  0.26116  0.95188  1.0000
  H   H2291     1.0  0.91835  0.52222  0.03897  1.0000
  C   C1338     1.0  0.99593  0.51510  0.04725  1.0000
  H   H2292     1.0  0.99718  0.52143  0.14821  1.0000
  H   H2293     1.0  0.91436  0.51920  0.12162  1.0000
  C   C1339     1.0  0.00198  0.55471  0.06579  1.0000
  H   H2294     1.0  0.91697  0.52197  0.95376  1.0000
  H   H2295     1.0  0.99628  0.55251  0.10158  1.0000
  C   C1340     1.0  0.00042  0.52106  0.11348  1.0000
  H   H2296     1.0  0.99723  0.55924  0.04302  1.0000
  H   H2297     1.0  0.00109  0.58096  0.00237  1.0000
  H   H2298     1.0  0.90030  0.51726  0.01611  1.0000
  H   H2299     1.0  0.90082  0.51744  0.10415  1.0000
  C   C1341     1.0  0.99207  0.51549  0.09254  1.0000
  C   C1342     1.0  0.90828  0.51320  0.10794  1.0000
  H   H2300     1.0  0.00245  0.54578  0.05955  1.0000
  H   H2301     1.0  0.93076  0.52323  0.97197  1.0000
  C   C1343     1.0  0.92394  0.51732  0.96085  1.0000
  C   C1344     1.0  0.91563  0.51264  0.06151  1.0000
  H   H2302     1.0  0.92889  0.51624  0.92793  1.0000
  H   H2303     1.0  0.98258  0.51167  0.11128  1.0000
  H   H2304     1.0  0.92419  0.51057  0.06632  1.0000
