data_image0
_chemical_formula_structural       HFeSHFeCS2FeSFeSHSHSHFeSFeSCHCH2C6HCH2C4HCH5SC3HC4H6CHCNH2C2SC4H2SH4SH2C3NH2CHCH6CH6CSCH4CH2CHCH2CSFeSHFeSFeSHC2SFeSH2FeS3FeS2H2FeSFeSCFeSCHSHFeSH4C6H4CHC2HC2HCHC6H4C4HCH4C3HCH9CH2CH7C2HCH2C2HCHC2H5SH4NH4CSHCH5CHNHC2HCSCH2C3SHFeH3CFeC3NH4SH4CHSH4C2H3CNCHFeHC2H2CFeSH2SFeSFeSHCS2FeS2HSFeSFeS2H4C4HCH4CHC4NH3C6H4CHCHC2HC2HNC2HC3HCH4CH3CHCH3CH6CH4SH4CHFeH2CHSCH2CH7CHCHCHSCHC2SHCH3C3HCHNH3C2H3CHCHC2H5CHC2H2C2H5C2HCH3C2H5CHNHCH3SH3CH2C2HFeSHCFeHFeS3H2FeCSFeS2FeSHSHCSC6SH2C6H3CH3C2HC6H2CHC2H6C2HCS3H2C2HNSH5NC4HC3H8CH2FeH9C2HC2HSH8CH2C2SHNH3CH9FeHCH6CH2SFeS2FeSFeSFeSCS4FeS2FeS2FeSFeS3H2SC6H4C6H4CHC2HC6H4CHNC2H2CH2C4HC2HC3HC2H3C2HCHCH3CH5C2H6CNHCH5CH5CH4CH3C2HNC8H22CHCH7FeH6CH2CHC3FeCH2NH3CHCH2CNH6CH5CHCHCH8CH3C5H3N2HC2HNH2CHCH6CH2SHCH2CHCH5CSFeS2FeS2FeSFeS4C2SFeS2FeSFe2SCH2CH4C4H4C2H3C6H4C2HCH2C6H4C6H4SH3CH2CSH2C2HCHNH4CHCHCH5CH3CNH2CSH2CHCH6CH7CHCH7C2H4C3HNC2H5C3H2SH2CH2CH2FeHC2FeN2H4CHSH2C2H2CH2CNCHCH2C2H2CHCH5C2H3CH2CHNCH5SH2CSHC2H7C2H4CHCHCH3CH3CHNH2CHCHCH4CHC3H2CH2C2HNH3C3H2CHSFeS2FeS2Fe2S3HSFeHSFeSFeHS2C4HCH2C3H3C6H4C4HCH4C6H8C2H2CHFeH4CH3C2NCHCHCHCHC2H3NHCH4CH2CH2CH7C2HFeHSC2H4CS2HCH4CHC3HCHCH7NH10CHC2HCHCNCHCHC2H3CHCH3SHSFeH2C2HCH2NHSCH6CH3CH4CHCH2C2H3FeS2FeS2FeSFeS3H2FeS2FeHFeHFeS2CH2C6H2C6H4C6H4CH3C2H2C2SHC2HCH5CHC2H3CH9CH2C2H2NC2H4CH2C3HC2H2CHCSH3NCH3CH2C2H2CNH8CH4CH2SH4CH2CH4C2HSC2H13CH3CH4C2H3CH2NHCFeS2FeHSHCS2H2FeS2FeSFeS3FeS2FeS2Fe2S3FeS2FeSHFeS2HC8H7C6H8C8H3CHFeHC3H2C3HCH2CH2C3HCH3CNCH2SC2H3CHCHFeSH2C2H4FeCH5SH2CH3NH11FeNCH3NHC2H2CH5SH4CH3C2H14CH4C3HC4H3CFeSHFeSFeSFeS2HFeS2FeS2FeSFeS4C6H4CNH3CH2C7H9C3SH5CHCH4CHCH3C2H2C3H2NC8H22CNHC2H4C3H3NHCHSH3C2H3CNH4CHSCH3CH2CH8CHCHCHCHCHCHSCHCH2CH
_chemical_formula_sum              "H1152 Fe96 S192 C672 N48"
_cell_length_a       53.7922
_cell_length_b       53.8894
_cell_length_c       48.0727
_cell_angle_alpha    90.1998
_cell_angle_beta     90.1245
_cell_angle_gamma    120.022

_space_group_name_H-M_alt    "P 1"
_space_group_IT_number       1

loop_
  _space_group_symop_operation_xyz
  'x, y, z'

loop_
  _atom_site_type_symbol
  _atom_site_label
  _atom_site_symmetry_multiplicity
  _atom_site_fract_x
  _atom_site_fract_y
  _atom_site_fract_z
  _atom_site_occupancy
  H   H1        1.0  0.45924  0.04993  0.04599  1.0000
  Fe  Fe1       1.0  0.46037  0.09253  0.15938  1.0000
  S   S1        1.0  0.00605  0.36651  0.06923  1.0000
  H   H2        1.0  0.40055  0.26285  0.20351  1.0000
  Fe  Fe2       1.0  0.43135  0.06406  0.10240  1.0000
  C   C1        1.0  0.47457  0.25389  0.12343  1.0000
  S   S2        1.0  0.40625  0.02036  0.07995  1.0000
  S   S3        1.0  0.99027  0.39708  0.31400  1.0000
  Fe  Fe3       1.0  0.44423  0.12508  0.11828  1.0000
  S   S4        1.0  0.42683  0.15573  0.11234  1.0000
  Fe  Fe4       1.0  0.47865  0.32365  0.12684  1.0000
  S   S5        1.0  0.41824  0.08178  0.13899  1.0000
  H   H3        1.0  0.38410  0.22519  0.20602  1.0000
  S   S6        1.0  0.45886  0.38280  0.14209  1.0000
  H   H4        1.0  0.20915  0.45309  0.00771  1.0000
  S   S7        1.0  0.43357  0.31584  0.12318  1.0000
  H   H5        1.0  0.47345  0.43594  0.05599  1.0000
  Fe  Fe5       1.0  0.45320  0.35919  0.10150  1.0000
  S   S8        1.0  0.44691  0.37492  0.05848  1.0000
  Fe  Fe6       1.0  0.44385  0.34069  0.16395  1.0000
  S   S9        1.0  0.41667  0.32649  0.20359  1.0000
  C   C2        1.0  0.38090  0.38387  0.02569  1.0000
  H   H6        1.0  0.45036  0.29394  0.20441  1.0000
  C   C3        1.0  0.43578  0.39622  0.01047  1.0000
  H   H7        1.0  0.18520  0.48568  0.01276  1.0000
  H   H8        1.0  0.40130  0.08537  0.26850  1.0000
  C   C4        1.0  0.40257  0.24424  0.19640  1.0000
  C   C5        1.0  0.00517  0.39269  0.01929  1.0000
  C   C6        1.0  0.01935  0.38231  0.03595  1.0000
  C   C7        1.0  0.04387  0.38270  0.02516  1.0000
  C   C8        1.0  0.47284  0.20794  0.12971  1.0000
  C   C9        1.0  0.99429  0.47100  0.20083  1.0000
  H   H9        1.0  0.43887  0.22828  0.16996  1.0000
  C   C10       1.0  0.40078  0.03104  0.02392  1.0000
  H   H10       1.0  0.47154  0.17946  0.02023  1.0000
  H   H11       1.0  0.41460  0.27402  0.24805  1.0000
  C   C11       1.0  0.43183  0.33448  0.23780  1.0000
  C   C12       1.0  0.41398  0.32895  0.26111  1.0000
  C   C13       1.0  0.42552  0.33532  0.28842  1.0000
  C   C14       1.0  0.45509  0.34715  0.29272  1.0000
  H   H12       1.0  0.39522  0.22180  0.15587  1.0000
  C   C15       1.0  0.46123  0.34561  0.24229  1.0000
  H   H13       1.0  0.39116  0.32012  0.25801  1.0000
  H   H14       1.0  0.41164  0.33173  0.30602  1.0000
  H   H15       1.0  0.41880  0.17954  0.18624  1.0000
  H   H16       1.0  0.45695  0.40082  0.00421  1.0000
  H   H17       1.0  0.44604  0.00066  0.05457  1.0000
  S   S10       1.0  0.47133  0.07138  0.12467  1.0000
  C   C16       1.0  0.42495  0.38312  0.03646  1.0000
  C   C17       1.0  0.39739  0.37719  0.04396  1.0000
  C   C18       1.0  0.47266  0.35169  0.26948  1.0000
  H   H18       1.0  0.38859  0.36714  0.06374  1.0000
  C   C19       1.0  0.44521  0.19334  0.11820  1.0000
  C   C20       1.0  0.43203  0.20913  0.11017  1.0000
  C   C21       1.0  0.44659  0.23926  0.11278  1.0000
  C   C22       1.0  0.43621  0.22520  0.19279  1.0000
  H   H19       1.0  0.47522  0.34947  0.22485  1.0000
  H   H20       1.0  0.45290  0.28852  0.25261  1.0000
  H   H21       1.0  0.41062  0.19802  0.10132  1.0000
  H   H22       1.0  0.43645  0.25117  0.10587  1.0000
  H   H23       1.0  0.47335  0.46588  0.07041  1.0000
  H   H24       1.0  0.45100  0.18018  0.04983  1.0000
  C   C23       1.0  0.39781  0.01103  0.04404  1.0000
  H   H25       1.0  0.35948  0.37874  0.03171  1.0000
  C   C24       1.0  0.42978  0.24393  0.23713  1.0000
  N   N1        1.0  0.48273  0.03000  0.03009  1.0000
  H   H26       1.0  0.05508  0.37476  0.03774  1.0000
  H   H27       1.0  0.40804  0.05296  0.03009  1.0000
  C   C25       1.0  0.43633  0.08558  0.29057  1.0000
  C   C26       1.0  0.46248  0.08611  0.28751  1.0000
  S   S11       1.0  0.47196  0.35926  0.32588  1.0000
  C   C27       1.0  0.45847  0.08653  0.23655  1.0000
  C   C28       1.0  0.43263  0.08657  0.23962  1.0000
  C   C29       1.0  0.42157  0.08588  0.26644  1.0000
  C   C30       1.0  0.43146  0.26900  0.25423  1.0000
  H   H28       1.0  0.46935  0.99530  0.09472  1.0000
  H   H29       1.0  0.42084  0.08654  0.22136  1.0000
  S   S12       1.0  0.42067  0.08345  0.32384  1.0000
  H   H30       1.0  0.42816  0.26308  0.27658  1.0000
  H   H31       1.0  0.39154  0.18876  0.19091  1.0000
  H   H32       1.0  0.46436  0.44007  0.11646  1.0000
  H   H33       1.0  0.98876  0.38816  0.21195  1.0000
  S   S13       1.0  0.45383  0.10624  0.08054  1.0000
  H   H34       1.0  0.45694  0.22763  0.20022  1.0000
  H   H35       1.0  0.37654  0.24105  0.16043  1.0000
  C   C31       1.0  0.98919  0.39137  0.25693  1.0000
  C   C32       1.0  0.45452  0.27664  0.19737  1.0000
  C   C33       1.0  0.47333  0.08636  0.26068  1.0000
  N   N2        1.0  0.43080  0.24746  0.20594  1.0000
  H   H36       1.0  0.01201  0.40642  0.25814  1.0000
  H   H37       1.0  0.46903  0.46567  0.02015  1.0000
  C   C34       1.0  0.41313  0.19375  0.19812  1.0000
  H   H38       1.0  0.99291  0.48740  0.31750  1.0000
  C   C35       1.0  0.46590  0.17305  0.04211  1.0000
  H   H39       1.0  0.41227  0.18809  0.22041  1.0000
  H   H40       1.0  0.44707  0.24003  0.24474  1.0000
  H   H41       1.0  0.40955  0.22441  0.24344  1.0000
  H   H42       1.0  0.47402  0.08576  0.30581  1.0000
  H   H43       1.0  0.45527  0.27870  0.17435  1.0000
  H   H44       1.0  0.41395  0.26045  0.15330  1.0000
  C   C36       1.0  0.39719  0.24175  0.16467  1.0000
  H   H45       1.0  0.98893  0.45601  0.15694  1.0000
  H   H46       1.0  0.00156  0.45600  0.20795  1.0000
  H   H47       1.0  0.02433  0.48285  0.16644  1.0000
  H   H48       1.0  0.98765  0.44204  0.25215  1.0000
  H   H49       1.0  0.45294  0.14929  0.04205  1.0000
  H   H50       1.0  0.46835  0.42573  0.21660  1.0000
  C   C37       1.0  0.46895  0.00674  0.05165  1.0000
  S   S14       1.0  0.47275  0.08571  0.20328  1.0000
  C   C38       1.0  0.00127  0.47583  0.16945  1.0000
  H   H51       1.0  0.44332  0.01701  0.00717  1.0000
  H   H52       1.0  0.26043  0.48286  0.01185  1.0000
  H   H53       1.0  0.48311  0.19606  0.13630  1.0000
  H   H54       1.0  0.98643  0.39281  0.02721  1.0000
  C   C39       1.0  0.48153  0.05605  0.03986  1.0000
  H   H55       1.0  0.48452  0.03277  0.09026  1.0000
  H   H56       1.0  0.48310  0.43473  0.26499  1.0000
  C   C40       1.0  0.46476  0.01923  0.00387  1.0000
  H   H57       1.0  0.48395  0.18602  0.08277  1.0000
  C   C41       1.0  0.48301  0.01338  0.08067  1.0000
  H   H58       1.0  0.48024  0.22689  0.06779  1.0000
  H   H59       1.0  0.98610  0.31809  0.03109  1.0000
  C   C42       1.0  0.44810  0.19196  0.51806  1.0000
  S   S15       1.0  0.44156  0.05481  0.39270  1.0000
  Fe  Fe7       1.0  0.46940  0.13410  0.41330  1.0000
  S   S16       1.0  0.42330  0.10288  0.40322  1.0000
  H   H60       1.0  0.13524  0.44882  0.52776  1.0000
  Fe  Fe8       1.0  0.42906  0.07155  0.42994  1.0000
  S   S17       1.0  0.39559  0.04257  0.46226  1.0000
  Fe  Fe9       1.0  0.44095  0.08944  0.36710  1.0000
  S   S18       1.0  0.18813  0.41958  0.60486  1.0000
  H   H61       1.0  0.39467  0.08268  0.50865  1.0000
  C   C43       1.0  0.48500  0.23061  0.42936  1.0000
  C   C44       1.0  0.16871  0.37596  0.53721  1.0000
  S   S19       1.0  0.40175  0.43203  0.64359  1.0000
  Fe  Fe10      1.0  0.35209  0.45695  0.61089  1.0000
  S   S20       1.0  0.33601  0.41181  0.62519  1.0000
  H   H62       1.0  0.17732  0.42601  0.52319  1.0000
  H   H63       1.0  0.22476  0.39524  0.60058  1.0000
  Fe  Fe11      1.0  0.37575  0.41606  0.60372  1.0000
  S   S21       1.0  0.38236  0.38310  0.57860  1.0000
  S   S22       1.0  0.46980  0.38306  0.40361  1.0000
  S   S23       1.0  0.38989  0.46006  0.58702  1.0000
  Fe  Fe12      1.0  0.44491  0.30314  0.41706  1.0000
  S   S24       1.0  0.41812  0.31805  0.39379  1.0000
  S   S25       1.0  0.42412  0.25462  0.42259  1.0000
  H   H64       1.0  0.41630  0.13479  0.54088  1.0000
  H   H65       1.0  0.12349  0.35195  0.54426  1.0000
  Fe  Fe13      1.0  0.43129  0.35145  0.42810  1.0000
  S   S26       1.0  0.40363  0.36748  0.44957  1.0000
  Fe  Fe14      1.0  0.45927  0.34824  0.37177  1.0000
  S   S27       1.0  0.45497  0.33443  0.45249  1.0000
  C   C45       1.0  0.27411  0.47761  0.60137  1.0000
  Fe  Fe15      1.0  0.16180  0.44054  0.61733  1.0000
  S   S28       1.0  0.11539  0.40924  0.62680  1.0000
  C   C46       1.0  0.40427  0.99915  0.54216  1.0000
  H   H66       1.0  0.40661  0.29310  0.50297  1.0000
  S   S29       1.0  0.10665  0.46307  0.64162  1.0000
  H   H67       1.0  0.32363  0.27958  0.42517  1.0000
  Fe  Fe16      1.0  0.10464  0.43852  0.60259  1.0000
  S   S30       1.0  0.06350  0.41717  0.57542  1.0000
  H   H68       1.0  0.39186  0.14546  0.45097  1.0000
  H   H69       1.0  0.27780  0.41652  0.59844  1.0000
  H   H70       1.0  0.44973  0.02855  0.53850  1.0000
  H   H71       1.0  0.38338  0.27271  0.43183  1.0000
  C   C47       1.0  0.05133  0.41564  0.54030  1.0000
  C   C48       1.0  0.06926  0.43338  0.51919  1.0000
  C   C49       1.0  0.05874  0.43075  0.49168  1.0000
  C   C50       1.0  0.03000  0.41071  0.48477  1.0000
  C   C51       1.0  0.01197  0.39318  0.50593  1.0000
  C   C52       1.0  0.02261  0.39559  0.53339  1.0000
  H   H72       1.0  0.09117  0.44934  0.52407  1.0000
  H   H73       1.0  0.07291  0.44459  0.47563  1.0000
  H   H74       1.0  0.36424  0.08732  0.51456  1.0000
  H   H75       1.0  0.00842  0.38173  0.54942  1.0000
  C   C53       1.0  0.28656  0.46006  0.59996  1.0000
  H   H76       1.0  0.37901  0.10922  0.44098  1.0000
  C   C54       1.0  0.24407  0.46562  0.60314  1.0000
  C   C55       1.0  0.22608  0.43586  0.60295  1.0000
  H   H77       1.0  0.41125  0.10347  0.46956  1.0000
  C   C56       1.0  0.26856  0.43028  0.59982  1.0000
  C   C57       1.0  0.34062  0.29164  0.44092  1.0000
  H   H78       1.0  0.47722  0.99355  0.58694  1.0000
  C   C58       1.0  0.47030  0.43811  0.52172  1.0000
  H   H79       1.0  0.08528  0.35204  0.56823  1.0000
  C   C59       1.0  0.38953  0.38051  0.54266  1.0000
  C   C60       1.0  0.40228  0.36409  0.53511  1.0000
  C   C61       1.0  0.40754  0.36058  0.50695  1.0000
  C   C62       1.0  0.39919  0.37263  0.48569  1.0000
  C   C63       1.0  0.38629  0.38889  0.49319  1.0000
  C   C64       1.0  0.38192  0.39321  0.52141  1.0000
  H   H80       1.0  0.40823  0.35409  0.55128  1.0000
  H   H81       1.0  0.41767  0.34820  0.50175  1.0000
  H   H82       1.0  0.37956  0.39824  0.47705  1.0000
  H   H83       1.0  0.37184  0.40565  0.52671  1.0000
  C   C65       1.0  0.46953  0.20110  0.42324  1.0000
  C   C66       1.0  0.44052  0.18862  0.41585  1.0000
  C   C67       1.0  0.42703  0.20535  0.41542  1.0000
  C   C68       1.0  0.44255  0.23490  0.42148  1.0000
  H   H84       1.0  0.47088  0.19775  0.52069  1.0000
  C   C69       1.0  0.47173  0.24751  0.42814  1.0000
  H   H85       1.0  0.42836  0.16601  0.41090  1.0000
  H   H86       1.0  0.40447  0.19536  0.41018  1.0000
  H   H87       1.0  0.43619  0.18332  0.53771  1.0000
  H   H88       1.0  0.35922  0.30833  0.42896  1.0000
  C   C70       1.0  0.39975  0.02650  0.49315  1.0000
  C   C71       1.0  0.42665  0.03509  0.50509  1.0000
  C   C72       1.0  0.42882  0.02163  0.52947  1.0000
  H   H89       1.0  0.44135  0.43155  0.47637  1.0000
  C   C73       1.0  0.12617  0.38460  0.50102  1.0000
  H   H90       1.0  0.44580  0.05204  0.49557  1.0000
  H   H91       1.0  0.15415  0.44702  0.49701  1.0000
  H   H92       1.0  0.28064  0.21614  0.47319  1.0000
  H   H93       1.0  0.33162  0.23589  0.48349  1.0000
  H   H94       1.0  0.30927  0.29217  0.47039  1.0000
  H   H95       1.0  0.46107  0.03292  0.44866  1.0000
  H   H96       1.0  0.39091  0.30976  0.46374  1.0000
  H   H97       1.0  0.39717  0.26706  0.47610  1.0000
  H   H98       1.0  0.28106  0.41251  0.65593  1.0000
  C   C74       1.0  0.36001  0.25858  0.43556  1.0000
  H   H99       1.0  0.07661  0.34876  0.53151  1.0000
  H   H100      1.0  0.45939  0.99596  0.41663  1.0000
  C   C75       1.0  0.29690  0.23044  0.45785  1.0000
  H   H101      1.0  0.11395  0.40318  0.56674  1.0000
  H   H102      1.0  0.32303  0.23900  0.40590  1.0000
  H   H103      1.0  0.41430  0.00564  0.44337  1.0000
  H   H104      1.0  0.35472  0.23900  0.39473  1.0000
  H   H105      1.0  0.31995  0.26069  0.49067  1.0000
  H   H106      1.0  0.16971  0.35762  0.54648  1.0000
  H   H107      1.0  0.36662  0.30077  0.49198  1.0000
  C   C76       1.0  0.34672  0.25164  0.40605  1.0000
  C   C77       1.0  0.23848  0.41829  0.60096  1.0000
  H   H108      1.0  0.37350  0.26023  0.50549  1.0000
  C   C78       1.0  0.32510  0.25028  0.47333  1.0000
  H   H109      1.0  0.01974  0.48867  0.34070  1.0000
  H   H110      1.0  0.35798  0.23851  0.44424  1.0000
  C   C79       1.0  0.26146  0.40648  0.66824  1.0000
  C   C80       1.0  0.32911  0.30729  0.45920  1.0000
  H   H111      1.0  0.06214  0.36411  0.55508  1.0000
  C   C81       1.0  0.37371  0.29132  0.47535  1.0000
  H   H112      1.0  0.46142  0.45920  0.55568  1.0000
  C   C82       1.0  0.45424  0.14107  0.50386  1.0000
  C   C83       1.0  0.43392  0.17145  0.49312  1.0000
  H   H113      1.0  0.37055  0.11659  0.47481  1.0000
  H   H114      1.0  0.32357  0.32043  0.44554  1.0000
  H   H115      1.0  0.48393  0.27015  0.43302  1.0000
  H   H116      1.0  0.14629  0.39430  0.48858  1.0000
  H   H117      1.0  0.09930  0.40553  0.53494  1.0000
  S   S31       1.0  0.37867  0.47721  0.64924  1.0000
  H   H118      1.0  0.11726  0.36103  0.49908  1.0000
  H   H119      1.0  0.14257  0.37941  0.56922  1.0000
  H   H120      1.0  0.10430  0.38541  0.46305  1.0000
  H   H121      1.0  0.28787  0.24244  0.44729  1.0000
  N   N3        1.0  0.42666  0.14072  0.49707  1.0000
  H   H122      1.0  0.45440  0.46881  0.52252  1.0000
  H   H123      1.0  0.44152  0.09626  0.49291  1.0000
  H   H124      1.0  0.34535  0.32248  0.47412  1.0000
  H   H125      1.0  0.38522  0.08704  0.54284  1.0000
  C   C84       1.0  0.40521  0.12767  0.52038  1.0000
  S   S32       1.0  0.47430  0.10358  0.44194  1.0000
  H   H126      1.0  0.48152  0.43205  0.53728  1.0000
  C   C85       1.0  0.38667  0.09448  0.52106  1.0000
  H   H127      1.0  0.41437  0.17264  0.48802  1.0000
  H   H128      1.0  0.46678  0.01537  0.47814  1.0000
  H   H129      1.0  0.35378  0.27156  0.39392  1.0000
  H   H130      1.0  0.38976  0.13573  0.51964  1.0000
  H   H131      1.0  0.46999  0.15127  0.48660  1.0000
  C   C86       1.0  0.38822  0.27664  0.49059  1.0000
  H   H132      1.0  0.29963  0.21636  0.44286  1.0000
  N   N4        1.0  0.34922  0.27252  0.45597  1.0000
  H   H133      1.0  0.23486  0.47943  0.60437  1.0000
  C   C87       1.0  0.15795  0.42433  0.53324  1.0000
  C   C88       1.0  0.38759  0.12438  0.45887  1.0000
  H   H134      1.0  0.08235  0.37717  0.49310  1.0000
  C   C89       1.0  0.15432  0.44829  0.52003  1.0000
  S   S33       1.0  0.01819  0.40851  0.44943  1.0000
  C   C90       1.0  0.47068  0.44796  0.44217  1.0000
  H   H135      1.0  0.24299  0.39127  0.65513  1.0000
  H   H136      1.0  0.18786  0.39565  0.54516  1.0000
  C   C91       1.0  0.14067  0.37477  0.54644  1.0000
  C   C92       1.0  0.10460  0.39074  0.48544  1.0000
  C   C93       1.0  0.41533  0.12571  0.46953  1.0000
  S   S34       1.0  0.15096  0.46851  0.59092  1.0000
  H   H137      1.0  0.35423  0.99746  0.49712  1.0000
  Fe  Fe17      1.0  0.12106  0.43625  0.66472  1.0000
  H   H138      1.0  0.43190  0.13646  0.45314  1.0000
  H   H139      1.0  0.17323  0.46929  0.52575  1.0000
  H   H140      1.0  0.41488  0.99324  0.41016  1.0000
  C   C94       1.0  0.10740  0.39294  0.54585  1.0000
  Fe  Fe18      1.0  0.41439  0.47570  0.62723  1.0000
  C   C95       1.0  0.46905  0.01845  0.45531  1.0000
  C   C96       1.0  0.46445  0.44775  0.47353  1.0000
  C   C97       1.0  0.08150  0.36256  0.55019  1.0000
  N   N5        1.0  0.13270  0.39424  0.53106  1.0000
  H   H141      1.0  0.16393  0.43024  0.55548  1.0000
  H   H142      1.0  0.11004  0.41339  0.48662  1.0000
  H   H143      1.0  0.17000  0.37451  0.51430  1.0000
  H   H144      1.0  0.25638  0.44155  0.65491  1.0000
  S   S35       1.0  0.16797  0.46516  0.65692  1.0000
  H   H145      1.0  0.46618  0.42664  0.43476  1.0000
  H   H146      1.0  0.44862  0.18119  0.47513  1.0000
  H   H147      1.0  0.25837  0.48382  0.65904  1.0000
  H   H148      1.0  0.44785  0.41984  0.52168  1.0000
  C   C98       1.0  0.37519  0.00428  0.50600  1.0000
  H   H149      1.0  0.47106  0.38747  0.52077  1.0000
  S   S36       1.0  0.32454  0.47638  0.59806  1.0000
  H   H150      1.0  0.47383  0.11512  0.51239  1.0000
  H   H151      1.0  0.46633  0.46887  0.47812  1.0000
  H   H152      1.0  0.98988  0.37761  0.50112  1.0000
  H   H153      1.0  0.46021  0.39899  0.47543  1.0000
  C   C99       1.0  0.45187  0.11194  0.50998  1.0000
  C   C100      1.0  0.99631  0.48000  0.33780  1.0000
  H   H154      1.0  0.44841  0.21238  0.51376  1.0000
  H   H155      1.0  0.44054  0.10281  0.52984  1.0000
  H   H156      1.0  0.46463  0.15418  0.52272  1.0000
  C   C101      1.0  0.46956  0.46422  0.53398  1.0000
  N   N6        1.0  0.48301  0.44191  0.49301  1.0000
  C   C102      1.0  0.48195  0.41461  0.48350  1.0000
  H   H157      1.0  0.30603  0.47627  0.65560  1.0000
  Fe  Fe19      1.0  0.36391  0.43229  0.66332  1.0000
  H   H158      1.0  0.45601  0.45302  0.43035  1.0000
  C   C103      1.0  0.37740  0.99055  0.53016  1.0000
  C   C104      1.0  0.45460  0.98983  0.43890  1.0000
  H   H159      1.0  0.05733  0.48704  0.63437  1.0000
  H   H160      1.0  0.98561  0.45626  0.33613  1.0000
  C   C105      1.0  0.26288  0.47530  0.90305  1.0000
  Fe  Fe20      1.0  0.34497  0.45834  0.90631  1.0000
  S   S37       1.0  0.33589  0.41269  0.90598  1.0000
  H   H161      1.0  0.31562  0.45341  0.67185  1.0000
  H   H162      1.0  0.00289  0.40908  0.97895  1.0000
  S   S38       1.0  0.40513  0.43857  0.90221  1.0000
  Fe  Fe21      1.0  0.36910  0.42727  0.87171  1.0000
  S   S39       1.0  0.37130  0.40494  0.83193  1.0000
  Fe  Fe22      1.0  0.37326  0.42838  0.93656  1.0000
  S   S40       1.0  0.36905  0.40356  0.97711  1.0000
  H   H163      1.0  0.41972  0.35355  0.90854  1.0000
  C   C106      1.0  0.44543  0.47482  0.79769  1.0000
  S   S41       1.0  0.34503  0.42735  0.70728  1.0000
  S   S42       1.0  0.10395  0.41511  0.70688  1.0000
  Fe  Fe23      1.0  0.15104  0.43891  0.91125  1.0000
  S   S43       1.0  0.10839  0.41724  0.88840  1.0000
  S   S44       1.0  0.17796  0.41718  0.91479  1.0000
  H   H164      1.0  0.36783  0.30808  0.92715  1.0000
  S   S45       1.0  0.10426  0.47403  0.90252  1.0000
  Fe  Fe24      1.0  0.09239  0.43270  0.92457  1.0000
  S   S46       1.0  0.04798  0.41098  0.94521  1.0000
  Fe  Fe25      1.0  0.12399  0.46060  0.86883  1.0000
  S   S47       1.0  0.12601  0.47771  0.82486  1.0000
  S   S48       1.0  0.13378  0.45098  0.94851  1.0000
  H   H165      1.0  0.38096  0.29524  0.88698  1.0000
  H   H166      1.0  0.24969  0.46612  0.70828  1.0000
  H   H167      1.0  0.23462  0.41903  0.81350  1.0000
  H   H168      1.0  0.38946  0.32913  0.87337  1.0000
  C   C107      1.0  0.11069  0.43289  0.73953  1.0000
  C   C108      1.0  0.09874  0.41660  0.76371  1.0000
  C   C109      1.0  0.10345  0.42991  0.79003  1.0000
  C   C110      1.0  0.12011  0.45972  0.79241  1.0000
  H   H169      1.0  0.05566  0.47992  0.72735  1.0000
  C   C111      1.0  0.12761  0.46267  0.74196  1.0000
  H   H170      1.0  0.08553  0.39354  0.76201  1.0000
  H   H171      1.0  0.09369  0.41714  0.80835  1.0000
  H   H172      1.0  0.41591  0.38113  0.89012  1.0000
  H   H173      1.0  0.44395  0.47567  0.84380  1.0000
  C   C112      1.0  0.27626  0.45883  0.90685  1.0000
  H   H174      1.0  0.42742  0.48310  0.71873  1.0000
  C   C113      1.0  0.23289  0.46292  0.90542  1.0000
  C   C114      1.0  0.21585  0.43380  0.91157  1.0000
  C   C115      1.0  0.22915  0.41720  0.91498  1.0000
  C   C116      1.0  0.25921  0.42962  0.91266  1.0000
  N   N7        1.0  0.35995  0.34175  0.91333  1.0000
  H   H175      1.0  0.31470  0.32256  0.92364  1.0000
  H   H176      1.0  0.21617  0.39463  0.91968  1.0000
  H   H177      1.0  0.26920  0.41669  0.91565  1.0000
  C   C117      1.0  0.36506  0.41268  0.79741  1.0000
  C   C118      1.0  0.37612  0.40469  0.77471  1.0000
  C   C119      1.0  0.37116  0.40990  0.74702  1.0000
  C   C120      1.0  0.35426  0.42239  0.74164  1.0000
  C   C121      1.0  0.34317  0.43034  0.76435  1.0000
  C   C122      1.0  0.34888  0.42595  0.79203  1.0000
  H   H178      1.0  0.38854  0.39428  0.77855  1.0000
  H   H179      1.0  0.37962  0.40342  0.72983  1.0000
  H   H180      1.0  0.33003  0.43995  0.76053  1.0000
  H   H181      1.0  0.47973  0.98963  0.98984  1.0000
  C   C123      1.0  0.45957  0.99031  0.99208  1.0000
  H   H182      1.0  0.35925  0.37601  0.89070  1.0000
  C   C124      1.0  0.35639  0.35439  0.88667  1.0000
  H   H183      1.0  0.35516  0.29762  0.86609  1.0000
  C   C125      1.0  0.37183  0.30926  0.88228  1.0000
  C   C126      1.0  0.13212  0.47602  0.76824  1.0000
  H   H184      1.0  0.24080  0.43370  0.84863  1.0000
  C   C127      1.0  0.25796  0.43259  0.67514  1.0000
  C   C128      1.0  0.30883  0.46936  0.67658  1.0000
  H   H185      1.0  0.05988  0.48406  0.68133  1.0000
  N   N8        1.0  0.18719  0.42761  0.82240  1.0000
  C   C129      1.0  0.19499  0.40766  0.83716  1.0000
  C   C130      1.0  0.15691  0.41888  0.83083  1.0000
  H   H186      1.0  0.23161  0.47799  0.95984  1.0000
  C   C131      1.0  0.19050  0.42527  0.79146  1.0000
  C   C132      1.0  0.22663  0.41509  0.83517  1.0000
  C   C133      1.0  0.13386  0.38788  0.82333  1.0000
  H   H187      1.0  0.32909  0.34469  0.85003  1.0000
  C   C134      1.0  0.17356  0.43441  0.77195  1.0000
  H   H188      1.0  0.18980  0.40632  0.85970  1.0000
  H   H189      1.0  0.18197  0.38537  0.82908  1.0000
  H   H190      1.0  0.14959  0.43305  0.82203  1.0000
  H   H191      1.0  0.15588  0.42131  0.85377  1.0000
  C   C135      1.0  0.41948  0.40336  0.99240  1.0000
  H   H192      1.0  0.42825  0.41339  0.97262  1.0000
  H   H193      1.0  0.21355  0.43790  0.78557  1.0000
  H   H194      1.0  0.18345  0.40263  0.78569  1.0000
  C   C136      1.0  0.03902  0.40219  0.98100  1.0000
  H   H195      1.0  0.33518  0.29578  0.90838  1.0000
  C   C137      1.0  0.33617  0.32615  0.96192  1.0000
  H   H196      1.0  0.13469  0.38263  0.80118  1.0000
  H   H197      1.0  0.13555  0.37214  0.83687  1.0000
  H   H198      1.0  0.11227  0.38520  0.82708  1.0000
  C   C138      1.0  0.38451  0.99423  0.98712  1.0000
  H   H199      1.0  0.37321  0.35842  0.87123  1.0000
  H   H200      1.0  0.42536  0.45365  0.79594  1.0000
  H   H201      1.0  0.46087  0.47409  0.78282  1.0000
  H   H202      1.0  0.45946  0.45623  0.82960  1.0000
  H   H203      1.0  0.15447  0.41532  0.76299  1.0000
  H   H204      1.0  0.32042  0.31359  0.87029  1.0000
  C   C139      1.0  0.28598  0.44360  0.71919  1.0000
  H   H205      1.0  0.16671  0.44870  0.78130  1.0000
  H   H206      1.0  0.18127  0.47836  0.82431  1.0000
  H   H207      1.0  0.33619  0.35846  0.93543  1.0000
  H   H208      1.0  0.23644  0.42430  0.68473  1.0000
  S   S49       1.0  0.37568  0.47151  0.87030  1.0000
  H   H209      1.0  0.31030  0.33938  0.88187  1.0000
  H   H210      1.0  0.40229  0.47178  0.76461  1.0000
  H   H211      1.0  0.35436  0.34185  0.97488  1.0000
  H   H212      1.0  0.39603  0.03825  0.98049  1.0000
  C   C140      1.0  0.32727  0.33665  0.87162  1.0000
  H   H213      1.0  0.31642  0.32218  0.97301  1.0000
  Fe  Fe26      1.0  0.41000  0.48243  0.90225  1.0000
  H   H214      1.0  0.22303  0.47600  0.90275  1.0000
  H   H215      1.0  0.22850  0.39677  0.84318  1.0000
  C   C141      1.0  0.25937  0.42705  0.73780  1.0000
  H   H216      1.0  0.38789  0.38308  0.93215  1.0000
  S   S50       1.0  0.38044  0.47343  0.93855  1.0000
  C   C142      1.0  0.38796  0.36296  0.92704  1.0000
  H   H217      1.0  0.26556  0.41889  0.75621  1.0000
  H   H218      1.0  0.19802  0.43266  0.97608  1.0000
  C   C143      1.0  0.01465  0.40207  0.99190  1.0000
  H   H219      1.0  0.07240  0.39248  0.98996  1.0000
  H   H220      1.0  0.34010  0.43212  0.80919  1.0000
  H   H221      1.0  0.43405  0.38862  0.92262  1.0000
  H   H222      1.0  0.39093  0.35465  0.94717  1.0000
  H   H223      1.0  0.19835  0.47490  0.95196  1.0000
  H   H224      1.0  0.26132  0.39459  0.68704  1.0000
  H   H225      1.0  0.24188  0.40814  0.72698  1.0000
  C   C144      1.0  0.21306  0.47797  0.96967  1.0000
  H   H226      1.0  0.43815  0.46393  0.74111  1.0000
  C   C145      1.0  0.33610  0.33785  0.93262  1.0000
  H   H227      1.0  0.25130  0.44106  0.74566  1.0000
  C   C146      1.0  0.35813  0.31311  0.90907  1.0000
  H   H228      1.0  0.18712  0.44604  0.75381  1.0000
  S   S51       1.0  0.31424  0.47611  0.90449  1.0000
  C   C147      1.0  0.41563  0.37169  0.91063  1.0000
  H   H229      1.0  0.34744  0.48679  0.70296  1.0000
  C   C148      1.0  0.20718  0.45760  0.83291  1.0000
  C   C149      1.0  0.39175  0.39707  0.99980  1.0000
  S   S52       1.0  0.16720  0.48101  0.88995  1.0000
  H   H230      1.0  0.20538  0.45834  0.85591  1.0000
  C   C150      1.0  0.19811  0.45065  0.98757  1.0000
  H   H231      1.0  0.47465  0.03490  0.98664  1.0000
  H   H232      1.0  0.13720  0.47531  0.72356  1.0000
  H   H233      1.0  0.22995  0.46426  0.82854  1.0000
  C   C151      1.0  0.43907  0.48483  0.73845  1.0000
  C   C152      1.0  0.20309  0.48177  0.82090  1.0000
  C   C153      1.0  0.05385  0.39286  0.99804  1.0000
  H   H234      1.0  0.33608  0.30555  0.96117  1.0000
  C   C154      1.0  0.45792  0.47587  0.82680  1.0000
  H   H235      1.0  0.40000  0.47767  0.81375  1.0000
  N   N9        1.0  0.28125  0.45572  0.69284  1.0000
  H   H236      1.0  0.29459  0.42912  0.71452  1.0000
  H   H237      1.0  0.30284  0.46096  0.73230  1.0000
  H   H238      1.0  0.17529  0.44412  0.99128  1.0000
  C   C155      1.0  0.39395  0.02262  0.99575  1.0000
  C   C156      1.0  0.27211  0.47721  0.70031  1.0000
  H   H239      1.0  0.20879  0.48531  0.79855  1.0000
  H   H240      1.0  0.47492  0.07507  0.00212  1.0000
  H   H241      1.0  0.98721  0.33843  0.99203  1.0000
  C   C157      1.0  0.03850  0.63718  0.02977  1.0000
  H   H242      1.0  0.05489  0.55303  0.04239  1.0000
  C   C158      1.0  0.29199  0.89545  0.01023  1.0000
  H   H243      1.0  0.23743  0.87210  0.02711  1.0000
  C   C159      1.0  0.00370  0.62849  0.06702  1.0000
  C   C160      1.0  0.02481  0.62373  0.05492  1.0000
  H   H244      1.0  0.00870  0.49163  0.21165  1.0000
  H   H245      1.0  0.31585  0.90832  0.01183  1.0000
  H   H246      1.0  0.03087  0.60983  0.06539  1.0000
  H   H247      1.0  0.99513  0.49305  0.03343  1.0000
  H   H248      1.0  0.28464  0.89166  0.03222  1.0000
  C   C161      1.0  0.22788  0.87630  0.00860  1.0000
  H   H249      1.0  0.46874  0.98692  0.04476  1.0000
  C   C162      1.0  0.05171  0.56722  0.02795  1.0000
  C   C163      1.0  0.99651  0.51216  0.04371  1.0000
  H   H250      1.0  0.30928  0.97308  0.03725  1.0000
  H   H251      1.0  0.05510  0.63377  0.02116  1.0000
  C   C164      1.0  0.08135  0.58824  0.01544  1.0000
  C   C165      1.0  0.03106  0.65543  0.01604  1.0000
  H   H252      1.0  0.21735  0.88853  0.01538  1.0000
  H   H253      1.0  0.44392  0.97204  0.00486  1.0000
  H   H254      1.0  0.32446  0.97113  0.00500  1.0000
  H   H255      1.0  0.25440  0.53540  0.01317  1.0000
  H   H256      1.0  0.00016  0.57064  0.33562  1.0000
  C   C166      1.0  0.31134  0.95811  0.02274  1.0000
  C   C167      1.0  0.28114  0.93452  0.01347  1.0000
  H   H257      1.0  0.38574  0.96686  0.05076  1.0000
  C   C168      1.0  0.04971  0.51630  0.00463  1.0000
  H   H258      1.0  0.28666  0.51959  0.01323  1.0000
  H   H259      1.0  0.07274  0.53232  0.00766  1.0000
  H   H260      1.0  0.09833  0.59411  0.03147  1.0000
  C   C169      1.0  0.99689  0.64742  0.05370  1.0000
  C   C170      1.0  0.38813  0.98257  0.03545  1.0000
  H   H261      1.0  0.21526  0.53836  0.02836  1.0000
  H   H262      1.0  0.99085  0.52040  0.19759  1.0000
  H   H263      1.0  0.26885  0.92475  0.03285  1.0000
  H   H264      1.0  0.23195  0.50050  0.02688  1.0000
  H   H265      1.0  0.00477  0.67513  0.01836  1.0000
  C   C171      1.0  0.01026  0.66054  0.02835  1.0000
  H   H266      1.0  0.08227  0.60843  0.00895  1.0000
  N   N10       1.0  0.02812  0.55025  0.00712  1.0000
  H   H267      1.0  0.99549  0.55049  0.03329  1.0000
  C   C172      1.0  0.38181  0.97426  0.00720  1.0000
  H   H268      1.0  0.29706  0.85778  0.00902  1.0000
  H   H269      1.0  0.01345  0.52076  0.05994  1.0000
  H   H270      1.0  0.04572  0.58012  0.04162  1.0000
  S   S53       1.0  0.98689  0.61029  0.09867  1.0000
  H   H271      1.0  0.99790  0.49299  0.16083  1.0000
  H   H272      1.0  0.32302  0.94917  0.03410  1.0000
  H   H273      1.0  0.17760  0.52415  0.02333  1.0000
  C   C173      1.0  0.19801  0.53002  0.01243  1.0000
  H   H274      1.0  0.02053  0.53754  0.33559  1.0000
  H   H275      1.0  0.04043  0.50617  0.02480  1.0000
  C   C174      1.0  0.24325  0.51218  0.00765  1.0000
  C   C175      1.0  0.99984  0.53479  0.02227  1.0000
  H   H276      1.0  0.27009  0.94512  0.00373  1.0000
  Fe  Fe27      1.0  0.37996  0.94500  0.60184  1.0000
  S   S54       1.0  0.37615  0.90185  0.59405  1.0000
  H   H277      1.0  0.12777  0.72522  0.54167  1.0000
  C   C176      1.0  0.37468  0.96917  0.43211  1.0000
  Fe  Fe28      1.0  0.39202  0.90510  0.63776  1.0000
  H   H278      1.0  0.06853  0.55806  0.66786  1.0000
  Fe  Fe29      1.0  0.33202  0.88267  0.61328  1.0000
  S   S55       1.0  0.29617  0.84034  0.59578  1.0000
  S   S56       1.0  0.39850  0.94903  0.64517  1.0000
  S   S57       1.0  0.33442  0.92553  0.61827  1.0000
  H   H279      1.0  0.01852  0.59208  0.45812  1.0000
  H   H280      1.0  0.02572  0.54118  0.37193  1.0000
  Fe  Fe30      1.0  0.14287  0.70965  0.64403  1.0000
  C   C177      1.0  0.99402  0.56865  0.49415  1.0000
  S   S58       1.0  0.17225  0.75828  0.64737  1.0000
  Fe  Fe31      1.0  0.12541  0.64842  0.62638  1.0000
  S   S59       1.0  0.08256  0.63007  0.64698  1.0000
  S   S60       1.0  0.12907  0.61633  0.59888  1.0000
  Fe  Fe32      1.0  0.08054  0.66659  0.62695  1.0000
  S   S61       1.0  0.03947  0.65859  0.60431  1.0000
  H   H281      1.0  0.37036  0.93681  0.47500  1.0000
  S   S62       1.0  0.12260  0.68405  0.60501  1.0000
  H   H282      1.0  0.16923  0.62445  0.64350  1.0000
  C   C178      1.0  0.41776  0.94409  0.39695  1.0000
  S   S63       1.0  0.00938  0.64385  0.47382  1.0000
  C   C179      1.0  0.01693  0.64644  0.51027  1.0000
  C   C180      1.0  0.04521  0.65577  0.51929  1.0000
  C   C181      1.0  0.05228  0.65859  0.54790  1.0000
  C   C182      1.0  0.03130  0.65293  0.56799  1.0000
  C   C183      1.0  0.04658  0.58510  0.54068  1.0000
  C   C184      1.0  0.47624  0.90786  0.58981  1.0000
  S   S64       1.0  0.17768  0.53799  0.64239  1.0000
  H   H283      1.0  0.28782  0.50067  0.60123  1.0000
  H   H284      1.0  0.98805  0.58537  0.49772  1.0000
  C   C185      1.0  0.99978  0.51283  0.54030  1.0000
  C   C186      1.0  0.16425  0.55973  0.63008  1.0000
  C   C187      1.0  0.14434  0.55054  0.60829  1.0000
  C   C188      1.0  0.13376  0.56818  0.59893  1.0000
  C   C189      1.0  0.14251  0.59477  0.61170  1.0000
  C   C190      1.0  0.16217  0.60384  0.63377  1.0000
  H   H285      1.0  0.03536  0.58636  0.35026  1.0000
  H   H286      1.0  0.13742  0.53004  0.59837  1.0000
  H   H287      1.0  0.11873  0.56120  0.58172  1.0000
  C   C191      1.0  0.40774  0.98552  0.43171  1.0000
  H   H288      1.0  0.41750  0.98435  0.48424  1.0000
  H   H289      1.0  0.43566  0.96451  0.48458  1.0000
  H   H290      1.0  0.01326  0.59639  0.54063  1.0000
  C   C192      1.0  0.45689  0.55536  0.62239  1.0000
  C   C193      1.0  0.01446  0.57645  0.54207  1.0000
  H   H291      1.0  0.43479  0.54081  0.61654  1.0000
  C   C194      1.0  0.26199  0.81781  0.61080  1.0000
  C   C195      1.0  0.24846  0.78801  0.60644  1.0000
  C   C196      1.0  0.22099  0.76941  0.61741  1.0000
  C   C197      1.0  0.20651  0.78053  0.63242  1.0000
  C   C198      1.0  0.21974  0.81039  0.63628  1.0000
  C   C199      1.0  0.24742  0.82894  0.62573  1.0000
  H   H292      1.0  0.25937  0.77923  0.59457  1.0000
  H   H293      1.0  0.21104  0.74651  0.61415  1.0000
  C   C200      1.0  0.07121  0.50865  0.64362  1.0000
  H   H294      1.0  0.25728  0.85187  0.62868  1.0000
  C   C201      1.0  0.45062  0.89529  0.63369  1.0000
  C   C202      1.0  0.45255  0.90348  0.60585  1.0000
  H   H295      1.0  0.01005  0.49998  0.53478  1.0000
  H   H296      1.0  0.05188  0.57381  0.55690  1.0000
  H   H297      1.0  0.43599  0.90672  0.59677  1.0000
  H   H298      1.0  0.02307  0.53981  0.50617  1.0000
  H   H299      1.0  0.01114  0.52599  0.55880  1.0000
  H   H300      1.0  0.06177  0.66074  0.50400  1.0000
  C   C203      1.0  0.00140  0.53127  0.51513  1.0000
  C   C204      1.0  0.99579  0.64006  0.53036  1.0000
  H   H301      1.0  0.13405  0.78554  0.64855  1.0000
  C   C205      1.0  0.41770  0.96583  0.47439  1.0000
  S   S65       1.0  0.40873  0.98271  0.57263  1.0000
  S   S66       1.0  0.10015  0.69456  0.66519  1.0000
  S   S67       1.0  0.14994  0.67557  0.66337  1.0000
  H   H302      1.0  0.47779  0.91437  0.56833  1.0000
  H   H303      1.0  0.07406  0.66544  0.55434  1.0000
  C   C206      1.0  0.47432  0.54453  0.63135  1.0000
  C   C207      1.0  0.47869  0.98140  0.60490  1.0000
  H   H304      1.0  0.36486  0.94604  0.42765  1.0000
  N   N11       1.0  0.99435  0.55457  0.52112  1.0000
  S   S68       1.0  0.34809  0.88255  0.65620  1.0000
  H   H305      1.0  0.05422  0.58233  0.52026  1.0000
  H   H306      1.0  0.48223  0.56082  0.52995  1.0000
  H   H307      1.0  0.39112  0.91905  0.47982  1.0000
  H   H308      1.0  0.03073  0.56956  0.47213  1.0000
  H   H309      1.0  0.38832  0.94004  0.50703  1.0000
  N   N12       1.0  0.09562  0.75147  0.58760  1.0000
  C   C208      1.0  0.11678  0.75931  0.61134  1.0000
  C   C209      1.0  0.09869  0.73027  0.56947  1.0000
  C   C210      1.0  0.06592  0.73712  0.60003  1.0000
  C   C211      1.0  0.10206  0.77849  0.57238  1.0000
  H   H310      1.0  0.00497  0.54487  0.41166  1.0000
  C   C212      1.0  0.12901  0.74071  0.55771  1.0000
  C   C213      1.0  0.04038  0.72535  0.57961  1.0000
  C   C214      1.0  0.09146  0.77507  0.54186  1.0000
  H   H311      1.0  0.11442  0.73964  0.62141  1.0000
  H   H312      1.0  0.13931  0.77124  0.60371  1.0000
  H   H313      1.0  0.08385  0.72297  0.55145  1.0000
  H   H314      1.0  0.09237  0.71030  0.58132  1.0000
  H   H315      1.0  0.06273  0.71901  0.61359  1.0000
  H   H316      1.0  0.06313  0.75217  0.61376  1.0000
  H   H317      1.0  0.09318  0.79024  0.58397  1.0000
  H   H318      1.0  0.12573  0.79334  0.57162  1.0000
  C   C215      1.0  0.46835  0.58515  0.62025  1.0000
  H   H319      1.0  0.35828  0.97342  0.53960  1.0000
  H   H320      1.0  0.46699  0.54192  0.56136  1.0000
  Fe  Fe33      1.0  0.35314  0.92611  0.66080  1.0000
  H   H321      1.0  0.13820  0.76200  0.54778  1.0000
  H   H322      1.0  0.14397  0.74141  0.57407  1.0000
  H   H323      1.0  0.02021  0.71314  0.59163  1.0000
  H   H324      1.0  0.04041  0.71003  0.56424  1.0000
  H   H325      1.0  0.03906  0.74291  0.56907  1.0000
  H   H326      1.0  0.08466  0.79108  0.53770  1.0000
  H   H327      1.0  0.07301  0.75395  0.53629  1.0000
  H   H328      1.0  0.10938  0.78035  0.52723  1.0000
  H   H329      1.0  0.48310  0.84975  0.57473  1.0000
  C   C216      1.0  0.00303  0.64363  0.55896  1.0000
  C   C217      1.0  0.01089  0.54003  0.35514  1.0000
  H   H330      1.0  0.00543  0.57504  0.37290  1.0000
  C   C218      1.0  0.11505  0.77815  0.63466  1.0000
  C   C219      1.0  0.17329  0.58647  0.64270  1.0000
  H   H331      1.0  0.98660  0.63930  0.57421  1.0000
  S   S69       1.0  0.46196  0.50752  0.63125  1.0000
  H   H332      1.0  0.05989  0.60821  0.54608  1.0000
  H   H333      1.0  0.18884  0.59372  0.65947  1.0000
  H   H334      1.0  0.00750  0.56845  0.56362  1.0000
  H   H335      1.0  0.45492  0.59346  0.61290  1.0000
  H   H336      1.0  0.06350  0.52254  0.63458  1.0000
  H   H337      1.0  0.42605  0.93254  0.43750  1.0000
  H   H338      1.0  0.39101  0.92649  0.43250  1.0000
  H   H339      1.0  0.47400  0.77740  0.56668  1.0000
  C   C220      1.0  0.39015  0.93881  0.48407  1.0000
  H   H340      1.0  0.20852  0.81920  0.64753  1.0000
  H   H341      1.0  0.46413  0.81213  0.58273  1.0000
  C   C221      1.0  0.02239  0.58393  0.47790  1.0000
  C   C222      1.0  0.41387  0.94250  0.42881  1.0000
  S   S70       1.0  0.42294  0.89228  0.65524  1.0000
  H   H342      1.0  0.11543  0.79753  0.62648  1.0000
  N   N13       1.0  0.42272  0.97054  0.44342  1.0000
  H   H343      1.0  0.36676  0.97758  0.41528  1.0000
  H   H344      1.0  0.03879  0.60311  0.48931  1.0000
  H   H345      1.0  0.46119  0.95204  0.65583  1.0000
  C   C223      1.0  0.47206  0.89091  0.64522  1.0000
  H   H346      1.0  0.09324  0.51578  0.63641  1.0000
  H   H347      1.0  0.47143  0.74761  0.58522  1.0000
  H   H348      1.0  0.99790  0.49084  0.38070  1.0000
  H   H349      1.0  0.48393  0.57981  0.56209  1.0000
  H   H350      1.0  0.36661  0.97247  0.45224  1.0000
  H   H351      1.0  0.40942  0.92205  0.38862  1.0000
  H   H352      1.0  0.09590  0.76573  0.64793  1.0000
  H   H353      1.0  0.44066  0.95657  0.39085  1.0000
  H   H354      1.0  0.40536  0.95286  0.38662  1.0000
  Fe  Fe34      1.0  0.15351  0.49078  0.63164  1.0000
  H   H355      1.0  0.46132  0.98448  0.66232  1.0000
  C   C224      1.0  0.01264  0.56947  0.35346  1.0000
  H   H356      1.0  0.46645  0.97843  0.44430  1.0000
  H   H357      1.0  0.47054  0.88442  0.66672  1.0000
  H   H358      1.0  0.11572  0.55832  0.66023  1.0000
  H   H359      1.0  0.98714  0.50655  0.41843  1.0000
  H   H360      1.0  0.45662  0.96874  0.61327  1.0000
  H   H361      1.0  0.98661  0.51637  0.49883  1.0000
  C   C225      1.0  0.47381  0.97336  0.66602  1.0000
  H   H362      1.0  0.29475  0.51067  0.66847  1.0000
  H   H363      1.0  0.12286  0.51837  0.66839  1.0000
  S   S71       1.0  0.33717  0.93592  0.70112  1.0000
  Fe  Fe35      1.0  0.35921  0.91574  0.86856  1.0000
  S   S72       1.0  0.34183  0.87188  0.88722  1.0000
  S   S73       1.0  0.37370  0.91838  0.82312  1.0000
  Fe  Fe36      1.0  0.36342  0.94299  0.92763  1.0000
  S   S74       1.0  0.34659  0.90073  0.94911  1.0000
  Fe  Fe37      1.0  0.37566  0.89424  0.92021  1.0000
  S   S75       1.0  0.40415  0.87667  0.93341  1.0000
  Fe  Fe38      1.0  0.31422  0.88251  0.91401  1.0000
  S   S76       1.0  0.26559  0.85601  0.92031  1.0000
  C   C226      1.0  0.07443  0.49796  0.73778  1.0000
  S   S77       1.0  0.32955  0.92547  0.89358  1.0000
  S   S78       1.0  0.45507  0.51712  0.89184  1.0000
  S   S79       1.0  0.10158  0.64086  0.72713  1.0000
  S   S80       1.0  0.16806  0.53557  0.94412  1.0000
  Fe  Fe39      1.0  0.14200  0.69231  0.93588  1.0000
  S   S81       1.0  0.10995  0.70606  0.92580  1.0000
  S   S82       1.0  0.19050  0.72108  0.94050  1.0000
  Fe  Fe40      1.0  0.09699  0.62915  0.92973  1.0000
  S   S83       1.0  0.06229  0.63883  0.91793  1.0000
  S   S84       1.0  0.08207  0.58197  0.93186  1.0000
  Fe  Fe41      1.0  0.09597  0.67342  0.89097  1.0000
  S   S85       1.0  0.09133  0.68741  0.84715  1.0000
  Fe  Fe42      1.0  0.07923  0.66985  0.95400  1.0000
  S   S86       1.0  0.04702  0.67257  0.98379  1.0000
  S   S87       1.0  0.12910  0.66102  0.90011  1.0000
  S   S88       1.0  0.11272  0.65865  0.96673  1.0000
  H   H364      1.0  0.45206  0.86771  0.92435  1.0000
  H   H365      1.0  0.10036  0.59202  0.67149  1.0000
  S   S89       1.0  0.39450  0.93748  0.90057  1.0000
  C   C227      1.0  0.14444  0.54921  0.94595  1.0000
  C   C228      1.0  0.11483  0.53042  0.94583  1.0000
  C   C229      1.0  0.09592  0.54096  0.94282  1.0000
  C   C230      1.0  0.10644  0.57042  0.94027  1.0000
  C   C231      1.0  0.13599  0.58953  0.94241  1.0000
  C   C232      1.0  0.15501  0.57888  0.94536  1.0000
  H   H366      1.0  0.10643  0.50764  0.94772  1.0000
  H   H367      1.0  0.07311  0.52603  0.94126  1.0000
  H   H368      1.0  0.14424  0.61236  0.94072  1.0000
  H   H369      1.0  0.17793  0.59357  0.94584  1.0000
  C   C233      1.0  0.09961  0.65486  0.76027  1.0000
  C   C234      1.0  0.09446  0.67775  0.76308  1.0000
  C   C235      1.0  0.09172  0.68717  0.78978  1.0000
  C   C236      1.0  0.09459  0.67423  0.81406  1.0000
  C   C237      1.0  0.10030  0.65169  0.81129  1.0000
  C   C238      1.0  0.10255  0.64195  0.78458  1.0000
  H   H370      1.0  0.09196  0.68781  0.74467  1.0000
  H   H371      1.0  0.08727  0.70458  0.79161  1.0000
  H   H372      1.0  0.10265  0.64160  0.82972  1.0000
  H   H373      1.0  0.10648  0.62422  0.78267  1.0000
  C   C239      1.0  0.46984  0.55304  0.90258  1.0000
  H   H374      1.0  0.24151  0.90479  0.97405  1.0000
  C   C240      1.0  0.45767  0.56122  0.92386  1.0000
  C   C241      1.0  0.45846  0.91995  0.77777  1.0000
  H   H375      1.0  0.43782  0.54542  0.93340  1.0000
  C   C242      1.0  0.24522  0.81860  0.92668  1.0000
  C   C243      1.0  0.21540  0.80577  0.93073  1.0000
  C   C244      1.0  0.19830  0.77599  0.93516  1.0000
  C   C245      1.0  0.21094  0.75874  0.93567  1.0000
  C   C246      1.0  0.24080  0.77166  0.93195  1.0000
  C   C247      1.0  0.25785  0.80138  0.92736  1.0000
  H   H376      1.0  0.20541  0.81890  0.93029  1.0000
  H   H377      1.0  0.17539  0.76639  0.93822  1.0000
  H   H378      1.0  0.25081  0.75854  0.93249  1.0000
  H   H379      1.0  0.28077  0.81095  0.92438  1.0000
  C   C248      1.0  0.44117  0.90088  0.92957  1.0000
  H   H380      1.0  0.46356  0.54134  0.77354  1.0000
  N   N14       1.0  0.27881  0.82873  0.70999  1.0000
  C   C249      1.0  0.45176  0.93043  0.93014  1.0000
  C   C250      1.0  0.00280  0.55856  0.96512  1.0000
  H   H381      1.0  0.10644  0.54852  0.78807  1.0000
  H   H382      1.0  0.43767  0.93862  0.93522  1.0000
  C   C251      1.0  0.34690  0.93019  0.73492  1.0000
  H   H383      1.0  0.21600  0.52513  0.94760  1.0000
  H   H384      1.0  0.32193  0.93668  0.97479  1.0000
  C   C252      1.0  0.36203  0.92227  0.78954  1.0000
  C   C253      1.0  0.37503  0.91806  0.76597  1.0000
  C   C254      1.0  0.36743  0.92182  0.73885  1.0000
  C   C255      1.0  0.48057  0.94947  0.92362  1.0000
  H   H385      1.0  0.46679  0.93422  0.75939  1.0000
  C   C256      1.0  0.42402  0.49097  0.76261  1.0000
  C   C257      1.0  0.29260  0.94535  0.95207  1.0000
  H   H386      1.0  0.32950  0.50735  0.70502  1.0000
  C   C258      1.0  0.28480  0.86618  0.99770  1.0000
  C   C259      1.0  0.47180  0.58984  0.93338  1.0000
  C   C260      1.0  0.46703  0.52690  0.78756  1.0000
  H   H387      1.0  0.22597  0.75838  0.69221  1.0000
  C   C261      1.0  0.47202  0.96807  0.69766  1.0000
  C   C262      1.0  0.42892  0.89366  0.82961  1.0000
  H   H388      1.0  0.30450  0.87480  0.70406  1.0000
  H   H389      1.0  0.39169  0.51172  0.78832  1.0000
  H   H390      1.0  0.27923  0.54603  0.96262  1.0000
  C   C263      1.0  0.06758  0.50677  0.67562  1.0000
  C   C264      1.0  0.33367  0.93413  0.75845  1.0000
  H   H391      1.0  0.25799  0.80589  0.67216  1.0000
  C   C265      1.0  0.34104  0.93004  0.78561  1.0000
  H   H392      1.0  0.26838  0.88458  0.68608  1.0000
  C   C266      1.0  0.13745  0.58678  0.86458  1.0000
  H   H393      1.0  0.30582  0.81765  0.68545  1.0000
  H   H394      1.0  0.24239  0.76984  0.72564  1.0000
  H   H395      1.0  0.23745  0.55029  0.97369  1.0000
  C   C267      1.0  0.24980  0.89237  0.98525  1.0000
  H   H396      1.0  0.23385  0.80536  0.69779  1.0000
  H   H397      1.0  0.12637  0.57187  0.69431  1.0000
  H   H398      1.0  0.42038  0.50846  0.75520  1.0000
  H   H399      1.0  0.47870  0.90037  0.83116  1.0000
  H   H400      1.0  0.13836  0.53193  0.73050  1.0000
  C   C268      1.0  0.26045  0.53660  0.94834  1.0000
  C   C269      1.0  0.30560  0.82647  0.70644  1.0000
  H   H401      1.0  0.17760  0.58564  0.85776  1.0000
  H   H402      1.0  0.47741  0.95872  0.80213  1.0000
  H   H403      1.0  0.32942  0.80628  0.72124  1.0000
  H   H404      1.0  0.29294  0.78768  0.73240  1.0000
  H   H405      1.0  0.44939  0.95239  0.70309  1.0000
  H   H406      1.0  0.10317  0.54379  0.73446  1.0000
  C   C270      1.0  0.45782  0.93728  0.80313  1.0000
  N   N15       1.0  0.11483  0.56104  0.84866  1.0000
  H   H407      1.0  0.48005  0.49421  0.82904  1.0000
  C   C271      1.0  0.40822  0.52032  0.80502  1.0000
  H   H408      1.0  0.28905  0.85511  0.67319  1.0000
  H   H409      1.0  0.33094  0.93349  0.80348  1.0000
  H   H410      1.0  0.05842  0.49792  0.87543  1.0000
  H   H411      1.0  0.13900  0.54028  0.83687  1.0000
  H   H412      1.0  0.12805  0.59122  0.88325  1.0000
  C   C272      1.0  0.07373  0.50891  0.85816  1.0000
  H   H413      1.0  0.42582  0.54189  0.79925  1.0000
  H   H414      1.0  0.06726  0.49994  0.75890  1.0000
  H   H415      1.0  0.21120  0.85491  0.00078  1.0000
  H   H416      1.0  0.24073  0.84802  0.68706  1.0000
  H   H417      1.0  0.09101  0.54436  0.88705  1.0000
  C   C273      1.0  0.25384  0.80435  0.69494  1.0000
  H   H418      1.0  0.25657  0.86791  0.71899  1.0000
  H   H419      1.0  0.47233  0.91047  0.78135  1.0000
  H   H420      1.0  0.06533  0.58528  0.84190  1.0000
  H   H421      1.0  0.25027  0.82837  0.74183  1.0000
  C   C274      1.0  0.08520  0.52656  0.72221  1.0000
  H   H422      1.0  0.15610  0.55576  0.70141  1.0000
  H   H423      1.0  0.08189  0.57369  0.70205  1.0000
  H   H424      1.0  0.26281  0.76882  0.69569  1.0000
  C   C275      1.0  0.46007  0.89056  0.92443  1.0000
  C   C276      1.0  0.19467  0.50322  0.99719  1.0000
  H   H425      1.0  0.26170  0.85003  0.99984  1.0000
  N   N16       1.0  0.18696  0.75185  0.84363  1.0000
  C   C277      1.0  0.16429  0.76055  0.84310  1.0000
  C   C278      1.0  0.19419  0.74870  0.81399  1.0000
  C   C279      1.0  0.21389  0.77399  0.85812  1.0000
  C   C280      1.0  0.17530  0.72410  0.85934  1.0000
  C   C281      1.0  0.15735  0.76947  0.87128  1.0000
  C   C282      1.0  0.17075  0.72271  0.79781  1.0000
  C   C283      1.0  0.22788  0.80458  0.84623  1.0000
  C   C284      1.0  0.19517  0.71110  0.86122  1.0000
  H   H426      1.0  0.17010  0.77852  0.82840  1.0000
  H   H427      1.0  0.14359  0.74267  0.83505  1.0000
  H   H428      1.0  0.21438  0.74783  0.81278  1.0000
  H   H429      1.0  0.19873  0.76797  0.80167  1.0000
  H   H430      1.0  0.20983  0.77525  0.88049  1.0000
  H   H431      1.0  0.23066  0.76764  0.85779  1.0000
  H   H432      1.0  0.17075  0.72704  0.88130  1.0000
  H   H433      1.0  0.15389  0.70751  0.85130  1.0000
  H   H434      1.0  0.17592  0.78903  0.88006  1.0000
  H   H435      1.0  0.13986  0.77447  0.86810  1.0000
  H   H436      1.0  0.14935  0.75201  0.88673  1.0000
  H   H437      1.0  0.16644  0.70203  0.80686  1.0000
  H   H438      1.0  0.15054  0.72336  0.79657  1.0000
  H   H439      1.0  0.17799  0.72316  0.77609  1.0000
  H   H440      1.0  0.21324  0.81346  0.84669  1.0000
  H   H441      1.0  0.23592  0.80558  0.82481  1.0000
  H   H442      1.0  0.24674  0.81896  0.85941  1.0000
  H   H443      1.0  0.20873  0.71885  0.88030  1.0000
  H   H444      1.0  0.20937  0.71581  0.84308  1.0000
  H   H445      1.0  0.18189  0.68738  0.86205  1.0000
  H   H446      1.0  0.29480  0.84946  0.77860  1.0000
  H   H447      1.0  0.26477  0.51072  0.68420  1.0000
  C   C285      1.0  0.44912  0.94005  0.85278  1.0000
  H   H448      1.0  0.43963  0.94137  0.79971  1.0000
  C   C286      1.0  0.07918  0.57971  0.85450  1.0000
  H   H449      1.0  0.43786  0.87757  0.86852  1.0000
  H   H450      1.0  0.40359  0.85427  0.85299  1.0000
  H   H451      1.0  0.12572  0.52961  0.78880  1.0000
  H   H452      1.0  0.43255  0.87977  0.81495  1.0000
  H   H453      1.0  0.06484  0.56247  0.86895  1.0000
  H   H454      1.0  0.04966  0.51079  0.68051  1.0000
  H   H455      1.0  0.26752  0.80976  0.75125  1.0000
  Fe  Fe43      1.0  0.14622  0.49135  0.92483  1.0000
  H   H456      1.0  0.14619  0.60651  0.85165  1.0000
  H   H457      1.0  0.31844  0.82110  0.74854  1.0000
  H   H458      1.0  0.27592  0.49788  0.89839  1.0000
  H   H459      1.0  0.31563  0.86496  0.74843  1.0000
  H   H460      1.0  0.47785  0.98438  0.83790  1.0000
  H   H461      1.0  0.21802  0.50210  0.83182  1.0000
  C   C287      1.0  0.27135  0.82932  0.74003  1.0000
  H   H462      1.0  0.17696  0.60357  0.88872  1.0000
  H   H463      1.0  0.14525  0.49906  0.76985  1.0000
  C   C288      1.0  0.28466  0.85606  0.69571  1.0000
  H   H464      1.0  0.00318  0.54115  0.95310  1.0000
  C   C289      1.0  0.03332  0.52954  0.99027  1.0000
  C   C290      1.0  0.29361  0.85569  0.75684  1.0000
  C   C291      1.0  0.41920  0.49943  0.81146  1.0000
  Fe  Fe44      1.0  0.10650  0.65947  0.68305  1.0000
  C   C292      1.0  0.23271  0.52973  0.96373  1.0000
  H   H465      1.0  0.15741  0.56538  0.88759  1.0000
  H   H466      1.0  0.47459  0.56160  0.81680  1.0000
  N   N17       1.0  0.45495  0.92339  0.83102  1.0000
  H   H467      1.0  0.42868  0.93968  0.84802  1.0000
  H   H468      1.0  0.25877  0.51785  0.93719  1.0000
  H   H469      1.0  0.20148  0.54727  0.99771  1.0000
  C   C293      1.0  0.09898  0.53720  0.86923  1.0000
  H   H470      1.0  0.14846  0.57232  0.81822  1.0000
  C   C294      1.0  0.16362  0.58481  0.87507  1.0000
  H   H471      1.0  0.29625  0.90773  0.95455  1.0000
  H   H472      1.0  0.11382  0.53115  0.87924  1.0000
  C   C295      1.0  0.10738  0.55699  0.68157  1.0000
  N   N18       1.0  0.28035  0.91177  0.99458  1.0000
  H   H473      1.0  0.43643  0.90257  0.77236  1.0000
  H   H474      1.0  0.09286  0.51519  0.80708  1.0000
  H   H475      1.0  0.29524  0.96393  0.96438  1.0000
  H   H476      1.0  0.31777  0.94062  0.75566  1.0000
  H   H477      1.0  0.48248  0.91986  0.86182  1.0000
  H   H478      1.0  0.40998  0.89442  0.82126  1.0000
  C   C296      1.0  0.48087  0.92089  0.83884  1.0000
  H   H479      1.0  0.10541  0.49352  0.69520  1.0000
  H   H480      1.0  0.48043  0.55777  0.98662  1.0000
  H   H481      1.0  0.37775  0.91864  0.72099  1.0000
  H   H482      1.0  0.06086  0.51181  0.84195  1.0000
  H   H483      1.0  0.09154  0.49243  0.74059  1.0000
  C   C297      1.0  0.12988  0.55278  0.82712  1.0000
  H   H484      1.0  0.27248  0.50381  0.98035  1.0000
  C   C298      1.0  0.11225  0.53551  0.80156  1.0000
  H   H485      1.0  0.01263  0.51144  0.98245  1.0000
  C   C299      1.0  0.24625  0.77380  0.70305  1.0000
  H   H486      1.0  0.07864  0.55259  0.82179  1.0000
  H   H487      1.0  0.08137  0.49445  0.85038  1.0000
  H   H488      1.0  0.28783  0.87279  0.75716  1.0000
  H   H489      1.0  0.26480  0.55309  0.93232  1.0000
  H   H490      1.0  0.40878  0.88539  0.87095  1.0000
  H   H491      1.0  0.09395  0.59926  0.86650  1.0000
  H   H492      1.0  0.06753  0.53160  0.72349  1.0000
  H   H493      1.0  0.29080  0.86782  0.97554  1.0000
  C   C300      1.0  0.29871  0.92480  0.96920  1.0000
  H   H494      1.0  0.39122  0.91197  0.76870  1.0000
  H   H495      1.0  0.10786  0.58788  0.82006  1.0000
  H   H496      1.0  0.44608  0.93001  0.87351  1.0000
  C   C301      1.0  0.41961  0.87708  0.85727  1.0000
  C   C302      1.0  0.09533  0.56997  0.83480  1.0000
  C   C303      1.0  0.26088  0.86408  0.69735  1.0000
  C   C304      1.0  0.31145  0.80921  0.72851  1.0000
  C   C305      1.0  0.14288  0.53312  0.70794  1.0000
  H   H497      1.0  0.30852  0.95435  0.93496  1.0000
  H   H498      1.0  0.46275  0.59601  0.95030  1.0000
  H   H499      1.0  0.27112  0.93408  0.94208  1.0000
  N   N19       1.0  0.22161  0.50577  0.98468  1.0000
  N   N20       1.0  0.43947  0.49857  0.79035  1.0000
  H   H500      1.0  0.47470  0.53192  0.83392  1.0000
  C   C306      1.0  0.11539  0.51671  0.69012  1.0000
  C   C307      1.0  0.26660  0.50391  0.00233  1.0000
  H   H501      1.0  0.00657  0.57570  0.95006  1.0000
  N   N21       1.0  0.09389  0.52679  0.69239  1.0000
  H   H502      1.0  0.15651  0.52327  0.70456  1.0000
  H   H503      1.0  0.32535  0.84802  0.70671  1.0000
  C   C308      1.0  0.08795  0.57041  0.68089  1.0000
  H   H504      1.0  0.24820  0.87653  0.96934  1.0000
  C   C309      1.0  0.48020  0.54445  0.81457  1.0000
  H   H505      1.0  0.47794  0.98805  0.70944  1.0000
  H   H506      1.0  0.46159  0.50222  0.73573  1.0000
  H   H507      1.0  0.39773  0.52281  0.82388  1.0000
  H   H508      1.0  0.42876  0.50502  0.83256  1.0000
  H   H509      1.0  0.34926  0.50986  0.67486  1.0000
  H   H510      1.0  0.47712  0.52869  0.96624  1.0000
  C   C310      1.0  0.47233  0.97159  0.85719  1.0000
  H   H511      1.0  0.17788  0.49742  0.98090  1.0000
  H   H512      1.0  0.48385  0.52379  0.77735  1.0000
  S   S90       1.0  0.37600  0.98492  0.95125  1.0000
  H   H513      1.0  0.46394  0.98149  0.87201  1.0000
  C   C311      1.0  0.33506  0.49463  0.69096  1.0000
  H   H514      1.0  0.28517  0.49138  0.71776  1.0000
  H   H515      1.0  0.37467  0.95238  0.00101  1.0000
  C   C312      1.0  0.02648  0.57139  0.98767  1.0000
  H   H516      1.0  0.04577  0.53998  0.97120  1.0000
  C   C313      1.0  0.27272  0.49652  0.67640  1.0000
  H   H517      1.0  0.44976  0.98697  0.97102  1.0000
  H   H518      1.0  0.04691  0.58396  0.97610  1.0000
  H   H519      1.0  0.04900  0.49931  0.99090  1.0000
  H   H520      1.0  0.08672  0.57909  0.99728  1.0000
  H   H521      1.0  0.02339  0.58739  0.99958  1.0000
  C   C314      1.0  0.72837  0.10897  0.04469  1.0000
  S   S91       1.0  0.53337  0.12759  0.07982  1.0000
  Fe  Fe45      1.0  0.67716  0.09646  0.10152  1.0000
  S   S92       1.0  0.69749  0.14444  0.09612  1.0000
  S   S93       1.0  0.65338  0.06926  0.06276  1.0000
  Fe  Fe46      1.0  0.68969  0.10386  0.16565  1.0000
  S   S94       1.0  0.71107  0.15170  0.16358  1.0000
  S   S95       1.0  0.68085  0.08003  0.20714  1.0000
  Fe  Fe47      1.0  0.67432  0.14350  0.13528  1.0000
  S   S96       1.0  0.65043  0.16722  0.14412  1.0000
  Fe  Fe48      1.0  0.73242  0.14816  0.12474  1.0000
  S   S97       1.0  0.78094  0.17409  0.11754  1.0000
  S   S98       1.0  0.65172  0.09582  0.13911  1.0000
  S   S99       1.0  0.71340  0.10014  0.12835  1.0000
  S   S100      1.0  0.53771  0.42818  0.16226  1.0000
  C   C315      1.0  0.53729  0.05826  0.04266  1.0000
  C   C316      1.0  0.91645  0.23874  0.01827  1.0000
  S   S101      1.0  0.93687  0.37334  0.07200  1.0000
  Fe  Fe49      1.0  0.94075  0.36032  0.15144  1.0000
  S   S102      1.0  0.90735  0.36856  0.13238  1.0000
  S   S103      1.0  0.92874  0.34720  0.19676  1.0000
  Fe  Fe50      1.0  0.90390  0.33790  0.09882  1.0000
  S   S104      1.0  0.85948  0.30502  0.08246  1.0000
  Fe  Fe51      1.0  0.94341  0.40278  0.10778  1.0000
  Fe  Fe52      1.0  0.49303  0.11434  0.10452  1.0000
  S   S105      1.0  0.93579  0.32809  0.11844  1.0000
  C   C317      1.0  0.93499  0.46153  0.11678  1.0000
  H   H522      1.0  0.50160  0.46536  0.01463  1.0000
  H   H523      1.0  0.50430  0.01483  0.08015  1.0000
  C   C318      1.0  0.91058  0.44347  0.13226  1.0000
  H   H524      1.0  0.86489  0.24885  0.16307  1.0000
  H   H525      1.0  0.89390  0.28595  0.16351  1.0000
  H   H526      1.0  0.90235  0.42063  0.13217  1.0000
  H   H527      1.0  0.49804  0.30782  0.21072  1.0000
  C   C319      1.0  0.54016  0.07522  0.21514  1.0000
  C   C320      1.0  0.94663  0.36145  0.22896  1.0000
  C   C321      1.0  0.93055  0.35227  0.25363  1.0000
  C   C322      1.0  0.94360  0.36278  0.27979  1.0000
  H   H528      1.0  0.90781  0.33695  0.25257  1.0000
  H   H529      1.0  0.93092  0.35564  0.29856  1.0000
  H   H530      1.0  0.56890  0.45106  0.24930  1.0000
  H   H531      1.0  0.51223  0.08598  0.00896  1.0000
  C   C323      1.0  0.56774  0.45155  0.14235  1.0000
  C   C324      1.0  0.57275  0.44376  0.11606  1.0000
  H   H532      1.0  0.48723  0.40657  0.25167  1.0000
  H   H533      1.0  0.84204  0.32656  0.13821  1.0000
  H   H534      1.0  0.55860  0.42245  0.10797  1.0000
  C   C325      1.0  0.80223  0.21073  0.10838  1.0000
  C   C326      1.0  0.79008  0.22707  0.09966  1.0000
  C   C327      1.0  0.80792  0.25590  0.09185  1.0000
  C   C328      1.0  0.83801  0.26898  0.09349  1.0000
  C   C329      1.0  0.85015  0.25275  0.10258  1.0000
  C   C330      1.0  0.83234  0.22366  0.10957  1.0000
  H   H535      1.0  0.76697  0.21738  0.09851  1.0000
  H   H536      1.0  0.79833  0.26823  0.08463  1.0000
  H   H537      1.0  0.87326  0.26243  0.10370  1.0000
  H   H538      1.0  0.84192  0.21115  0.11622  1.0000
  C   C331      1.0  0.65279  0.04404  0.03791  1.0000
  C   C332      1.0  0.54321  0.09860  0.17002  1.0000
  H   H539      1.0  0.53000  0.11737  0.21894  1.0000
  C   C333      1.0  0.67109  0.03259  0.03963  1.0000
  H   H540      1.0  0.62260  0.15391  0.29909  1.0000
  H   H541      1.0  0.68578  0.03833  0.05700  1.0000
  C   C334      1.0  0.56519  0.13763  0.09864  1.0000
  C   C335      1.0  0.58260  0.12612  0.09128  1.0000
  C   C336      1.0  0.60863  0.13472  0.10536  1.0000
  C   C337      1.0  0.61786  0.15568  0.12620  1.0000
  C   C338      1.0  0.60072  0.16760  0.13318  1.0000
  C   C339      1.0  0.57422  0.15824  0.11981  1.0000
  H   H542      1.0  0.57603  0.11051  0.07468  1.0000
  H   H543      1.0  0.62181  0.12553  0.09973  1.0000
  H   H544      1.0  0.60799  0.18410  0.14902  1.0000
  H   H545      1.0  0.56098  0.16721  0.12568  1.0000
  C   C340      1.0  0.70790  0.11894  0.29553  1.0000
  C   C341      1.0  0.68994  0.08942  0.29168  1.0000
  C   C342      1.0  0.68180  0.07791  0.26455  1.0000
  C   C343      1.0  0.69133  0.09570  0.24095  1.0000
  C   C344      1.0  0.70906  0.12524  0.24488  1.0000
  C   C345      1.0  0.71739  0.13672  0.27196  1.0000
  H   H546      1.0  0.68257  0.07540  0.30952  1.0000
  H   H547      1.0  0.66818  0.05501  0.26177  1.0000
  H   H548      1.0  0.71662  0.13921  0.22702  1.0000
  H   H549      1.0  0.73120  0.15959  0.27463  1.0000
  S   S106      1.0  0.48555  0.13657  0.14037  1.0000
  H   H550      1.0  0.86497  0.20305  0.31016  1.0000
  H   H551      1.0  0.55868  0.22002  0.03243  1.0000
  H   H552      1.0  0.73404  0.08192  0.07413  1.0000
  C   C346      1.0  0.53768  0.41020  0.23307  1.0000
  H   H553      1.0  0.50376  0.22410  0.02064  1.0000
  H   H554      1.0  0.80487  0.16423  0.01072  1.0000
  C   C347      1.0  0.53721  0.20089  0.03641  1.0000
  S   S107      1.0  0.49497  0.29182  0.12476  1.0000
  H   H555      1.0  0.77997  0.13775  0.32237  1.0000
  H   H556      1.0  0.66295  0.12963  0.29708  1.0000
  C   C348      1.0  0.87992  0.26702  0.17645  1.0000
  C   C349      1.0  0.58631  0.47911  0.15278  1.0000
  H   H557      1.0  0.49423  0.42668  0.09500  1.0000
  C   C350      1.0  0.53670  0.22229  0.08096  1.0000
  H   H558      1.0  0.52786  0.18180  0.10111  1.0000
  N   N22       1.0  0.62089  0.12633  0.33249  1.0000
  H   H559      1.0  0.75794  0.09198  0.04565  1.0000
  H   H560      1.0  0.82092  0.31740  0.16888  1.0000
  H   H561      1.0  0.75866  0.19804  0.03231  1.0000
  H   H562      1.0  0.95646  0.33904  0.02654  1.0000
  C   C351      1.0  0.67031  0.01352  0.01882  1.0000
  H   H563      1.0  0.54135  0.48682  0.24211  1.0000
  C   C352      1.0  0.75927  0.13194  0.00350  1.0000
  H   H564      1.0  0.66658  0.16281  0.28482  1.0000
  C   C353      1.0  0.49066  0.47280  0.02913  1.0000
  H   H565      1.0  0.52151  0.48109  0.27284  1.0000
  H   H566      1.0  0.49886  0.46099  0.21930  1.0000
  H   H567      1.0  0.89440  0.26072  0.18681  1.0000
  H   H568      1.0  0.71447  0.11104  0.06055  1.0000
  H   H569      1.0  0.95967  0.30546  0.07637  1.0000
  C   C354      1.0  0.53300  0.06962  0.15519  1.0000
  H   H570      1.0  0.90882  0.41996  0.22553  1.0000
  H   H571      1.0  0.93826  0.46530  0.32670  1.0000
  H   H572      1.0  0.51558  0.41460  0.06304  1.0000
  C   C355      1.0  0.82064  0.26998  0.23914  1.0000
  N   N23       1.0  0.52746  0.44539  0.26085  1.0000
  H   H573      1.0  0.88070  0.29398  0.21002  1.0000
  H   H574      1.0  0.68460  0.00492  0.02041  1.0000
  C   C356      1.0  0.86418  0.27445  0.19890  1.0000
  S   S108      1.0  0.48767  0.34642  0.16796  1.0000
  H   H575      1.0  0.61844  0.09778  0.19245  1.0000
  H   H576      1.0  0.81277  0.29346  0.20780  1.0000
  C   C357      1.0  0.50644  0.44998  0.10003  1.0000
  H   H577      1.0  0.90819  0.26488  0.04703  1.0000
  C   C358      1.0  0.52122  0.43021  0.04592  1.0000
  H   H578      1.0  0.94730  0.26796  0.06982  1.0000
  H   H579      1.0  0.49353  0.25628  0.04414  1.0000
  H   H580      1.0  0.50227  0.43159  0.20524  1.0000
  H   H581      1.0  0.51389  0.01626  0.02340  1.0000
  H   H582      1.0  0.77263  0.23186  0.19479  1.0000
  H   H583      1.0  0.89603  0.26362  0.01265  1.0000
  C   C359      1.0  0.53794  0.47706  0.26315  1.0000
  H   H584      1.0  0.84833  0.31083  0.22007  1.0000
  H   H585      1.0  0.87845  0.44122  0.16063  1.0000
  H   H586      1.0  0.94633  0.42908  0.17470  1.0000
  H   H587      1.0  0.77409  0.23275  0.15815  1.0000
  H   H588      1.0  0.92894  0.46895  0.20165  1.0000
  H   H589      1.0  0.89056  0.30168  0.02040  1.0000
  H   H590      1.0  0.58281  0.06951  0.19069  1.0000
  C   C360      1.0  0.54593  0.20378  0.09758  1.0000
  H   H591      1.0  0.64624  0.13061  0.26571  1.0000
  C   C361      1.0  0.91363  0.41329  0.20546  1.0000
  H   H592      1.0  0.85963  0.29421  0.14858  1.0000
  H   H593      1.0  0.56385  0.20275  0.08728  1.0000
  H   H594      1.0  0.55325  0.46551  0.06933  1.0000
  H   H595      1.0  0.49595  0.27927  0.18923  1.0000
  H   H596      1.0  0.76385  0.11732  0.07387  1.0000
  H   H597      1.0  0.51699  0.06884  0.21645  1.0000
  H   H598      1.0  0.56446  0.13091  0.23412  1.0000
  C   C362      1.0  0.86409  0.19496  0.33157  1.0000
  C   C363      1.0  0.59608  0.46374  0.10011  1.0000
  H   H599      1.0  0.97788  0.48284  0.24776  1.0000
  H   H600      1.0  0.55225  0.15133  0.17851  1.0000
  H   H601      1.0  0.54905  0.45303  0.22097  1.0000
  H   H602      1.0  0.55657  0.24295  0.07630  1.0000
  C   C364      1.0  0.96399  0.29022  0.06489  1.0000
  C   C365      1.0  0.49674  0.43021  0.25084  1.0000
  C   C366      1.0  0.89702  0.45511  0.14825  1.0000
  H   H603      1.0  0.65026  0.09359  0.33514  1.0000
  N   N24       1.0  0.51955  0.20891  0.05472  1.0000
  C   C367      1.0  0.93453  0.48339  0.33120  1.0000
  C   C368      1.0  0.55107  0.07615  0.24503  1.0000
  H   H604      1.0  0.66233  0.18473  0.32834  1.0000
  H   H605      1.0  0.53099  0.06003  0.06409  1.0000
  H   H606      1.0  0.50227  0.42365  0.03235  1.0000
  H   H607      1.0  0.52398  0.10131  0.17060  1.0000
  H   H608      1.0  0.78019  0.15928  0.05453  1.0000
  C   C369      1.0  0.90790  0.48480  0.14881  1.0000
  C   C370      1.0  0.55293  0.12533  0.21382  1.0000
  C   C371      1.0  0.83043  0.28944  0.21328  1.0000
  H   H609      1.0  0.79398  0.13065  0.02770  1.0000
  H   H610      1.0  0.51288  0.05253  0.16467  1.0000
  S   S109      1.0  0.49800  0.36517  0.10305  1.0000
  H   H611      1.0  0.52429  0.22774  0.09578  1.0000
  H   H612      1.0  0.53848  0.05444  0.25424  1.0000
  C   C372      1.0  0.49173  0.43790  0.22128  1.0000
  H   H613      1.0  0.58259  0.48524  0.17312  1.0000
  H   H614      1.0  0.81322  0.29100  0.14136  1.0000
  C   C373      1.0  0.71987  0.14074  0.01551  1.0000
  H   H615      1.0  0.79346  0.20656  0.04447  1.0000
  H   H616      1.0  0.50469  0.16573  0.01069  1.0000
  Fe  Fe53      1.0  0.50235  0.38680  0.14402  1.0000
  H   H617      1.0  0.53681  0.25015  0.03461  1.0000
  C   C374      1.0  0.48694  0.45955  0.05828  1.0000
  C   C375      1.0  0.49156  0.18263  0.06242  1.0000
  Fe  Fe54      1.0  0.96937  0.36608  0.09389  1.0000
  N   N25       1.0  0.94126  0.29401  0.01868  1.0000
  N   N26       1.0  0.51428  0.46749  0.07384  1.0000
  H   H618      1.0  0.55401  0.21373  0.11835  1.0000
  H   H619      1.0  0.80536  0.24728  0.23385  1.0000
  H   H620      1.0  0.59783  0.09360  0.16139  1.0000
  H   H621      1.0  0.90621  0.39008  0.20759  1.0000
  C   C376      1.0  0.59679  0.09203  0.18445  1.0000
  H   H622      1.0  0.59984  0.45780  0.07969  1.0000
  S   S110      1.0  0.71896  0.13513  0.32902  1.0000
  H   H623      1.0  0.85650  0.25689  0.21442  1.0000
  H   H624      1.0  0.54142  0.18493  0.04685  1.0000
  C   C377      1.0  0.49996  0.24389  0.05787  1.0000
  C   C378      1.0  0.56379  0.15401  0.19842  1.0000
  H   H625      1.0  0.58726  0.16508  0.19483  1.0000
  H   H626      1.0  0.61845  0.05982  0.33190  1.0000
  C   C379      1.0  0.51558  0.23166  0.04056  1.0000
  H   H627      1.0  0.55401  0.05198  0.04451  1.0000
  H   H628      1.0  0.53836  0.39794  0.25120  1.0000
  C   C380      1.0  0.96717  0.29628  0.03336  1.0000
  N   N27       1.0  0.55630  0.10254  0.19871  1.0000
  C   C381      1.0  0.58800  0.11288  0.19685  1.0000
  H   H629      1.0  0.80364  0.21515  0.31525  1.0000
  C   C382      1.0  0.81619  0.25015  0.17758  1.0000
  H   H630      1.0  0.93178  0.31584  0.05133  1.0000
  H   H631      1.0  0.59905  0.12067  0.21727  1.0000
  C   C383      1.0  0.80175  0.19373  0.31720  1.0000
  C   C384      1.0  0.63364  0.03588  0.01518  1.0000
  H   H632      1.0  0.54277  0.47577  0.03874  1.0000
  H   H633      1.0  0.54763  0.09082  0.25863  1.0000
  C   C385      1.0  0.51283  0.03639  0.02355  1.0000
  H   H634      1.0  0.83932  0.27146  0.25055  1.0000
  C   C386      1.0  0.52402  0.18716  0.00808  1.0000
  H   H635      1.0  0.82867  0.15701  0.31405  1.0000
  H   H636      1.0  0.81488  0.23208  0.18996  1.0000
  H   H637      1.0  0.59885  0.13230  0.18359  1.0000
  H   H638      1.0  0.55855  0.11538  0.15579  1.0000
  H   H639      1.0  0.78368  0.26501  0.17635  1.0000
  C   C387      1.0  0.77461  0.19067  0.03218  1.0000
  C   C388      1.0  0.62368  0.13396  0.30200  1.0000
  H   H640      1.0  0.80967  0.27737  0.25375  1.0000
  H   H641      1.0  0.61936  0.04451  0.01350  1.0000
  H   H642      1.0  0.82139  0.24674  0.15610  1.0000
  C   C389      1.0  0.85139  0.30103  0.16648  1.0000
  H   H643      1.0  0.71381  0.09007  0.03174  1.0000
  H   H644      1.0  0.48781  0.41908  0.31069  1.0000
  C   C390      1.0  0.78531  0.24541  0.17706  1.0000
  H   H645      1.0  0.55316  0.41042  0.21765  1.0000
  N   N28       1.0  0.83976  0.27846  0.18886  1.0000
  C   C391      1.0  0.83024  0.30910  0.15346  1.0000
  H   H646      1.0  0.51199  0.45726  0.31238  1.0000
  H   H647      1.0  0.52796  0.07155  0.13314  1.0000
  H   H648      1.0  0.55959  0.16851  0.21156  1.0000
  H   H649      1.0  0.87005  0.32115  0.17460  1.0000
  H   H650      1.0  0.70847  0.14506  0.03257  1.0000
  S   S111      1.0  0.95415  0.44811  0.09881  1.0000
  H   H651      1.0  0.54014  0.05686  0.20470  1.0000
  H   H652      1.0  0.89590  0.21956  0.02432  1.0000
  C   C392      1.0  0.94584  0.42946  0.19784  1.0000
  S   S112      1.0  0.97741  0.39714  0.12911  1.0000
  H   H653      1.0  0.51630  0.39883  0.22293  1.0000
  C   C393      1.0  0.62848  0.08270  0.32581  1.0000
  C   C394      1.0  0.74775  0.10014  0.06024  1.0000
  H   H654      1.0  0.54932  0.06294  0.15490  1.0000
  H   H655      1.0  0.90070  0.41601  0.18900  1.0000
  H   H656      1.0  0.56421  0.48940  0.30167  1.0000
  H   H657      1.0  0.97394  0.28181  0.02369  1.0000
  H   H658      1.0  0.93372  0.23792  0.03010  1.0000
  H   H659      1.0  0.62969  0.08305  0.30277  1.0000
  H   H660      1.0  0.52571  0.45252  0.11107  1.0000
  C   C395      1.0  0.53406  0.46118  0.05690  1.0000
  C   C396      1.0  0.54674  0.44141  0.24079  1.0000
  H   H661      1.0  0.50909  0.24921  0.14045  1.0000
  H   H662      1.0  0.60519  0.11699  0.29004  1.0000
  H   H663      1.0  0.74978  0.16115  0.06442  1.0000
  H   H664      1.0  0.55087  0.44111  0.29604  1.0000
  C   C397      1.0  0.76194  0.16089  0.04582  1.0000
  H   H665      1.0  0.49537  0.36004  0.27256  1.0000
  C   C398      1.0  0.65152  0.13946  0.28721  1.0000
  H   H666      1.0  0.49489  0.16406  0.06560  1.0000
  C   C399      1.0  0.48749  0.23806  0.13208  1.0000
  H   H667      1.0  0.51984  0.40950  0.28669  1.0000
  H   H668      1.0  0.56616  0.11466  0.31244  1.0000
  H   H669      1.0  0.57393  0.08185  0.24543  1.0000
  C   C400      1.0  0.97303  0.38242  0.28161  1.0000
  H   H670      1.0  0.96540  0.44316  0.27900  1.0000
  H   H671      1.0  0.68147  0.09803  0.01039  1.0000
  H   H672      1.0  0.49322  0.08617  0.25866  1.0000
  C   C401      1.0  0.52847  0.43296  0.28858  1.0000
  H   H673      1.0  0.58864  0.08175  0.32543  1.0000
  N   N29       1.0  0.74307  0.13572  0.02727  1.0000
  H   H674      1.0  0.78177  0.19089  0.01055  1.0000
  H   H675      1.0  0.95539  0.41608  0.20391  1.0000
  C   C402      1.0  0.93660  0.31791  0.02871  1.0000
  H   H676      1.0  0.53764  0.42870  0.03321  1.0000
  C   C403      1.0  0.51073  0.43615  0.31211  1.0000
  H   H677      1.0  0.81671  0.19271  0.30210  1.0000
  C   C404      1.0  0.91464  0.26584  0.02486  1.0000
  H   H678      1.0  0.77933  0.17776  0.31135  1.0000
  H   H679      1.0  0.54829  0.07982  0.03296  1.0000
  H   H680      1.0  0.49428  0.06563  0.05900  1.0000
  H   H681      1.0  0.91213  0.33956  0.02183  1.0000
  C   C405      1.0  0.97605  0.38115  0.23071  1.0000
  H   H682      1.0  0.94067  0.45893  0.24648  1.0000
  C   C406      1.0  0.79095  0.14065  0.00895  1.0000
  C   C407      1.0  0.91184  0.31986  0.01452  1.0000
  C   C408      1.0  0.95182  0.47743  0.19581  1.0000
  H   H683      1.0  0.94924  0.41713  0.25202  1.0000
  H   H684      1.0  0.49148  0.47704  0.12131  1.0000
  C   C409      1.0  0.96627  0.43952  0.25635  1.0000
  H   H685      1.0  0.95166  0.47580  0.17285  1.0000
  H   H686      1.0  0.51427  0.25905  0.07412  1.0000
  C   C410      1.0  0.48750  0.45486  0.12095  1.0000
  C   C411      1.0  0.56810  0.11547  0.33541  1.0000
  H   H687      1.0  0.49246  0.45081  0.14235  1.0000
  N   N30       1.0  0.96332  0.45976  0.20865  1.0000
  H   H688      1.0  0.51940  0.43444  0.33255  1.0000
  H   H689      1.0  0.92209  0.48485  0.31344  1.0000
  H   H690      1.0  0.49416  0.10002  0.02930  1.0000
  C   C412      1.0  0.49141  0.08050  0.01856  1.0000
  C   C413      1.0  0.96155  0.46127  0.23988  1.0000
  C   C414      1.0  0.48527  0.28448  0.20621  1.0000
  H   H691      1.0  0.98468  0.29333  0.07315  1.0000
  H   H692      1.0  0.48615  0.27366  0.22535  1.0000
  C   C415      1.0  0.83667  0.16532  0.33542  1.0000
  H   H693      1.0  0.88330  0.19244  0.33357  1.0000
  S   S113      1.0  0.51739  0.07156  0.40272  1.0000
  Fe  Fe55      1.0  0.67969  0.13859  0.42170  1.0000
  S   S114      1.0  0.66784  0.09815  0.39831  1.0000
  S   S115      1.0  0.64875  0.15444  0.43044  1.0000
  Fe  Fe56      1.0  0.74235  0.15404  0.42883  1.0000
  S   S116      1.0  0.73450  0.11378  0.40672  1.0000
  S   S117      1.0  0.78623  0.18559  0.44703  1.0000
  Fe  Fe57      1.0  0.70945  0.12402  0.37532  1.0000
  Fe  Fe58      1.0  0.69352  0.09157  0.43206  1.0000
  S   S118      1.0  0.67189  0.04756  0.45329  1.0000
  S   S119      1.0  0.71946  0.16522  0.39685  1.0000
  S   S120      1.0  0.70331  0.13111  0.45616  1.0000
  H   H694      1.0  0.60813  0.02569  0.56275  1.0000
  S   S121      1.0  0.53435  0.39695  0.44809  1.0000
  Fe  Fe59      1.0  0.92219  0.33916  0.39514  1.0000
  H   H695      1.0  0.59259  0.39229  0.41711  1.0000
  S   S122      1.0  0.88205  0.29622  0.38490  1.0000
  Fe  Fe60      1.0  0.93329  0.40064  0.39547  1.0000
  S   S123      1.0  0.90786  0.42312  0.38874  1.0000
  Fe  Fe61      1.0  0.96844  0.38469  0.35653  1.0000
  H   H696      1.0  0.87309  0.31363  0.44804  1.0000
  S   S124      1.0  0.92175  0.36806  0.36185  1.0000
  S   S125      1.0  0.93105  0.37127  0.42977  1.0000
  C   C416      1.0  0.90823  0.44755  0.41315  1.0000
  C   C417      1.0  0.92294  0.45294  0.43847  1.0000
  C   C418      1.0  0.85095  0.33673  0.41131  1.0000
  C   C419      1.0  0.89385  0.46242  0.40652  1.0000
  H   H697      1.0  0.93397  0.44141  0.44373  1.0000
  C   C420      1.0  0.78493  0.13785  0.34488  1.0000
  H   H698      1.0  0.88224  0.45813  0.38705  1.0000
  H   H699      1.0  0.83542  0.29178  0.45656  1.0000
  C   C421      1.0  0.57373  0.45429  0.44286  1.0000
  C   C422      1.0  0.55309  0.42913  0.42942  1.0000
  C   C423      1.0  0.54829  0.42962  0.40091  1.0000
  H   H700      1.0  0.63304  0.47145  0.44993  1.0000
  H   H701      1.0  0.57756  0.45396  0.46491  1.0000
  H   H702      1.0  0.53273  0.41026  0.39027  1.0000
  C   C424      1.0  0.81178  0.21802  0.43112  1.0000
  C   C425      1.0  0.80574  0.22738  0.40628  1.0000
  C   C426      1.0  0.82739  0.25184  0.39287  1.0000
  C   C427      1.0  0.85514  0.26750  0.40436  1.0000
  C   C428      1.0  0.86093  0.25873  0.42970  1.0000
  C   C429      1.0  0.83929  0.23412  0.44304  1.0000
  H   H703      1.0  0.78453  0.21548  0.39717  1.0000
  H   H704      1.0  0.82272  0.25847  0.37326  1.0000
  H   H705      1.0  0.88229  0.27035  0.43860  1.0000
  H   H706      1.0  0.84413  0.22703  0.46229  1.0000
  C   C430      1.0  0.67099  0.03893  0.48933  1.0000
  C   C431      1.0  0.68782  0.05940  0.50945  1.0000
  C   C432      1.0  0.68544  0.05170  0.53785  1.0000
  C   C433      1.0  0.66593  0.02361  0.54667  1.0000
  H   H707      1.0  0.84463  0.31381  0.41116  1.0000
  C   C434      1.0  0.65201  0.01068  0.49809  1.0000
  H   H708      1.0  0.70271  0.08115  0.50317  1.0000
  H   H709      1.0  0.69866  0.06771  0.55315  1.0000
  H   H710      1.0  0.81614  0.33104  0.38273  1.0000
  H   H711      1.0  0.57580  0.01563  0.48900  1.0000
  C   C435      1.0  0.55351  0.09478  0.41145  1.0000
  C   C436      1.0  0.57285  0.08463  0.40939  1.0000
  C   C437      1.0  0.60199  0.10265  0.41574  1.0000
  C   C438      1.0  0.61201  0.13097  0.42408  1.0000
  C   C439      1.0  0.59257  0.14104  0.42645  1.0000
  C   C440      1.0  0.56333  0.12299  0.42008  1.0000
  H   H712      1.0  0.56527  0.06280  0.40269  1.0000
  H   H713      1.0  0.61662  0.09456  0.41415  1.0000
  H   H714      1.0  0.60020  0.16297  0.43287  1.0000
  H   H715      1.0  0.54848  0.13095  0.42168  1.0000
  H   H716      1.0  0.86490  0.18632  0.38779  1.0000
  H   H717      1.0  0.87740  0.38815  0.43362  1.0000
  H   H718      1.0  0.85978  0.41463  0.45949  1.0000
  H   H719      1.0  0.71482  0.47689  0.39109  1.0000
  C   C441      1.0  0.56445  0.45491  0.38578  1.0000
  C   C442      1.0  0.84600  0.18726  0.39559  1.0000
  H   H720      1.0  0.56484  0.01955  0.65858  1.0000
  H   H721      1.0  0.61257  0.02628  0.48513  1.0000
  C   C443      1.0  0.89531  0.48367  0.42445  1.0000
  H   H722      1.0  0.58393  0.07743  0.52607  1.0000
  Fe  Fe62      1.0  0.48669  0.08866  0.40352  1.0000
  H   H723      1.0  0.96283  0.46936  0.36863  1.0000
  H   H724      1.0  0.86713  0.21176  0.34664  1.0000
  H   H725      1.0  0.62377  0.09048  0.46733  1.0000
  H   H726      1.0  0.60528  0.08904  0.35879  1.0000
  C   C444      1.0  0.56687  0.07234  0.48443  1.0000
  H   H727      1.0  0.76671  0.13743  0.35617  1.0000
  H   H728      1.0  0.60344  0.41407  0.44748  1.0000
  H   H729      1.0  0.77010  0.29085  0.43021  1.0000
  C   C445      1.0  0.48867  0.39787  0.50539  1.0000
  C   C446      1.0  0.66114  0.48022  0.36846  1.0000
  N   N31       1.0  0.65463  0.46060  0.41839  1.0000
  C   C447      1.0  0.62568  0.43635  0.40909  1.0000
  H   H730      1.0  0.62643  0.40156  0.43281  1.0000
  C   C448      1.0  0.85372  0.37718  0.43656  1.0000
  H   H731      1.0  0.59931  0.13127  0.36838  1.0000
  C   C449      1.0  0.59696  0.03396  0.48276  1.0000
  H   H732      1.0  0.60999  0.44392  0.40685  1.0000
  C   C450      1.0  0.67630  0.45064  0.41627  1.0000
  H   H733      1.0  0.86189  0.30734  0.48338  1.0000
  C   C451      1.0  0.90996  0.48913  0.44976  1.0000
  C   C452      1.0  0.61166  0.40972  0.42797  1.0000
  H   H734      1.0  0.65167  0.11429  0.52427  1.0000
  H   H735      1.0  0.55607  0.04485  0.64282  1.0000
  H   H736      1.0  0.80075  0.28854  0.42288  1.0000
  N   N32       1.0  0.84149  0.34514  0.43749  1.0000
  H   H737      1.0  0.55595  0.08331  0.49358  1.0000
  C   C453      1.0  0.79215  0.29789  0.43789  1.0000
  H   H738      1.0  0.64825  0.08319  0.48445  1.0000
  H   H739      1.0  0.67460  0.43719  0.43451  1.0000
  H   H740      1.0  0.57625  0.02366  0.54911  1.0000
  H   H741      1.0  0.84877  0.20875  0.39202  1.0000
  C   C454      1.0  0.70825  0.47407  0.41327  1.0000
  H   H742      1.0  0.84686  0.33305  0.36643  1.0000
  H   H743      1.0  0.68384  0.18595  0.35740  1.0000
  C   C455      1.0  0.98373  0.48828  0.36274  1.0000
  H   H744      1.0  0.85740  0.38716  0.48173  1.0000
  H   H745      1.0  0.80301  0.33645  0.45953  1.0000
  C   C456      1.0  0.80929  0.33094  0.43942  1.0000
  H   H746      1.0  0.79027  0.18760  0.36041  1.0000
  H   H747      1.0  0.82704  0.21018  0.35437  1.0000
  H   H748      1.0  0.61734  0.05152  0.44239  1.0000
  H   H749      1.0  0.84507  0.38348  0.41858  1.0000
  H   H750      1.0  0.50928  0.41112  0.51629  1.0000
  H   H751      1.0  0.92091  0.47838  0.34991  1.0000
  H   H752      1.0  0.63766  0.05611  0.52497  1.0000
  C   C457      1.0  0.62949  0.08626  0.48823  1.0000
  C   C458      1.0  0.59729  0.02621  0.54320  1.0000
  H   H753      1.0  0.84564  0.18453  0.41853  1.0000
  Fe  Fe63      1.0  0.97826  0.38807  0.42051  1.0000
  H   H754      1.0  0.56158  0.04200  0.51544  1.0000
  S   S126      1.0  0.66298  0.01550  0.58299  1.0000
  C   C459      1.0  0.61668  0.05493  0.52833  1.0000
  C   C460      1.0  0.85383  0.33867  0.46297  1.0000
  H   H755      1.0  0.84151  0.33767  0.48194  1.0000
  H   H756      1.0  0.52234  0.46796  0.47037  1.0000
  H   H757      1.0  0.59412  0.00750  0.53069  1.0000
  H   H758      1.0  0.81836  0.14307  0.38833  1.0000
  C   C461      1.0  0.50035  0.00279  0.62637  1.0000
  S   S127      1.0  0.98038  0.41963  0.38830  1.0000
  S   S128      1.0  0.96922  0.35393  0.38774  1.0000
  H   H759      1.0  0.49670  0.41887  0.46565  1.0000
  C   C462      1.0  0.51321  0.46697  0.49137  1.0000
  H   H760      1.0  0.67148  0.43648  0.39770  1.0000
  H   H761      1.0  0.76336  0.09157  0.34022  1.0000
  H   H762      1.0  0.55085  0.05376  0.47199  1.0000
  H   H763      1.0  0.64573  0.13568  0.37050  1.0000
  C   C463      1.0  0.57960  0.06276  0.50803  1.0000
  H   H764      1.0  0.63871  0.46791  0.36060  1.0000
  C   C464      1.0  0.85583  0.31113  0.46237  1.0000
  C   C465      1.0  0.64033  0.11428  0.50497  1.0000
  C   C466      1.0  0.58542  0.47991  0.39899  1.0000
  H   H765      1.0  0.64701  0.44976  0.46221  1.0000
  C   C467      1.0  0.64922  0.00313  0.52652  1.0000
  H   H766      1.0  0.87627  0.35624  0.46704  1.0000
  C   C468      1.0  0.58980  0.47975  0.42769  1.0000
  H   H767      1.0  0.62104  0.07210  0.54375  1.0000
  H   H768      1.0  0.58644  0.01679  0.44070  1.0000
  H   H769      1.0  0.79979  0.16187  0.39560  1.0000
  H   H770      1.0  0.52120  0.01429  0.61528  1.0000
  H   H771      1.0  0.49378  0.01906  0.63066  1.0000
  H   H772      1.0  0.80036  0.33953  0.42368  1.0000
  H   H773      1.0  0.52689  0.45925  0.53276  1.0000
  N   N33       1.0  0.81279  0.16447  0.35260  1.0000
  H   H774      1.0  0.58178  0.04702  0.44570  1.0000
  H   H775      1.0  0.54550  0.45533  0.50322  1.0000
  H   H776      1.0  0.62284  0.11879  0.50982  1.0000
  H   H777      1.0  0.50740  0.24047  0.43522  1.0000
  H   H778      1.0  0.62697  0.42839  0.38804  1.0000
  H   H779      1.0  0.84348  0.15059  0.34435  1.0000
  H   H780      1.0  0.64939  0.18187  0.36374  1.0000
  H   H781      1.0  0.65619  0.13247  0.49219  1.0000
  H   H782      1.0  0.56115  0.45493  0.36359  1.0000
  H   H783      1.0  0.87474  0.34829  0.41008  1.0000
  C   C469      1.0  0.53551  0.46742  0.51186  1.0000
  H   H784      1.0  0.72185  0.46680  0.42386  1.0000
  C   C470      1.0  0.59955  0.13343  0.34542  1.0000
  C   C471      1.0  0.84851  0.39101  0.46245  1.0000
  H   H785      1.0  0.58318  0.08854  0.47060  1.0000
  C   C472      1.0  0.59554  0.03800  0.45118  1.0000
  H   H786      1.0  0.82546  0.38393  0.46520  1.0000
  C   C473      1.0  0.80842  0.18965  0.34753  1.0000
  N   N34       1.0  0.60533  0.05971  0.50129  1.0000
  C   C474      1.0  0.55446  0.03267  0.66190  1.0000
  H   H787      1.0  0.84938  0.36519  0.37917  1.0000
  C   C475      1.0  0.65163  0.46788  0.44809  1.0000
  H   H788      1.0  0.79060  0.28836  0.45873  1.0000
  C   C476      1.0  0.83988  0.34202  0.38362  1.0000
  C   C477      1.0  0.66174  0.48593  0.40000  1.0000
  H   H789      1.0  0.78122  0.10358  0.37272  1.0000
  H   H790      1.0  0.80155  0.10767  0.34116  1.0000
  H   H791      1.0  0.63906  0.99455  0.48278  1.0000
  C   C478      1.0  0.81784  0.16289  0.38328  1.0000
  H   H792      1.0  0.55759  0.09344  0.34406  1.0000
  C   C479      1.0  0.66150  0.17576  0.34923  1.0000
  H   H793      1.0  0.67289  0.46887  0.36306  1.0000
  H   H794      1.0  0.55568  0.12535  0.34352  1.0000
  H   H795      1.0  0.60588  0.15622  0.34171  1.0000
  S   S129      1.0  0.48692  0.12240  0.37592  1.0000
  H   H796      1.0  0.49245  0.02997  0.45087  1.0000
  S   S130      1.0  0.48654  0.18030  0.42782  1.0000
  Fe  Fe64      1.0  0.49299  0.36482  0.42677  1.0000
  H   H797      1.0  0.93460  0.47751  0.47667  1.0000
  H   H798      1.0  0.49025  0.38038  0.49478  1.0000
  C   C480      1.0  0.92337  0.47341  0.45701  1.0000
  C   C481      1.0  0.78322  0.10879  0.35023  1.0000
  H   H799      1.0  0.49290  0.46441  0.43666  1.0000
  C   C482      1.0  0.64870  0.14299  0.34848  1.0000
  H   H800      1.0  0.66579  0.13912  0.34066  1.0000
  H   H801      1.0  0.49118  0.48355  0.53494  1.0000
  N   N35       1.0  0.50334  0.98999  0.65323  1.0000
  H   H802      1.0  0.51371  0.48782  0.49311  1.0000
  S   S131      1.0  0.48544  0.33202  0.39381  1.0000
  C   C483      1.0  0.60953  0.09468  0.33636  1.0000
  H   H803      1.0  0.74804  0.10921  0.99622  1.0000
  H   H804      1.0  0.61794  0.01088  0.97716  1.0000
  H   H805      1.0  0.95981  0.33852  0.97000  1.0000
  H   H806      1.0  0.56723  0.04875  0.67822  1.0000
  H   H807      1.0  0.52463  0.00701  0.69312  1.0000
  H   H808      1.0  0.70600  0.10857  0.98133  1.0000
  C   C484      1.0  0.69673  0.11627  0.99745  1.0000
  H   H809      1.0  0.51450  0.02917  0.67548  1.0000
  H   H810      1.0  0.75960  0.14449  0.98499  1.0000
  H   H811      1.0  0.68375  0.12412  0.98659  1.0000
  C   C485      1.0  0.63279  0.01678  0.99444  1.0000
  H   H812      1.0  0.92644  0.28995  0.97618  1.0000
  H   H813      1.0  0.91930  0.23668  0.99570  1.0000
  H   H814      1.0  0.98008  0.32299  0.95827  1.0000
  H   H815      1.0  0.53981  0.18357  0.99647  1.0000
  C   C486      1.0  0.65118  0.00546  0.99603  1.0000
  H   H816      1.0  0.95340  0.28048  0.98104  1.0000
  C   C487      1.0  0.52320  0.01447  0.67203  1.0000
  H   H817      1.0  0.79897  0.13370  0.99097  1.0000
  H   H818      1.0  0.51921  0.20104  0.99487  1.0000
  C   C488      1.0  0.94666  0.29602  0.98775  1.0000
  C   C489      1.0  0.96971  0.32581  0.97705  1.0000
  H   H819      1.0  0.91383  0.32153  0.99161  1.0000
  H   H820      1.0  0.72925  0.16007  0.00206  1.0000
  H   H821      1.0  0.51883  0.04525  0.00213  1.0000
  Fe  Fe65      1.0  0.67130  0.62020  0.10477  1.0000
  S   S132      1.0  0.69499  0.60042  0.08481  1.0000
  S   S133      1.0  0.65742  0.64854  0.08146  1.0000
  Fe  Fe66      1.0  0.67086  0.59382  0.16281  1.0000
  S   S134      1.0  0.69374  0.57180  0.14585  1.0000
  S   S135      1.0  0.65448  0.58230  0.20750  1.0000
  Fe  Fe67      1.0  0.72206  0.61316  0.12382  1.0000
  S   S136      1.0  0.77095  0.63766  0.12660  1.0000
  Fe  Fe68      1.0  0.66455  0.56108  0.10896  1.0000
  S   S137      1.0  0.64167  0.51720  0.08920  1.0000
  S   S138      1.0  0.70057  0.63604  0.14260  1.0000
  S   S139      1.0  0.63935  0.58002  0.12693  1.0000
  H   H822      1.0  0.73436  0.62827  0.19065  1.0000
  H   H823      1.0  0.59111  0.58894  0.03064  1.0000
  Fe  Fe69      1.0  0.88857  0.58591  0.14217  1.0000
  S   S140      1.0  0.93199  0.62527  0.14953  1.0000
  S   S141      1.0  0.84798  0.57860  0.11958  1.0000
  Fe  Fe70      1.0  0.90921  0.54603  0.16387  1.0000
  H   H824      1.0  0.63929  0.86055  0.01345  1.0000
  Fe  Fe71      1.0  0.93137  0.60406  0.19063  1.0000
  H   H825      1.0  0.86705  0.61190  0.06931  1.0000
  Fe  Fe72      1.0  0.95100  0.59974  0.13089  1.0000
  S   S142      1.0  0.88680  0.56691  0.18411  1.0000
  S   S143      1.0  0.90764  0.56174  0.12146  1.0000
  C   C490      1.0  0.84799  0.58996  0.03166  1.0000
  H   H826      1.0  0.54719  0.50060  0.12231  1.0000
  H   H827      1.0  0.94026  0.52568  0.13300  1.0000
  C   C491      1.0  0.94562  0.58971  0.31767  1.0000
  C   C492      1.0  0.95318  0.61851  0.31525  1.0000
  C   C493      1.0  0.89054  0.57545  0.05073  1.0000
  C   C494      1.0  0.94416  0.61259  0.26489  1.0000
  C   C495      1.0  0.93694  0.58387  0.26729  1.0000
  C   C496      1.0  0.93787  0.57258  0.29349  1.0000
  H   H828      1.0  0.66664  0.62308  0.03093  1.0000
  H   H829      1.0  0.88136  0.63342  0.03937  1.0000
  C   C497      1.0  0.79163  0.62036  0.12611  1.0000
  C   C498      1.0  0.81999  0.63495  0.13630  1.0000
  C   C499      1.0  0.83726  0.62207  0.13556  1.0000
  C   C500      1.0  0.82649  0.59474  0.12392  1.0000
  C   C501      1.0  0.79811  0.58019  0.11379  1.0000
  C   C502      1.0  0.78061  0.59272  0.11524  1.0000
  H   H830      1.0  0.82873  0.65640  0.14466  1.0000
  H   H831      1.0  0.85915  0.63360  0.14319  1.0000
  H   H832      1.0  0.78963  0.55908  0.10464  1.0000
  H   H833      1.0  0.75884  0.58126  0.10727  1.0000
  C   C503      1.0  0.67138  0.59565  0.24037  1.0000
  C   C504      1.0  0.69590  0.62268  0.24360  1.0000
  C   C505      1.0  0.70776  0.63271  0.27033  1.0000
  C   C506      1.0  0.69527  0.61589  0.29413  1.0000
  C   C507      1.0  0.67086  0.58883  0.29088  1.0000
  C   C508      1.0  0.65896  0.57888  0.26420  1.0000
  H   H834      1.0  0.70522  0.63613  0.22561  1.0000
  H   H835      1.0  0.72652  0.65375  0.27259  1.0000
  H   H836      1.0  0.66092  0.57567  0.30896  1.0000
  H   H837      1.0  0.63984  0.55807  0.26202  1.0000
  C   C509      1.0  0.96790  0.50957  0.20351  1.0000
  H   H838      1.0  0.66043  0.91170  0.02304  1.0000
  H   H839      1.0  0.56475  0.53356  0.10377  1.0000
  H   H840      1.0  0.57491  0.86817  0.00451  1.0000
  C   C510      1.0  0.64321  0.67087  0.03652  1.0000
  C   C511      1.0  0.65270  0.65202  0.04515  1.0000
  H   H841      1.0  0.74511  0.70104  0.12747  1.0000
  H   H842      1.0  0.63788  0.68204  0.05203  1.0000
  C   C512      1.0  0.79692  0.61546  0.21546  1.0000
  C   C513      1.0  0.61421  0.49156  0.11031  1.0000
  S   S144      1.0  0.95383  0.58187  0.17274  1.0000
  H   H843      1.0  0.71790  0.65022  0.04080  1.0000
  C   C514      1.0  0.87493  0.61184  0.04788  1.0000
  C   C515      1.0  0.78100  0.71419  0.05182  1.0000
  H   H844      1.0  0.62346  0.52037  0.14498  1.0000
  C   C516      1.0  0.75423  0.57335  0.23662  1.0000
  H   H845      1.0  0.76727  0.56496  0.24643  1.0000
  H   H846      1.0  0.94347  0.66654  0.06192  1.0000
  H   H847      1.0  0.93929  0.66099  0.09835  1.0000
  H   H848      1.0  0.93214  0.55033  0.29504  1.0000
  H   H849      1.0  0.80602  0.62690  0.19550  1.0000
  C   C517      1.0  0.92780  0.65349  0.07814  1.0000
  H   H850      1.0  0.72550  0.58104  0.19874  1.0000
  C   C518      1.0  0.82008  0.61047  0.22899  1.0000
  C   C519      1.0  0.91721  0.62115  0.07480  1.0000
  H   H851      1.0  0.53604  0.56533  0.01980  1.0000
  H   H852      1.0  0.92141  0.64959  0.32874  1.0000
  H   H853      1.0  0.60371  0.91310  0.02388  1.0000
  C   C520      1.0  0.95245  0.62984  0.28901  1.0000
  H   H854      1.0  0.80957  0.72641  0.08838  1.0000
  H   H855      1.0  0.75549  0.64258  0.06718  1.0000
  H   H856      1.0  0.81303  0.59932  0.24919  1.0000
  H   H857      1.0  0.86298  0.63227  0.32213  1.0000
  H   H858      1.0  0.73761  0.72596  0.31968  1.0000
  H   H859      1.0  0.83575  0.56195  0.29178  1.0000
  H   H860      1.0  0.50223  0.49653  0.02997  1.0000
  H   H861      1.0  0.60981  0.88807  0.04425  1.0000
  H   H862      1.0  0.72876  0.71326  0.10295  1.0000
  C   C521      1.0  0.74626  0.70819  0.10561  1.0000
  H   H863      1.0  0.83147  0.59863  0.31823  1.0000
  H   H864      1.0  0.97576  0.50430  0.05470  1.0000
  C   C522      1.0  0.74842  0.59034  0.25893  1.0000
  C   C523      1.0  0.72247  0.70274  0.31768  1.0000
  H   H865      1.0  0.73223  0.59586  0.25169  1.0000
  H   H866      1.0  0.89317  0.61716  0.29870  1.0000
  N   N36       1.0  0.74970  0.69218  0.05578  1.0000
  C   C524      1.0  0.73163  0.70477  0.04596  1.0000
  C   C525      1.0  0.74198  0.68378  0.08578  1.0000
  H   H867      1.0  0.93059  0.57034  0.24894  1.0000
  H   H868      1.0  0.79627  0.68961  0.07806  1.0000
  H   H869      1.0  0.92567  0.64367  0.02237  1.0000
  H   H870      1.0  0.70872  0.69046  0.05142  1.0000
  C   C526      1.0  0.52976  0.49923  0.08012  1.0000
  H   H871      1.0  0.56844  0.64187  0.01605  1.0000
  H   H872      1.0  0.71903  0.66672  0.08735  1.0000
  C   C527      1.0  0.93169  0.50274  0.13256  1.0000
  C   C528      1.0  0.77307  0.56922  0.19171  1.0000
  C   C529      1.0  0.74592  0.54265  0.18012  1.0000
  H   H873      1.0  0.90467  0.54402  0.05168  1.0000
  C   C530      1.0  0.75721  0.64910  0.04515  1.0000
  C   C531      1.0  0.60945  0.49908  0.13681  1.0000
  H   H874      1.0  0.73910  0.57666  0.27758  1.0000
  H   H875      1.0  0.87868  0.56659  0.07055  1.0000
  C   C532      1.0  0.55463  0.50994  0.10137  1.0000
  H   H876      1.0  0.51472  0.50633  0.08750  1.0000
  C   C533      1.0  0.64232  0.91162  0.01165  1.0000
  S   S145      1.0  0.94235  0.62762  0.23254  1.0000
  H   H877      1.0  0.89358  0.58611  0.30796  1.0000
  H   H878      1.0  0.75140  0.59677  0.17196  1.0000
  H   H879      1.0  0.78005  0.66147  0.03883  1.0000
  N   N37       1.0  0.76809  0.58910  0.21014  1.0000
  C   C534      1.0  0.85021  0.61102  0.33228  1.0000
  H   H880      1.0  0.73271  0.52775  0.19678  1.0000
  H   H881      1.0  0.63121  0.92575  0.04948  1.0000
  H   H882      1.0  0.77241  0.64407  0.19087  1.0000
  C   C535      1.0  0.73255  0.71106  0.01456  1.0000
  H   H883      1.0  0.75388  0.67394  0.09487  1.0000
  H   H884      1.0  0.85273  0.58634  0.01016  1.0000
  C   C536      1.0  0.64091  0.67577  0.00799  1.0000
  C   C537      1.0  0.65962  0.63788  0.02476  1.0000
  H   H885      1.0  0.98172  0.52304  0.00745  1.0000
  H   H886      1.0  0.78730  0.71439  0.02972  1.0000
  C   C538      1.0  0.80304  0.71138  0.07041  1.0000
  N   N38       1.0  0.90034  0.60700  0.04865  1.0000
  H   H887      1.0  0.93648  0.61882  0.07667  1.0000
  H   H888      1.0  0.90984  0.65801  0.07865  1.0000
  H   H889      1.0  0.95804  0.52030  0.19185  1.0000
  H   H890      1.0  0.87481  0.56262  0.03431  1.0000
  H   H891      1.0  0.59523  0.61804  0.01110  1.0000
  H   H892      1.0  0.83268  0.59809  0.03037  1.0000
  H   H893      1.0  0.76733  0.72786  0.10285  1.0000
  H   H894      1.0  0.78647  0.58108  0.17349  1.0000
  C   C539      1.0  0.91439  0.56749  0.04859  1.0000
  H   H895      1.0  0.82299  0.71823  0.05831  1.0000
  H   H896      1.0  0.75273  0.53058  0.16630  1.0000
  H   H897      1.0  0.96580  0.51307  0.22591  1.0000
  H   H898      1.0  0.93129  0.57795  0.06468  1.0000
  C   C540      1.0  0.91969  0.62078  0.02405  1.0000
  H   H899      1.0  0.57186  0.60690  0.04095  1.0000
  H   H900      1.0  0.83666  0.56925  0.04295  1.0000
  S   S146      1.0  0.71048  0.62967  0.32749  1.0000
  H   H901      1.0  0.73245  0.54835  0.16719  1.0000
  H   H902      1.0  0.57261  0.51804  0.27820  1.0000
  H   H903      1.0  0.53923  0.51180  0.06083  1.0000
  H   H904      1.0  0.94079  0.62187  0.02682  1.0000
  C   C541      1.0  0.87910  0.59519  0.30684  1.0000
  H   H905      1.0  0.73799  0.72540  0.05680  1.0000
  H   H906      1.0  0.78453  0.73608  0.05604  1.0000
  C   C542      1.0  0.74134  0.66557  0.03871  1.0000
  H   H907      1.0  0.95986  0.63213  0.33353  1.0000
  H   H908      1.0  0.75478  0.72342  0.00658  1.0000
  H   H909      1.0  0.86463  0.56829  0.26962  1.0000
  H   H910      1.0  0.90408  0.61042  0.09348  1.0000
  C   C543      1.0  0.75239  0.62707  0.20057  1.0000
  C   C544      1.0  0.85657  0.57904  0.28379  1.0000
  H   H911      1.0  0.95840  0.65216  0.28735  1.0000
  S   S147      1.0  0.89334  0.49935  0.17190  1.0000
  C   C545      1.0  0.74848  0.59709  0.19484  1.0000
  C   C546      1.0  0.94522  0.49110  0.11659  1.0000
  H   H912      1.0  0.73299  0.55415  0.23214  1.0000
  H   H913      1.0  0.79500  0.63113  0.22898  1.0000
  H   H914      1.0  0.75248  0.63198  0.22290  1.0000
  H   H915      1.0  0.85286  0.59426  0.27143  1.0000
  H   H916      1.0  0.85944  0.53885  0.32149  1.0000
  H   H917      1.0  0.83948  0.63161  0.23319  1.0000
  H   H918      1.0  0.96416  0.50519  0.10477  1.0000
  H   H919      1.0  0.92455  0.57244  0.02777  1.0000
  H   H920      1.0  0.60398  0.85378  0.01569  1.0000
  H   H921      1.0  0.95695  0.52911  0.33467  1.0000
  H   H922      1.0  0.71206  0.69885  0.29689  1.0000
  H   H923      1.0  0.76821  0.60985  0.26588  1.0000
  H   H924      1.0  0.78532  0.56069  0.20291  1.0000
  C   C547      1.0  0.62008  0.90889  0.03333  1.0000
  H   H925      1.0  0.82709  0.59881  0.21487  1.0000
  H   H926      1.0  0.74729  0.62897  0.03268  1.0000
  H   H927      1.0  0.74516  0.67067  0.01620  1.0000
  C   C548      1.0  0.55359  0.57798  0.00484  1.0000
  H   H928      1.0  0.51753  0.59580  0.01398  1.0000
  H   H929      1.0  0.97498  0.51599  0.31443  1.0000
  H   H930      1.0  0.57173  0.50568  0.09427  1.0000
  H   H931      1.0  0.73484  0.69130  0.31770  1.0000
  C   C549      1.0  0.57916  0.59940  0.02283  1.0000
  C   C550      1.0  0.56637  0.49504  0.27928  1.0000
  H   H932      1.0  0.58428  0.49318  0.27017  1.0000
  H   H933      1.0  0.53797  0.64667  0.01402  1.0000
  H   H934      1.0  0.72200  0.72401  0.01086  1.0000
  C   C551      1.0  0.96293  0.51211  0.33421  1.0000
  H   H935      1.0  0.68345  0.69807  0.33532  1.0000
  H   H936      1.0  0.98191  0.65258  0.06319  1.0000
  N   N39       1.0  0.86755  0.59623  0.33508  1.0000
  H   H937      1.0  0.65099  0.93358  0.00310  1.0000
  C   C552      1.0  0.55030  0.63841  0.00261  1.0000
  Fe  Fe73      1.0  0.61466  0.91532  0.63076  1.0000
  S   S148      1.0  0.64098  0.96037  0.64781  1.0000
  S   S149      1.0  0.62322  0.88029  0.64632  1.0000
  Fe  Fe74      1.0  0.56934  0.92782  0.60730  1.0000
  H   H938      1.0  0.65167  0.68208  0.39205  1.0000
  S   S150      1.0  0.52882  0.91246  0.58209  1.0000
  H   H939      1.0  0.62063  0.82883  0.66535  1.0000
  C   C553      1.0  0.50842  0.83603  0.59866  1.0000
  S   S151      1.0  0.60857  0.92985  0.58852  1.0000
  S   S152      1.0  0.57321  0.90949  0.64761  1.0000
  H   H940      1.0  0.57701  0.62967  0.51277  1.0000
  H   H941      1.0  0.73107  0.77017  0.37785  1.0000
  Fe  Fe75      1.0  0.61615  0.67999  0.60068  1.0000
  S   S153      1.0  0.58223  0.68836  0.58352  1.0000
  S   S154      1.0  0.63361  0.65338  0.57929  1.0000
  Fe  Fe76      1.0  0.60489  0.73092  0.60592  1.0000
  S   S155      1.0  0.60992  0.77009  0.58288  1.0000
  Fe  Fe77      1.0  0.55948  0.67111  0.62400  1.0000
  S   S156      1.0  0.51146  0.64123  0.62208  1.0000
  S   S157      1.0  0.64096  0.72405  0.62029  1.0000
  S   S158      1.0  0.59193  0.66032  0.64051  1.0000
  Fe  Fe78      1.0  0.70841  0.57540  0.41445  1.0000
  S   S159      1.0  0.71724  0.62059  0.40832  1.0000
  S   S160      1.0  0.73748  0.55716  0.42562  1.0000
  Fe  Fe79      1.0  0.64638  0.54942  0.39445  1.0000
  S   S161      1.0  0.65072  0.59237  0.38672  1.0000
  S   S162      1.0  0.60649  0.51021  0.37844  1.0000
  Fe  Fe80      1.0  0.69320  0.60419  0.36763  1.0000
  Fe  Fe81      1.0  0.67374  0.60538  0.42823  1.0000
  S   S163      1.0  0.66306  0.63538  0.45361  1.0000
  S   S164      1.0  0.68738  0.56045  0.37259  1.0000
  S   S165      1.0  0.66635  0.56094  0.43709  1.0000
  Fe  Fe82      1.0  0.90461  0.60137  0.43402  1.0000
  S   S166      1.0  0.94807  0.62838  0.41382  1.0000
  S   S167      1.0  0.87456  0.61992  0.43209  1.0000
  Fe  Fe83      1.0  0.91857  0.55502  0.44955  1.0000
  S   S168      1.0  0.91166  0.51558  0.47234  1.0000
  H   H942      1.0  0.94529  0.56577  0.51749  1.0000
  Fe  Fe84      1.0  0.93965  0.58688  0.39420  1.0000
  S   S169      1.0  0.92353  0.59350  0.47284  1.0000
  S   S170      1.0  0.89568  0.56040  0.41286  1.0000
  H   H943      1.0  0.88515  0.60970  0.37671  1.0000
  C   C554      1.0  0.83796  0.61537  0.35963  1.0000
  C   C555      1.0  0.53063  0.62922  0.54405  1.0000
  C   C556      1.0  0.77566  0.57504  0.42661  1.0000
  C   C557      1.0  0.79256  0.60490  0.42558  1.0000
  C   C558      1.0  0.82272  0.61820  0.42763  1.0000
  C   C559      1.0  0.83642  0.60186  0.43026  1.0000
  C   C560      1.0  0.81955  0.57196  0.43074  1.0000
  C   C561      1.0  0.78934  0.55867  0.42914  1.0000
  H   H944      1.0  0.78238  0.61779  0.42378  1.0000
  H   H945      1.0  0.83556  0.64133  0.42722  1.0000
  H   H946      1.0  0.82975  0.55912  0.43281  1.0000
  H   H947      1.0  0.77649  0.53557  0.43010  1.0000
  H   H948      1.0  0.55169  0.81363  0.56654  1.0000
  H   H949      1.0  0.90011  0.65655  0.35335  1.0000
  H   H950      1.0  0.54649  0.64714  0.53102  1.0000
  C   C562      1.0  0.64137  0.64865  0.54408  1.0000
  C   C563      1.0  0.64890  0.62760  0.53815  1.0000
  C   C564      1.0  0.65523  0.62293  0.51072  1.0000
  C   C565      1.0  0.65436  0.63943  0.48870  1.0000
  C   C566      1.0  0.64659  0.66032  0.49462  1.0000
  C   C567      1.0  0.64005  0.66484  0.52203  1.0000
  H   H951      1.0  0.65004  0.61490  0.55494  1.0000
  H   H952      1.0  0.66123  0.60686  0.50667  1.0000
  H   H953      1.0  0.64580  0.67327  0.47789  1.0000
  H   H954      1.0  0.63431  0.68111  0.52609  1.0000
  H   H955      1.0  0.58635  0.60091  0.55430  1.0000
  H   H956      1.0  0.68306  0.50465  0.40476  1.0000
  H   H957      1.0  0.90693  0.60292  0.35438  1.0000
  H   H958      1.0  0.65723  0.61451  0.65501  1.0000
  C   C568      1.0  0.89255  0.61222  0.35480  1.0000
  C   C569      1.0  0.62009  0.85029  0.62783  1.0000
  C   C570      1.0  0.61887  0.82748  0.64302  1.0000
  C   C571      1.0  0.61555  0.80278  0.62953  1.0000
  C   C572      1.0  0.61373  0.80074  0.60054  1.0000
  C   C573      1.0  0.61513  0.82362  0.58522  1.0000
  C   C574      1.0  0.61834  0.84834  0.59878  1.0000
  C   C575      1.0  0.86025  0.54565  0.34344  1.0000
  H   H959      1.0  0.61473  0.78544  0.64153  1.0000
  H   H960      1.0  0.61407  0.82233  0.56275  1.0000
  H   H961      1.0  0.61988  0.86598  0.58679  1.0000
  C   C576      1.0  0.49609  0.89608  0.62946  1.0000
  H   H962      1.0  0.53862  0.61407  0.58272  1.0000
  Fe  Fe85      1.0  0.59899  0.95490  0.66288  1.0000
  H   H963      1.0  0.75423  0.75617  0.37101  1.0000
  C   C577      1.0  0.56527  0.58330  0.56150  1.0000
  C   C578      1.0  0.56806  0.58287  0.59346  1.0000
  C   C579      1.0  0.96721  0.51859  0.38464  1.0000
  H   H964      1.0  0.56360  0.56316  0.55322  1.0000
  H   H965      1.0  0.56878  0.60171  0.60363  1.0000
  C   C580      1.0  0.54553  0.61566  0.56068  1.0000
  C   C581      1.0  0.65525  0.66469  0.38443  1.0000
  C   C582      1.0  0.53925  0.82794  0.64759  1.0000
  H   H966      1.0  0.55073  0.56278  0.60263  1.0000
  C   C583      1.0  0.73215  0.75220  0.36763  1.0000
  H   H967      1.0  0.97398  0.63305  0.52386  1.0000
  H   H968      1.0  0.51137  0.54172  0.55544  1.0000
  C   C584      1.0  0.95112  0.55963  0.53743  1.0000
  H   H969      1.0  0.51640  0.55524  0.64610  1.0000
  H   H970      1.0  0.64675  0.66402  0.63823  1.0000
  C   C585      1.0  0.74910  0.70355  0.40421  1.0000
  C   C586      1.0  0.73715  0.69847  0.37421  1.0000
  C   C587      1.0  0.54849  0.83166  0.61681  1.0000
  H   H971      1.0  0.97717  0.49733  0.54574  1.0000
  C   C588      1.0  0.54144  0.58515  0.51922  1.0000
  H   H972      1.0  0.84666  0.52601  0.35571  1.0000
  H   H973      1.0  0.55270  0.48998  0.51541  1.0000
  H   H974      1.0  0.55886  0.83643  0.66073  1.0000
  C   C589      1.0  0.55768  0.85565  0.55813  1.0000
  N   N40       1.0  0.54107  0.58717  0.55052  1.0000
  C   C590      1.0  0.56945  0.60763  0.50503  1.0000
  H   H975      1.0  0.96326  0.53028  0.55320  1.0000
  H   H976      1.0  0.52374  0.58677  0.50933  1.0000
  S   S171      1.0  0.59158  0.97287  0.62339  1.0000
  C   C591      1.0  0.66176  0.65683  0.64550  1.0000
  C   C592      1.0  0.70943  0.71702  0.64478  1.0000
  H   H977      1.0  0.68389  0.51412  0.44944  1.0000
  H   H978      1.0  0.82591  0.62669  0.35521  1.0000
  H   H979      1.0  0.84477  0.56756  0.36922  1.0000
  C   C593      1.0  0.84863  0.56653  0.34656  1.0000
  H   H980      1.0  0.52532  0.80515  0.65331  1.0000
  C   C594      1.0  0.64484  0.62375  0.64563  1.0000
  H   H981      1.0  0.73574  0.67821  0.36665  1.0000
  Fe  Fe86      1.0  0.96608  0.61707  0.45139  1.0000
  S   S172      1.0  0.57926  0.71427  0.64507  1.0000
  H   H982      1.0  0.69181  0.67672  0.41032  1.0000
  H   H983      1.0  0.75193  0.72371  0.41334  1.0000
  C   C595      1.0  0.70924  0.72384  0.38052  1.0000
  C   C596      1.0  0.50530  0.78843  0.60133  1.0000
  H   H984      1.0  0.63430  0.98141  0.53283  1.0000
  H   H985      1.0  0.49076  0.82680  0.55541  1.0000
  H   H986      1.0  0.97730  0.55262  0.47985  1.0000
  H   H987      1.0  0.58864  0.58378  0.59862  1.0000
  Fe  Fe87      1.0  0.63143  0.97459  0.60648  1.0000
  C   C597      1.0  0.68691  0.67238  0.38775  1.0000
  H   H988      1.0  0.54602  0.86778  0.55797  1.0000
  H   H989      1.0  0.68830  0.72267  0.37656  1.0000
  H   H990      1.0  0.94622  0.49914  0.38819  1.0000
  H   H991      1.0  0.52233  0.63916  0.55894  1.0000
  H   H992      1.0  0.73571  0.68525  0.41807  1.0000
  S   S173      1.0  0.96159  0.57815  0.42949  1.0000
  H   H993      1.0  0.94912  0.52223  0.51884  1.0000
  H   H994      1.0  0.56572  0.60755  0.48228  1.0000
  C   C598      1.0  0.53843  0.82425  0.56729  1.0000
  H   H995      1.0  0.53762  0.56362  0.51278  1.0000
  H   H996      1.0  0.49700  0.83095  0.61891  1.0000
  H   H997      1.0  0.64725  0.65874  0.36279  1.0000
  N   N41       1.0  0.70856  0.69699  0.37040  1.0000
  H   H998      1.0  0.72802  0.75321  0.34523  1.0000
  H   H999      1.0  0.51315  0.56294  0.58443  1.0000
  H   H1000     1.0  0.88476  0.49558  0.41888  1.0000
  H   H1001     1.0  0.51823  0.77861  0.60841  1.0000
  H   H1002     1.0  0.56889  0.63185  0.56072  1.0000
  H   H1003     1.0  0.82262  0.59465  0.36938  1.0000
  H   H1004     1.0  0.71988  0.74071  0.64662  1.0000
  H   H1005     1.0  0.56507  0.85589  0.53652  1.0000
  H   H1006     1.0  0.60587  0.49905  0.43801  1.0000
  H   H1007     1.0  0.52239  0.81384  0.55043  1.0000
  H   H1008     1.0  0.77064  0.70545  0.40383  1.0000
  Fe  Fe88      1.0  0.61376  0.70491  0.65872  1.0000
  N   N42       1.0  0.52458  0.82001  0.59549  1.0000
  C   C599      1.0  0.51439  0.59329  0.63665  1.0000
  H   H1009     1.0  0.53648  0.60774  0.64232  1.0000
  H   H1010     1.0  0.96198  0.53595  0.38170  1.0000
  H   H1011     1.0  0.82681  0.55605  0.33707  1.0000
  N   N43       1.0  0.98124  0.51473  0.35914  1.0000
  H   H1012     1.0  0.51287  0.89340  0.63879  1.0000
  C   C600      1.0  0.51340  0.56266  0.56142  1.0000
  C   C601      1.0  0.91173  0.64470  0.34972  1.0000
  H   H1013     1.0  0.85508  0.62877  0.37478  1.0000
  H   H1014     1.0  0.57731  0.86706  0.57107  1.0000
  C   C602      1.0  0.50293  0.56356  0.63892  1.0000
  H   H1015     1.0  0.62386  0.61543  0.65624  1.0000
  H   H1016     1.0  0.56335  0.85502  0.61400  1.0000
  H   H1017     1.0  0.63986  0.61588  0.62378  1.0000
  H   H1018     1.0  0.56173  0.82121  0.61426  1.0000
  H   H1019     1.0  0.93077  0.54750  0.54919  1.0000
  S   S174      1.0  0.94546  0.57405  0.35024  1.0000
  H   H1020     1.0  0.68792  0.65267  0.38305  1.0000
  H   H1021     1.0  0.58685  0.60244  0.50766  1.0000
  H   H1022     1.0  0.92981  0.65342  0.36487  1.0000
  H   H1023     1.0  0.67792  0.66297  0.62863  1.0000
  C   C603      1.0  0.49837  0.90485  0.60181  1.0000
  H   H1024     1.0  0.64650  0.49387  0.40387  1.0000
  H   H1025     1.0  0.50024  0.76612  0.56147  1.0000
  H   H1026     1.0  0.51216  0.61436  0.53107  1.0000
  C   C604      1.0  0.51503  0.97048  0.64631  1.0000
  C   C605      1.0  0.49723  0.60416  0.62696  1.0000
  H   H1027     1.0  0.64167  0.64567  0.39750  1.0000
  H   H1028     1.0  0.69863  0.71119  0.62412  1.0000
  H   H1029     1.0  0.66960  0.70726  0.66387  1.0000
  H   H1030     1.0  0.71225  0.72601  0.40351  1.0000
  H   H1031     1.0  0.52335  0.85957  0.60015  1.0000
  H   H1032     1.0  0.75414  0.71567  0.36144  1.0000
  H   H1033     1.0  0.97132  0.52706  0.42905  1.0000
  H   H1034     1.0  0.52874  0.84051  0.65300  1.0000
  H   H1035     1.0  0.88251  0.55497  0.35135  1.0000
  H   H1036     1.0  0.49896  0.95173  0.63420  1.0000
  H   H1037     1.0  0.67147  0.49784  0.48226  1.0000
  H   H1038     1.0  0.67148  0.50093  0.35721  1.0000
  H   H1039     1.0  0.72651  0.71127  0.64542  1.0000
  H   H1040     1.0  0.53359  0.98071  0.63180  1.0000
  C   C606      1.0  0.96421  0.54017  0.53267  1.0000
  H   H1041     1.0  0.49036  0.78524  0.61873  1.0000
  H   H1042     1.0  0.96544  0.57905  0.54978  1.0000
  H   H1043     1.0  0.71420  0.49512  0.42242  1.0000
  H   H1044     1.0  0.70957  0.66303  0.66026  1.0000
  C   C607      1.0  0.98407  0.52463  0.41222  1.0000
  C   C608      1.0  0.67754  0.49423  0.46119  1.0000
  C   C609      1.0  0.68748  0.70313  0.66850  1.0000
  H   H1045     1.0  0.53926  0.95178  0.66339  1.0000
  C   C610      1.0  0.48680  0.76923  0.57704  1.0000
  C   C611      1.0  0.69895  0.69070  0.34027  1.0000
  C   C612      1.0  0.48529  0.83039  0.57660  1.0000
  C   C613      1.0  0.48539  0.56172  0.55276  1.0000
  H   H1046     1.0  0.48576  0.96675  0.59653  1.0000
  H   H1047     1.0  0.69600  0.49078  0.46423  1.0000
  H   H1048     1.0  0.68695  0.66713  0.33621  1.0000
  C   C614      1.0  0.57743  0.87361  0.98223  1.0000
  Fe  Fe89      1.0  0.61681  0.95735  0.86650  1.0000
  S   S175      1.0  0.57057  0.92281  0.86822  1.0000
  H   H1049     1.0  0.59291  0.58794  0.96327  1.0000
  Fe  Fe90      1.0  0.62237  0.96268  0.93131  1.0000
  S   S176      1.0  0.57636  0.92802  0.93651  1.0000
  Fe  Fe91      1.0  0.58470  0.90406  0.90253  1.0000
  S   S177      1.0  0.56614  0.85554  0.90439  1.0000
  Fe  Fe92      1.0  0.56700  0.94989  0.90191  1.0000
  S   S178      1.0  0.53349  0.96335  0.90422  1.0000
  S   S179      1.0  0.63130  0.93713  0.89917  1.0000
  H   H1050     1.0  0.59952  0.61127  0.93465  1.0000
  Fe  Fe93      1.0  0.62324  0.68673  0.92732  1.0000
  S   S180      1.0  0.59786  0.70502  0.94666  1.0000
  S   S181      1.0  0.64806  0.66904  0.95137  1.0000
  Fe  Fe94      1.0  0.59982  0.68730  0.86744  1.0000
  S   S182      1.0  0.57238  0.70468  0.88395  1.0000
  S   S183      1.0  0.59108  0.67060  0.82246  1.0000
  Fe  Fe95      1.0  0.61103  0.73454  0.90951  1.0000
  S   S184      1.0  0.63069  0.78334  0.91001  1.0000
  Fe  Fe96      1.0  0.56185  0.67362  0.91895  1.0000
  S   S185      1.0  0.51707  0.64521  0.93573  1.0000
  S   S186      1.0  0.63930  0.71838  0.89160  1.0000
  S   S187      1.0  0.58663  0.65425  0.90117  1.0000
  S   S188      1.0  0.63674  0.71980  0.70086  1.0000
  C   C615      1.0  0.60367  0.68597  0.78910  1.0000
  C   C616      1.0  0.63110  0.70959  0.78506  1.0000
  C   C617      1.0  0.64058  0.72005  0.75798  1.0000
  C   C618      1.0  0.62289  0.70697  0.73461  1.0000
  C   C619      1.0  0.59545  0.68345  0.73865  1.0000
  C   C620      1.0  0.58600  0.67298  0.76572  1.0000
  H   H1051     1.0  0.64532  0.71916  0.80268  1.0000
  H   H1052     1.0  0.66200  0.73802  0.75506  1.0000
  H   H1053     1.0  0.58163  0.67304  0.72091  1.0000
  H   H1054     1.0  0.56486  0.65449  0.76855  1.0000
  C   C621      1.0  0.52035  0.56540  0.96578  1.0000
  N   N44       1.0  0.61707  0.88940  0.73893  1.0000
  H   H1055     1.0  0.65210  0.94146  0.70954  1.0000
  H   H1056     1.0  0.66375  0.63250  0.98072  1.0000
  H   H1057     1.0  0.72956  0.67272  0.71312  1.0000
  C   C622      1.0  0.64856  0.66221  0.98762  1.0000
  H   H1058     1.0  0.63778  0.90113  0.77938  1.0000
  H   H1059     1.0  0.67301  0.69618  0.72536  1.0000
  C   C623      1.0  0.90753  0.60765  0.99522  1.0000
  C   C624      1.0  0.58457  0.83590  0.90463  1.0000
  C   C625      1.0  0.56856  0.80584  0.90659  1.0000
  C   C626      1.0  0.58227  0.78938  0.90797  1.0000
  C   C627      1.0  0.61223  0.80289  0.90764  1.0000
  C   C628      1.0  0.62826  0.83293  0.90524  1.0000
  C   C629      1.0  0.61453  0.84936  0.90360  1.0000
  H   H1060     1.0  0.54537  0.79521  0.90738  1.0000
  H   H1061     1.0  0.56965  0.76630  0.90978  1.0000
  H   H1062     1.0  0.65145  0.84356  0.90475  1.0000
  H   H1063     1.0  0.62710  0.87244  0.90180  1.0000
  H   H1064     1.0  0.59648  0.83534  0.96404  1.0000
  H   H1065     1.0  0.60379  0.89452  0.69787  1.0000
  H   H1066     1.0  0.49174  0.97338  0.86718  1.0000
  H   H1067     1.0  0.61410  0.91359  0.96904  1.0000
  H   H1068     1.0  0.68718  0.94272  0.97405  1.0000
  C   C630      1.0  0.60060  0.96582  0.73866  1.0000
  C   C631      1.0  0.62490  0.97106  0.79239  1.0000
  C   C632      1.0  0.59529  0.95982  0.78927  1.0000
  S   S189      1.0  0.58415  0.96157  0.70550  1.0000
  H   H1069     1.0  0.55807  0.86831  0.74324  1.0000
  H   H1070     1.0  0.62254  0.84226  0.71168  1.0000
  H   H1071     1.0  0.65960  0.89398  0.73813  1.0000
  H   H1072     1.0  0.67241  0.94498  0.74101  1.0000
  H   H1073     1.0  0.69742  0.71581  0.68759  1.0000
  C   C633      1.0  0.67323  0.92688  0.95809  1.0000
  H   H1074     1.0  0.56785  0.57712  0.93406  1.0000
  C   C634      1.0  0.63025  0.97741  0.74179  1.0000
  H   H1075     1.0  0.89389  0.58407  0.99538  1.0000
  H   H1076     1.0  0.67299  0.89265  0.98116  1.0000
  H   H1077     1.0  0.55700  0.86185  0.70615  1.0000
  H   H1078     1.0  0.49451  0.53549  0.99933  1.0000
  C   C635      1.0  0.62196  0.90404  0.76684  1.0000
  H   H1079     1.0  0.52814  0.55094  0.95830  1.0000
  C   C636      1.0  0.52993  0.60663  0.99495  1.0000
  H   H1080     1.0  0.51407  0.60697  0.98023  1.0000
  H   H1081     1.0  0.66529  0.98934  0.77073  1.0000
  H   H1082     1.0  0.65857  0.93361  0.94924  1.0000
  C   C637      1.0  0.48905  0.90967  0.91805  1.0000
  C   C638      1.0  0.51050  0.94463  0.82853  1.0000
  H   H1083     1.0  0.63536  0.66495  0.68843  1.0000
  H   H1084     1.0  0.55681  0.89249  0.71911  1.0000
  C   C639      1.0  0.66241  0.67252  0.72429  1.0000
  C   C640      1.0  0.49909  0.93913  0.91688  1.0000
  C   C641      1.0  0.58227  0.59502  0.94803  1.0000
  H   H1085     1.0  0.68906  0.64246  0.68905  1.0000
  H   H1086     1.0  0.64988  0.88162  0.95166  1.0000
  N   N45       1.0  0.60758  0.77099  0.81918  1.0000
  C   C642      1.0  0.62239  0.75740  0.83427  1.0000
  C   C643      1.0  0.57623  0.75440  0.82704  1.0000
  C   C644      1.0  0.62117  0.80179  0.82905  1.0000
  C   C645      1.0  0.61205  0.76943  0.78843  1.0000
  C   C646      1.0  0.65546  0.77292  0.83179  1.0000
  C   C647      1.0  0.55918  0.72333  0.81591  1.0000
  C   C648      1.0  0.60299  0.81659  0.82714  1.0000
  C   C649      1.0  0.59650  0.77976  0.76874  1.0000
  H   H1087     1.0  0.61756  0.75581  0.85688  1.0000
  H   H1088     1.0  0.61435  0.73506  0.82710  1.0000
  H   H1089     1.0  0.56423  0.76487  0.81965  1.0000
  H   H1090     1.0  0.57393  0.75383  0.85013  1.0000
  H   H1091     1.0  0.62738  0.80358  0.85142  1.0000
  H   H1092     1.0  0.64159  0.81554  0.81776  1.0000
  H   H1093     1.0  0.63518  0.78259  0.78314  1.0000
  H   H1094     1.0  0.60665  0.74741  0.78188  1.0000
  H   H1095     1.0  0.66260  0.77339  0.81011  1.0000
  H   H1096     1.0  0.66595  0.79489  0.84067  1.0000
  H   H1097     1.0  0.66350  0.76091  0.84404  1.0000
  H   H1098     1.0  0.55798  0.72251  0.79286  1.0000
  H   H1099     1.0  0.56787  0.70975  0.82324  1.0000
  H   H1100     1.0  0.53678  0.71325  0.82368  1.0000
  H   H1101     1.0  0.59384  0.81514  0.80622  1.0000
  H   H1102     1.0  0.61681  0.83971  0.83227  1.0000
  H   H1103     1.0  0.58558  0.80785  0.84289  1.0000
  H   H1104     1.0  0.60973  0.80318  0.76523  1.0000
  H   H1105     1.0  0.57491  0.77442  0.77597  1.0000
  H   H1106     1.0  0.59274  0.76848  0.74842  1.0000
  H   H1107     1.0  0.89534  0.61726  0.98603  1.0000
  H   H1108     1.0  0.74301  0.69934  0.68709  1.0000
  C   C650      1.0  0.58328  0.95745  0.76258  1.0000
  N   N46       1.0  0.63165  0.88953  0.98860  1.0000
  H   H1109     1.0  0.55866  0.65173  0.98363  1.0000
  C   C651      1.0  0.60145  0.83994  0.71717  1.0000
  C   C652      1.0  0.66414  0.93306  0.72114  1.0000
  H   H1110     1.0  0.63044  0.83649  0.96833  1.0000
  H   H1111     1.0  0.50328  0.90156  0.91302  1.0000
  H   H1112     1.0  0.58370  0.62889  0.97231  1.0000
  H   H1113     1.0  0.58268  0.84781  0.75284  1.0000
  C   C653      1.0  0.56667  0.60897  0.96241  1.0000
  C   C654      1.0  0.59910  0.89661  0.72005  1.0000
  C   C655      1.0  0.60427  0.85764  0.74342  1.0000
  H   H1114     1.0  0.58394  0.87187  0.79031  1.0000
  H   H1115     1.0  0.58656  0.81684  0.72121  1.0000
  H   H1116     1.0  0.52874  0.61792  0.88946  1.0000
  N   N47       1.0  0.54324  0.59021  0.98245  1.0000
  H   H1117     1.0  0.68322  0.93786  0.70837  1.0000
  C   C656      1.0  0.65285  0.66064  0.69462  1.0000
  H   H1118     1.0  0.55760  0.61660  0.94587  1.0000
  S   S190      1.0  0.65131  0.98144  0.97020  1.0000
  H   H1119     1.0  0.51514  0.96650  0.83375  1.0000
  H   H1120     1.0  0.92565  0.61194  0.98118  1.0000
  H   H1121     1.0  0.60267  0.90667  0.80543  1.0000
  C   C657      1.0  0.56608  0.87838  0.72282  1.0000
  C   C658      1.0  0.49551  0.57368  0.89029  1.0000
  H   H1122     1.0  0.55888  0.56196  0.99624  1.0000
  H   H1123     1.0  0.50501  0.56755  0.87377  1.0000
  H   H1124     1.0  0.68752  0.92765  0.94105  1.0000
  C   C659      1.0  0.64618  0.90034  0.72567  1.0000
  N   N48       1.0  0.67586  0.67146  0.67261  1.0000
  H   H1125     1.0  0.50399  0.55585  0.81302  1.0000
  H   H1126     1.0  0.60104  0.81474  0.99048  1.0000
  H   H1127     1.0  0.64390  0.98441  0.72365  1.0000
  H   H1128     1.0  0.51493  0.57328  0.94666  1.0000
  C   C660      1.0  0.50926  0.60224  0.89944  1.0000
  H   H1129     1.0  0.58072  0.90152  0.77599  1.0000
  S   S191      1.0  0.64085  0.97227  0.82520  1.0000
  C   C661      1.0  0.49170  0.54601  0.98082  1.0000
  H   H1130     1.0  0.60517  0.91943  0.72268  1.0000
  H   H1131     1.0  0.64305  0.66421  0.73766  1.0000
  H   H1132     1.0  0.58164  0.95277  0.80741  1.0000
  C   C662      1.0  0.59544  0.89498  0.78525  1.0000
  H   H1133     1.0  0.61746  0.85365  0.75873  1.0000
  H   H1134     1.0  0.63160  0.92743  0.76425  1.0000
  C   C663      1.0  0.65688  0.89626  0.97001  1.0000
  H   H1135     1.0  0.59295  0.84617  0.69914  1.0000
  H   H1136     1.0  0.67623  0.66490  0.73364  1.0000
  H   H1137     1.0  0.60829  0.88296  0.95003  1.0000
  H   H1138     1.0  0.56037  0.94870  0.76044  1.0000
  H   H1139     1.0  0.52749  0.94185  0.83880  1.0000
  H   H1140     1.0  0.50466  0.93839  0.67910  1.0000
  H   H1141     1.0  0.64404  0.89065  0.70468  1.0000
  H   H1142     1.0  0.64250  0.63703  0.69694  1.0000
  C   C664      1.0  0.69885  0.66420  0.67965  1.0000
  H   H1143     1.0  0.53472  0.97326  0.68795  1.0000
  C   C665      1.0  0.72340  0.68521  0.69921  1.0000
  H   H1144     1.0  0.48836  0.97227  0.92311  1.0000
  C   C666      1.0  0.64233  0.98036  0.76854  1.0000
  H   H1145     1.0  0.71824  0.69848  0.71291  1.0000
  C   C667      1.0  0.49791  0.61033  0.92147  1.0000
  H   H1146     1.0  0.98118  0.55094  0.97401  1.0000
  C   C668      1.0  0.61194  0.83559  0.97944  1.0000
  H   H1147     1.0  0.51300  0.94312  0.80582  1.0000
  C   C669      1.0  0.60875  0.89091  0.97154  1.0000
  H   H1148     1.0  0.63386  0.69056  0.00179  1.0000
  S   S192      1.0  0.61262  0.98605  0.89817  1.0000
  C   C670      1.0  0.65785  0.64319  0.99625  1.0000
  H   H1149     1.0  0.56486  0.85382  0.96959  1.0000
  C   C671      1.0  0.62177  0.86028  0.00078  1.0000
  H   H1150     1.0  0.56662  0.88632  0.97896  1.0000
  H   H1151     1.0  0.72002  0.69105  0.00226  1.0000
  C   C672      1.0  0.52351  0.95788  0.67084  1.0000
  H   H1152     1.0  0.48529  0.95900  0.70484  1.0000
