data_image0
_chemical_formula_structural       C4HCH2NH3SC2HCH2NHCHCH2C2H3SH3CH2SHSH5CH3C2HCH2FeC2SHC2H2CHCHC2SH2CH2CSH2FeC3SHCHSC2H2CH2C2SHCH3CHFeHFeSH3SC2S2Fe2HC3SC2HSH5CH4CHNH3CH3NHCHSH2CH3CH2CHC3H3NH2CH4C3HC2H2C2H2C3H9NC2HCH5CH6S2CSHCHCHC2SC3HSCHC2Fe2HFeH2SHCHSFeHCSHSHCH2SHC2HC2H4Fe2CHCH3CH3CH2SH3C2H2SHSHC2H3NCH2C2HC2H3CH2CHNH2C3H4NHC2HC2HSC2SH2CHC2FeC2H5CFeHCH2FeS2H2SH4FeNHC2SHFeHCHCHCHCHSC2FeSHC2HCHFeCSCH2FeHCH4SCH3CHC2H6FeH6C2SH3SC2H2CH3C2H2CH2CH2C2HCH3CH3CHNHCH2CHC2H5SHCH3FeHCH5CNH3C2HC3SFeC2H2C3H2SCH4CH2SH3C3HCHCH2SH5SCHC3FeH4CHNHC2H2CH3FeHC2HSCH2SH2CHNC2HCH5CH4SH2CSC3HSHCH2C2HCH2C2HCH5FeHCH2C2HS2HCH10S2HCHFeHCH4C2HSHCFeHC2H3CNCH2SCH3CFeH4NH4FeCHC2HCH2SCSH2SCHCH2C2HCH4CSH7CHC2H5C4NHC2HC2H2FeH2SH3SCH2CHFeSH2CH2CFeCH2CHSNSC2HSFeHSHFeH2C2HCH4C2SH3CHSC2HSNFeH4C3HCH4CNCH3CHC2H3CH2C2HCHSH2C2H2CHC2H5CH5C2HFeSH2CHSC3HCH2FeH6C3H2CFeSFeSHC3SHC2H2S2HC2SHFeCSC2HCH4CH2CH6CH2CH3CH4C3H2CHCHCSH3SCHCHCHC2NC3HNSHCH7CH4FeC2SFeHCSH5CSHFeSFeHCH2CHCFeHCNH2C2H2FeH2C2H5S2CH2CS2CSCHCSHCHCFeHNH3
_chemical_formula_sum              "C336 H576 N24 S96 Fe48"
_cell_length_a       27.7073
_cell_length_b       28.9583
_cell_length_c       20.7101
_cell_angle_alpha    86.2782
_cell_angle_beta     72.7155
_cell_angle_gamma    116.938

_space_group_name_H-M_alt    "P 1"
_space_group_IT_number       1

loop_
  _space_group_symop_operation_xyz
  'x, y, z'

loop_
  _atom_site_type_symbol
  _atom_site_label
  _atom_site_symmetry_multiplicity
  _atom_site_fract_x
  _atom_site_fract_y
  _atom_site_fract_z
  _atom_site_occupancy
  C   C1        1.0  0.87138  0.40565  0.08641  1.0000
  C   C2        1.0  0.98636  0.17442  0.06857  1.0000
  C   C3        1.0  0.23397  0.22469  0.05046  1.0000
  C   C4        1.0  0.90499  0.26155  0.06283  1.0000
  H   H1        1.0  0.13165  0.00434  0.12390  1.0000
  C   C5        1.0  0.11018  0.26162  0.01866  1.0000
  H   H2        1.0  0.90209  0.13036  0.05906  1.0000
  H   H3        1.0  0.33983  0.12243  0.97311  1.0000
  N   N1        1.0  0.23334  0.13937  0.09503  1.0000
  H   H4        1.0  0.27687  0.06864  0.03895  1.0000
  H   H5        1.0  0.10958  0.21865  0.10847  1.0000
  H   H6        1.0  0.15681  0.27539  0.98955  1.0000
  S   S1        1.0  0.97576  0.30582  0.05642  1.0000
  C   C6        1.0  0.18996  0.19050  0.91231  1.0000
  C   C7        1.0  0.32581  0.33187  0.11840  1.0000
  H   H7        1.0  0.89570  0.13161  0.14684  1.0000
  C   C8        1.0  0.08382  0.20984  0.07403  1.0000
  H   H8        1.0  0.35944  0.37157  0.01040  1.0000
  H   H9        1.0  0.00825  0.16489  0.02107  1.0000
  N   N2        1.0  0.01971  0.18472  0.11696  1.0000
  H   H10       1.0  0.21892  0.18249  0.92989  1.0000
  C   C9        1.0  0.27310  0.35897  0.06387  1.0000
  H   H11       1.0  0.27088  0.37720  0.01831  1.0000
  C   C10       1.0  0.30716  0.11222  0.02603  1.0000
  H   H12       1.0  0.09322  0.18235  0.04438  1.0000
  H   H13       1.0  0.20507  0.23901  0.04168  1.0000
  C   C11       1.0  0.92243  0.12876  0.09746  1.0000
  C   C12       1.0  0.19845  0.16436  0.08350  1.0000
  H   H14       1.0  0.26866  0.23533  0.99926  1.0000
  H   H15       1.0  0.31040  0.18667  0.00203  1.0000
  H   H16       1.0  0.00735  0.08953  0.08417  1.0000
  S   S2        1.0  0.07174  0.94578  0.91485  1.0000
  H   H17       1.0  0.93003  0.25186  0.95792  1.0000
  H   H18       1.0  0.91948  0.08917  0.10438  1.0000
  H   H19       1.0  0.30426  0.20718  0.10937  1.0000
  C   C13       1.0  0.26750  0.16670  0.13902  1.0000
  H   H20       1.0  0.32218  0.01074  0.92238  1.0000
  H   H21       1.0  0.10940  0.29470  0.04174  1.0000
  S   S3        1.0  0.11330  0.08414  0.96131  1.0000
  H   H22       1.0  0.98653  0.21120  0.04879  1.0000
  S   S4        1.0  0.13553  0.37947  0.92969  1.0000
  H   H23       1.0  0.34926  0.97797  0.96587  1.0000
  H   H24       1.0  0.93405  0.38045  0.09331  1.0000
  H   H25       1.0  0.17997  0.04899  0.04093  1.0000
  H   H26       1.0  0.25353  0.13302  0.98728  1.0000
  H   H27       1.0  0.93109  0.37276  0.98706  1.0000
  C   C14       1.0  0.89446  0.24035  0.00653  1.0000
  H   H28       1.0  0.11991  0.05610  0.09483  1.0000
  H   H29       1.0  0.08863  0.25572  0.98020  1.0000
  H   H30       1.0  0.33104  0.12195  0.06211  1.0000
  C   C15       1.0  0.32325  0.35604  0.05953  1.0000
  C   C16       1.0  0.27547  0.14442  0.02543  1.0000
  H   H31       1.0  0.02670  0.26198  0.12403  1.0000
  C   C17       1.0  0.88895  0.36706  0.98587  1.0000
  H   H32       1.0  0.21641  0.06323  0.14490  1.0000
  H   H33       1.0  0.17522  0.14531  0.04904  1.0000
  Fe  Fe1       1.0  0.04069  0.34028  0.94731  1.0000
  C   C18       1.0  0.22600  0.33835  0.12735  1.0000
  C   C19       1.0  0.01640  0.09391  0.13275  1.0000
  S   S5        1.0  0.16277  0.34129  0.13466  1.0000
  H   H34       1.0  0.16334  0.15717  0.13312  1.0000
  C   C20       1.0  0.19216  0.08186  0.13252  1.0000
  C   C21       1.0  0.15438  0.04652  0.09477  1.0000
  H   H35       1.0  0.06269  0.10551  0.12113  1.0000
  H   H36       1.0  0.25345  0.24691  0.08541  1.0000
  C   C22       1.0  0.13540  0.14887  0.91963  1.0000
  H   H37       1.0  0.11320  0.91714  0.07514  1.0000
  C   C23       1.0  0.35987  0.00466  0.91726  1.0000
  H   H38       1.0  0.28811  0.14453  0.15349  1.0000
  C   C24       1.0  0.89119  0.36282  0.91126  1.0000
  C   C25       1.0  0.20607  0.99395  0.24290  1.0000
  S   S6        1.0  0.88910  0.96067  0.34005  1.0000
  H   H39       1.0  0.14363  0.04901  0.35566  1.0000
  H   H40       1.0  0.12011  0.98466  0.28171  1.0000
  C   C26       1.0  0.22937  0.31509  0.18573  1.0000
  H   H41       1.0  0.26214  0.19208  0.23613  1.0000
  H   H42       1.0  0.31952  0.07837  0.28608  1.0000
  C   C27       1.0  0.09968  0.19803  0.34299  1.0000
  S   S7        1.0  0.03789  0.27200  0.32481  1.0000
  H   H43       1.0  0.95342  0.23710  0.23972  1.0000
  H   H44       1.0  0.21636  0.94500  0.39819  1.0000
  Fe  Fe2       1.0  0.32807  0.19046  0.32946  1.0000
  C   C28       1.0  0.23325  0.06809  0.32561  1.0000
  C   C29       1.0  0.26235  0.02050  0.24408  1.0000
  C   C30       1.0  0.16344  0.00437  0.28328  1.0000
  S   S8        1.0  0.08322  0.39627  0.26861  1.0000
  H   H45       1.0  0.02418  0.14449  0.20512  1.0000
  C   C31       1.0  0.92154  0.09355  0.40208  1.0000
  H   H46       1.0  0.29532  0.01269  0.21259  1.0000
  S   S9        1.0  0.91851  0.31456  0.38429  1.0000
  C   C32       1.0  0.05489  0.09177  0.40572  1.0000
  C   C33       1.0  0.92352  0.37705  0.38515  1.0000
  H   H47       1.0  0.19309  0.29825  0.23397  1.0000
  H   H48       1.0  0.99001  0.05427  0.16991  1.0000
  C   C34       1.0  0.95076  0.20659  0.20886  1.0000
  H   H49       1.0  0.93022  0.16809  0.24652  1.0000
  H   H50       1.0  0.88179  0.07445  0.38916  1.0000
  C   C35       1.0  0.09328  0.16043  0.30245  1.0000
  C   C36       1.0  0.23253  0.17290  0.20816  1.0000
  S   S10       1.0  0.24807  0.11114  0.38170  1.0000
  H   H51       1.0  0.95933  0.11115  0.35198  1.0000
  C   C37       1.0  0.27615  0.05802  0.28489  1.0000
  H   H52       1.0  0.21433  0.19883  0.20004  1.0000
  H   H53       1.0  0.10548  0.17279  0.24697  1.0000
  H   H54       1.0  0.04126  0.23414  0.18942  1.0000
  C   C38       1.0  0.17686  0.04096  0.32500  1.0000
  H   H55       1.0  0.27997  0.29271  0.22685  1.0000
  Fe  Fe3       1.0  0.97613  0.97951  0.34366  1.0000
  H   H56       1.0  0.95519  0.11308  0.19831  1.0000
  Fe  Fe4       1.0  0.08690  0.29687  0.39672  1.0000
  S   S11       1.0  0.16851  0.36306  0.31463  1.0000
  H   H57       1.0  0.92289  0.20645  0.17997  1.0000
  H   H58       1.0  0.11690  0.23887  0.31886  1.0000
  H   H59       1.0  0.19711  0.13426  0.24352  1.0000
  S   S12       1.0  0.05318  0.05954  0.28341  1.0000
  C   C39       1.0  0.88168  0.38666  0.37283  1.0000
  C   C40       1.0  0.06890  0.10683  0.33405  1.0000
  S   S13       1.0  0.32148  0.26454  0.31811  1.0000
  S   S14       1.0  0.19030  0.95193  0.18582  1.0000
  Fe  Fe5       1.0  0.00945  0.33033  0.35707  1.0000
  Fe  Fe6       1.0  0.11774  0.34068  0.24462  1.0000
  H   H60       1.0  0.16106  0.07821  0.18345  1.0000
  C   C41       1.0  0.27900  0.31200  0.18154  1.0000
  C   C42       1.0  0.00239  0.13457  0.16656  1.0000
  C   C43       1.0  0.01254  0.22371  0.15852  1.0000
  S   S15       1.0  0.05379  0.35217  0.43360  1.0000
  C   C44       1.0  0.22139  0.16845  0.54451  1.0000
  C   C45       1.0  0.22638  0.15997  0.61614  1.0000
  H   H61       1.0  0.11879  0.95390  0.64545  1.0000
  S   S16       1.0  0.08033  0.22895  0.46524  1.0000
  H   H62       1.0  0.96264  0.23380  0.47054  1.0000
  H   H63       1.0  0.13365  0.40343  0.59875  1.0000
  H   H64       1.0  0.13242  0.04073  0.47623  1.0000
  H   H65       1.0  0.04615  0.95658  0.61245  1.0000
  H   H66       1.0  0.04235  0.94905  0.52881  1.0000
  C   C46       1.0  0.25275  0.33052  0.47684  1.0000
  H   H67       1.0  0.12745  0.23704  0.57354  1.0000
  H   H68       1.0  0.95210  0.14015  0.55016  1.0000
  H   H69       1.0  0.24862  0.15723  0.50527  1.0000
  H   H70       1.0  0.94721  0.06058  0.52736  1.0000
  C   C47       1.0  0.34283  0.29605  0.62773  1.0000
  H   H71       1.0  0.16941  0.31588  0.47742  1.0000
  N   N3        1.0  0.88124  0.12166  0.51404  1.0000
  H   H72       1.0  0.92868  0.32338  0.62407  1.0000
  H   H73       1.0  0.21366  0.37969  0.48487  1.0000
  H   H74       1.0  0.29578  0.12043  0.54756  1.0000
  C   C48       1.0  0.14735  0.95281  0.47143  1.0000
  H   H75       1.0  0.33749  0.33150  0.63374  1.0000
  H   H76       1.0  0.15630  0.92160  0.60424  1.0000
  H   H77       1.0  0.92465  0.06272  0.43206  1.0000
  N   N4        1.0  0.16675  0.31931  0.58244  1.0000
  H   H78       1.0  0.23197  0.33711  0.62833  1.0000
  C   C49       1.0  0.92875  0.22009  0.52298  1.0000
  H   H79       1.0  0.97929  0.18360  0.64529  1.0000
  S   S17       1.0  0.94123  0.95013  0.45927  1.0000
  H   H80       1.0  0.11973  0.94330  0.43914  1.0000
  H   H81       1.0  0.33973  0.13307  0.60086  1.0000
  C   C50       1.0  0.08238  0.18279  0.41491  1.0000
  H   H82       1.0  0.94471  0.91912  0.61212  1.0000
  H   H83       1.0  0.03859  0.05092  0.43002  1.0000
  H   H84       1.0  0.27875  0.35338  0.42195  1.0000
  C   C51       1.0  0.10491  0.02618  0.53200  1.0000
  H   H85       1.0  0.91798  0.25237  0.53094  1.0000
  H   H86       1.0  0.23980  0.28839  0.47599  1.0000
  C   C52       1.0  0.19887  0.33736  0.50461  1.0000
  H   H87       1.0  0.19113  0.25866  0.59341  1.0000
  C   C53       1.0  0.18407  0.92508  0.45212  1.0000
  C   C54       1.0  0.33490  0.15039  0.55539  1.0000
  C   C55       1.0  0.92308  0.13829  0.43957  1.0000
  H   H88       1.0  0.05020  0.11804  0.50164  1.0000
  H   H89       1.0  0.12997  0.04584  0.56439  1.0000
  H   H90       1.0  0.13499  0.38549  0.51532  1.0000
  N   N5        1.0  0.28370  0.19809  0.62139  1.0000
  H   H91       1.0  0.28122  0.34496  0.50732  1.0000
  H   H92       1.0  0.96876  0.16296  0.43601  1.0000
  C   C56       1.0  0.06212  0.12991  0.44614  1.0000
  H   H93       1.0  0.33707  0.22201  0.51194  1.0000
  H   H94       1.0  0.17558  0.14249  0.54942  1.0000
  H   H95       1.0  0.90371  0.95097  0.60650  1.0000
  H   H96       1.0  0.17824  0.99589  0.45188  1.0000
  C   C57       1.0  0.20286  0.35229  0.62159  1.0000
  C   C58       1.0  0.90611  0.10854  0.56348  1.0000
  C   C59       1.0  0.90003  0.91312  0.62860  1.0000
  H   H97       1.0  0.04233  0.14320  0.61312  1.0000
  C   C60       1.0  0.11001  0.31977  0.60061  1.0000
  C   C61       1.0  0.15138  0.26205  0.60420  1.0000
  H   H98       1.0  0.94680  0.21565  0.56265  1.0000
  H   H99       1.0  0.24087  0.99898  0.54768  1.0000
  C   C62       1.0  0.33432  0.20295  0.56227  1.0000
  C   C63       1.0  0.28839  0.25224  0.61876  1.0000
  H   H100      1.0  0.23290  0.20972  0.52430  1.0000
  H   H101      1.0  0.07964  0.28820  0.58157  1.0000
  C   C64       1.0  0.11338  0.37192  0.57242  1.0000
  C   C65       1.0  0.20370  0.00642  0.56690  1.0000
  C   C66       1.0  0.14530  0.95318  0.59376  1.0000
  H   H102      1.0  0.88492  0.37369  0.53739  1.0000
  H   H103      1.0  0.88387  0.10946  0.61751  1.0000
  H   H104      1.0  0.20816  0.03653  0.52665  1.0000
  H   H105      1.0  0.20912  0.02496  0.61144  1.0000
  H   H106      1.0  0.90679  0.04288  0.61899  1.0000
  H   H107      1.0  0.28928  0.26823  0.56796  1.0000
  H   H108      1.0  0.06837  0.36466  0.58417  1.0000
  H   H109      1.0  0.20845  0.92753  0.48673  1.0000
  H   H110      1.0  0.07194  0.03906  0.53849  1.0000
  N   N6        1.0  0.11027  0.93902  0.54738  1.0000
  C   C67       1.0  0.90732  0.05579  0.56701  1.0000
  C   C68       1.0  0.07316  0.96524  0.55665  1.0000
  H   H111      1.0  0.21597  0.11787  0.63023  1.0000
  C   C69       1.0  0.87310  0.16833  0.53051  1.0000
  H   H112      1.0  0.91560  0.16429  0.40626  1.0000
  H   H113      1.0  0.86897  0.02248  0.56242  1.0000
  H   H114      1.0  0.87989  0.37170  0.65110  1.0000
  H   H115      1.0  0.18982  0.16196  0.65445  1.0000
  H   H116      1.0  0.23239  0.03352  0.77881  1.0000
  C   C70       1.0  0.26401  0.02449  0.74630  1.0000
  H   H117      1.0  0.17441  0.34791  0.67517  1.0000
  H   H118      1.0  0.05721  0.12714  0.89847  1.0000
  H   H119      1.0  0.09135  0.21905  0.83688  1.0000
  H   H120      1.0  0.33797  0.09686  0.74464  1.0000
  H   H121      1.0  0.07012  0.22851  0.69676  1.0000
  H   H122      1.0  0.90210  0.93383  0.72487  1.0000
  S   S18       1.0  0.03093  0.93022  0.78136  1.0000
  S   S19       1.0  0.20379  0.31570  0.79583  1.0000
  C   C71       1.0  0.96871  0.14751  0.67890  1.0000
  S   S20       1.0  0.13012  0.04641  0.78249  1.0000
  H   H123      1.0  0.35033  0.98986  0.82024  1.0000
  C   C72       1.0  0.09964  0.15921  0.89265  1.0000
  H   H124      1.0  0.89902  0.32938  0.89924  1.0000
  C   C73       1.0  0.90586  0.07686  0.78343  1.0000
  H   H125      1.0  0.91516  0.31145  0.71647  1.0000
  C   C74       1.0  0.24441  0.18003  0.75500  1.0000
  C   C75       1.0  0.24565  0.97694  0.72393  1.0000
  S   S21       1.0  0.99296  0.99733  0.88752  1.0000
  C   C76       1.0  0.99205  0.07907  0.70505  1.0000
  C   C77       1.0  0.17490  0.25234  0.84786  1.0000
  C   C78       1.0  0.11904  0.21122  0.85770  1.0000
  H   H126      1.0  0.25834  0.92141  0.89816  1.0000
  S   S22       1.0  0.35886  0.26732  0.80850  1.0000
  C   C79       1.0  0.00448  0.12478  0.66083  1.0000
  H   H127      1.0  0.27223  0.92826  0.66522  1.0000
  C   C80       1.0  0.20964  0.24207  0.87654  1.0000
  C   C81       1.0  0.28649  0.96494  0.68274  1.0000
  Fe  Fe7       1.0  0.04266  0.01200  0.77370  1.0000
  Fe  Fe8       1.0  0.14416  0.34830  0.83314  1.0000
  H   H128      1.0  0.24524  0.15883  0.80100  1.0000
  Fe  Fe9       1.0  0.11420  0.96303  0.79962  1.0000
  H   H129      1.0  0.92360  0.26529  0.66803  1.0000
  H   H130      1.0  0.92769  0.39922  0.87191  1.0000
  S   S23       1.0  0.02762  0.38875  0.71656  1.0000
  H   H131      1.0  0.32992  0.19789  0.68984  1.0000
  C   C82       1.0  0.91883  0.12307  0.73948  1.0000
  H   H132      1.0  0.93329  0.01992  0.80085  1.0000
  S   S24       1.0  0.17192  0.93179  0.74661  1.0000
  Fe  Fe10      1.0  0.06478  0.37965  0.79530  1.0000
  H   H133      1.0  0.25273  0.27375  0.86903  1.0000
  C   C83       1.0  0.90541  0.29267  0.67369  1.0000
  S   S25       1.0  0.04838  0.30339  0.85515  1.0000
  H   H134      1.0  0.11055  0.19470  0.69269  1.0000
  S   S26       1.0  0.87187  0.14940  0.75779  1.0000
  H   H135      1.0  0.25949  0.22183  0.75906  1.0000
  C   C84       1.0  0.94305  0.05532  0.76670  1.0000
  H   H136      1.0  0.19872  0.16143  0.75831  1.0000
  H   H137      1.0  0.13607  0.25755  0.71564  1.0000
  S   S27       1.0  0.03782  0.05184  0.68177  1.0000
  H   H138      1.0  0.33562  0.91709  0.77438  1.0000
  C   C85       1.0  0.32365  0.06018  0.72723  1.0000
  C   C86       1.0  0.28526  0.17695  0.68874  1.0000
  H   H139      1.0  0.27346  0.13428  0.69473  1.0000
  C   C87       1.0  0.36443  0.04804  0.68588  1.0000
  C   C88       1.0  0.11490  0.23478  0.68188  1.0000
  H   H140      1.0  0.34180  0.33677  0.89700  1.0000
  H   H141      1.0  0.24945  0.24967  0.65864  1.0000
  H   H142      1.0  0.08736  0.31031  0.65801  1.0000
  H   H143      1.0  0.34976  0.28394  0.67440  1.0000
  Fe  Fe11      1.0  0.08007  0.02673  0.89704  1.0000
  Fe  Fe12      1.0  0.98858  0.91763  0.89581  1.0000
  C   C89       1.0  0.34590  0.00060  0.66351  1.0000
  H   H144      1.0  0.98039  0.74812  0.03910  1.0000
  C   C90       1.0  0.87283  0.73927  0.92670  1.0000
  H   H145      1.0  0.14715  0.89622  0.00527  1.0000
  H   H146      1.0  0.10124  0.52749  0.99608  1.0000
  H   H147      1.0  0.00159  0.89062  0.06187  1.0000
  C   C91       1.0  0.12348  0.49967  0.10848  1.0000
  H   H148      1.0  0.22048  0.85584  0.95320  1.0000
  H   H149      1.0  0.92867  0.83970  0.11865  1.0000
  H   H150      1.0  0.96195  0.90365  0.13625  1.0000
  C   C92       1.0  0.17080  0.59544  0.10307  1.0000
  H   H151      1.0  0.14588  0.49064  0.13981  1.0000
  H   H152      1.0  0.18140  0.72757  0.95268  1.0000
  S   S28       1.0  0.96994  0.63967  0.06491  1.0000
  H   H153      1.0  0.22545  0.47053  0.93454  1.0000
  H   H154      1.0  0.96414  0.45204  0.07281  1.0000
  H   H155      1.0  0.94612  0.78852  0.05342  1.0000
  C   C93       1.0  0.28316  0.52170  0.98022  1.0000
  C   C94       1.0  0.97087  0.87248  0.11635  1.0000
  H   H156      1.0  0.34886  0.49270  0.12271  1.0000
  H   H157      1.0  0.13666  0.59866  0.98821  1.0000
  S   S29       1.0  0.91467  0.83702  0.95769  1.0000
  H   H158      1.0  0.08182  0.41543  0.10838  1.0000
  S   S30       1.0  0.35411  0.58691  0.04077  1.0000
  H   H159      1.0  0.31166  0.89605  0.96540  1.0000
  C   C95       1.0  0.09558  0.56041  0.01443  1.0000
  C   C96       1.0  0.92498  0.41346  0.10261  1.0000
  H   H160      1.0  0.08002  0.67986  0.95536  1.0000
  H   H161      1.0  0.27903  0.48554  0.14733  1.0000
  H   H162      1.0  0.14220  0.87411  0.09034  1.0000
  N   N7        1.0  0.87814  0.41046  0.01102  1.0000
  C   C97       1.0  0.05080  0.67844  0.12687  1.0000
  H   H163      1.0  0.90487  0.71838  0.09013  1.0000
  H   H164      1.0  0.04903  0.44868  0.07949  1.0000
  C   C98       1.0  0.30233  0.61278  0.96284  1.0000
  C   C99       1.0  0.06884  0.44629  0.11784  1.0000
  H   H165      1.0  0.25470  0.63637  0.11400  1.0000
  C   C100      1.0  0.31439  0.88941  0.91286  1.0000
  C   C101      1.0  0.08791  0.68788  0.00250  1.0000
  H   H166      1.0  0.19389  0.60279  0.04642  1.0000
  H   H167      1.0  0.06242  0.56261  0.99669  1.0000
  H   H168      1.0  0.97111  0.46598  0.96089  1.0000
  C   C102      1.0  0.94785  0.75456  0.07778  1.0000
  H   H169      1.0  0.16491  0.63068  0.10908  1.0000
  H   H170      1.0  0.93482  0.51484  0.04289  1.0000
  C   C103      1.0  0.31051  0.57289  0.99103  1.0000
  H   H171      1.0  0.28940  0.49075  0.00215  1.0000
  N   N8        1.0  0.01312  0.81285  0.14214  1.0000
  H   H172      1.0  0.06447  0.83509  0.91782  1.0000
  H   H173      1.0  0.22586  0.56618  0.12826  1.0000
  C   C104      1.0  0.15511  0.72415  0.06249  1.0000
  C   C105      1.0  0.04080  0.67053  0.06510  1.0000
  C   C106      1.0  0.92879  0.46377  0.96675  1.0000
  H   H174      1.0  0.32375  0.65250  0.97100  1.0000
  H   H175      1.0  0.92954  0.46940  0.91270  1.0000
  H   H176      1.0  0.04712  0.74034  0.91266  1.0000
  H   H177      1.0  0.15369  0.51123  0.05357  1.0000
  N   N9        1.0  0.11303  0.54460  0.12788  1.0000
  H   H178      1.0  0.07012  0.58682  0.10553  1.0000
  C   C107      1.0  0.21383  0.59751  0.13763  1.0000
  C   C108      1.0  0.92989  0.51325  0.99176  1.0000
  H   H179      1.0  0.07026  0.80145  0.05605  1.0000
  C   C109      1.0  0.10795  0.70543  0.12551  1.0000
  C   C110      1.0  0.06019  0.83339  0.07080  1.0000
  H   H180      1.0  0.02953  0.51717  0.11703  1.0000
  S   S31       1.0  0.29184  0.88878  0.11854  1.0000
  C   C111      1.0  0.11856  0.88303  0.06107  1.0000
  C   C112      1.0  0.07459  0.55164  0.09440  1.0000
  S   S32       1.0  0.22679  0.76015  0.05930  1.0000
  H   H181      1.0  0.04538  0.84386  0.03089  1.0000
  H   H182      1.0  0.86927  0.72398  0.97789  1.0000
  C   C113      1.0  0.14503  0.71434  0.00120  1.0000
  H   H183      1.0  0.96821  0.54970  0.95417  1.0000
  C   C114      1.0  0.24660  0.51010  0.94222  1.0000
  C   C115      1.0  0.26640  0.60127  0.92392  1.0000
  Fe  Fe13      1.0  0.23179  0.80073  0.14771  1.0000
  C   C116      1.0  0.96104  0.76130  0.14510  1.0000
  C   C117      1.0  0.23782  0.54969  0.91448  1.0000
  H   H184      1.0  0.31175  0.84966  0.91571  1.0000
  H   H185      1.0  0.89089  0.51603  0.99373  1.0000
  H   H186      1.0  0.99877  0.78972  0.90753  1.0000
  H   H187      1.0  0.03513  0.85649  0.38231  1.0000
  H   H188      1.0  0.05410  0.56282  0.29278  1.0000
  C   C118      1.0  0.08341  0.53184  0.20582  1.0000
  Fe  Fe14      1.0  0.13006  0.41576  0.34252  1.0000
  H   H189      1.0  0.31242  0.53552  0.22456  1.0000
  C   C119      1.0  0.11803  0.61311  0.38875  1.0000
  H   H190      1.0  0.03890  0.49661  0.22361  1.0000
  H   H191      1.0  0.01541  0.76230  0.29962  1.0000
  Fe  Fe15      1.0  0.22115  0.89408  0.19811  1.0000
  S   S33       1.0  0.93928  0.54104  0.38230  1.0000
  S   S34       1.0  0.26246  0.78532  0.23138  1.0000
  H   H192      1.0  0.88001  0.77869  0.30393  1.0000
  H   H193      1.0  0.32773  0.64908  0.37916  1.0000
  S   S35       1.0  0.89545  0.62058  0.26763  1.0000
  H   H194      1.0  0.31009  0.41399  0.28783  1.0000
  H   H195      1.0  0.11830  0.61306  0.22553  1.0000
  H   H196      1.0  0.32416  0.70173  0.24241  1.0000
  H   H197      1.0  0.03559  0.43172  0.17108  1.0000
  Fe  Fe16      1.0  0.87982  0.88141  0.32667  1.0000
  N   N10       1.0  0.36063  0.50036  0.25306  1.0000
  H   H198      1.0  0.27962  0.60607  0.29915  1.0000
  C   C120      1.0  0.88618  0.43686  0.37254  1.0000
  C   C121      1.0  0.26381  0.58486  0.35245  1.0000
  S   S36       1.0  0.96948  0.90215  0.32182  1.0000
  H   H199      1.0  0.11383  0.83396  0.34484  1.0000
  Fe  Fe17      1.0  0.19341  0.79933  0.30200  1.0000
  H   H200      1.0  0.14998  0.64939  0.34630  1.0000
  C   C122      1.0  0.34763  0.70971  0.18559  1.0000
  H   H201      1.0  0.95408  0.73746  0.27402  1.0000
  C   C123      1.0  0.93206  0.47740  0.38565  1.0000
  H   H202      1.0  0.11312  0.57876  0.36488  1.0000
  C   C124      1.0  0.21610  0.53322  0.37621  1.0000
  H   H203      1.0  0.07356  0.83838  0.19652  1.0000
  C   C125      1.0  0.29129  0.60890  0.39740  1.0000
  H   H204      1.0  0.26940  0.47040  0.27358  1.0000
  S   S37       1.0  0.18229  0.50491  0.31929  1.0000
  C   C126      1.0  0.03730  0.80113  0.19352  1.0000
  C   C127      1.0  0.99406  0.77417  0.26943  1.0000
  Fe  Fe18      1.0  0.31825  0.87418  0.20669  1.0000
  S   S38       1.0  0.25214  0.88699  0.28417  1.0000
  H   H205      1.0  0.96177  0.83811  0.21547  1.0000
  C   C128      1.0  0.35645  0.44638  0.26580  1.0000
  C   C129      1.0  0.97000  0.41785  0.39703  1.0000
  H   H206      1.0  0.98232  0.80202  0.29507  1.0000
  C   C130      1.0  0.07735  0.81098  0.39296  1.0000
  H   H207      1.0  0.31827  0.44771  0.40330  1.0000
  Fe  Fe19      1.0  0.90395  0.58985  0.17053  1.0000
  C   C131      1.0  0.31201  0.49690  0.23134  1.0000
  S   S39       1.0  0.15841  0.80722  0.22013  1.0000
  C   C132      1.0  0.30655  0.47712  0.38692  1.0000
  H   H208      1.0  0.01467  0.66405  0.17570  1.0000
  H   H209      1.0  0.26363  0.45643  0.38165  1.0000
  Fe  Fe20      1.0  0.89080  0.54662  0.31626  1.0000
  H   H210      1.0  0.05587  0.77500  0.17631  1.0000
  C   C133      1.0  0.07611  0.57681  0.23561  1.0000
  H   H211      1.0  0.10708  0.52031  0.23268  1.0000
  H   H212      1.0  0.34591  0.55268  0.31706  1.0000
  H   H213      1.0  0.04834  0.58739  0.21629  1.0000
  H   H214      1.0  0.92073  0.75461  0.18662  1.0000
  S   S40       1.0  0.90695  0.52005  0.21715  1.0000
  C   C134      1.0  0.35466  0.51892  0.32018  1.0000
  H   H215      1.0  0.03307  0.88967  0.16643  1.0000
  H   H216      1.0  0.11539  0.71085  0.17348  1.0000
  H   H217      1.0  0.19714  0.59466  0.19429  1.0000
  C   C135      1.0  0.99580  0.85375  0.16276  1.0000
  H   H218      1.0  0.32981  0.67103  0.17035  1.0000
  C   C136      1.0  0.97377  0.46767  0.39819  1.0000
  C   C137      1.0  0.30674  0.47472  0.16676  1.0000
  H   H219      1.0  0.28656  0.43071  0.17918  1.0000
  H   H220      1.0  0.00300  0.41122  0.40569  1.0000
  H   H221      1.0  0.33751  0.73670  0.15936  1.0000
  H   H222      1.0  0.07656  0.61378  0.40537  1.0000
  H   H223      1.0  0.91583  0.41299  0.15876  1.0000
  H   H224      1.0  0.96626  0.72643  0.15915  1.0000
  Fe  Fe21      1.0  0.92801  0.87124  0.43795  1.0000
  H   H225      1.0  0.19789  0.62538  0.60748  1.0000
  H   H226      1.0  0.01993  0.54883  0.50156  1.0000
  H   H227      1.0  0.12418  0.67809  0.51704  1.0000
  H   H228      1.0  0.12518  0.81028  0.62712  1.0000
  H   H229      1.0  0.01499  0.53032  0.58654  1.0000
  H   H230      1.0  0.17995  0.65318  0.43674  1.0000
  C   C138      1.0  0.04873  0.63169  0.61047  1.0000
  C   C139      1.0  0.98658  0.79586  0.47804  1.0000
  S   S41       1.0  0.93383  0.81461  0.51056  1.0000
  H   H231      1.0  0.05879  0.64058  0.50307  1.0000
  H   H232      1.0  0.14224  0.55739  0.55599  1.0000
  H   H233      1.0  0.20502  0.50954  0.54450  1.0000
  S   S42       1.0  0.13018  0.75229  0.40939  1.0000
  C   C140      1.0  0.19470  0.50600  0.44532  1.0000
  C   C141      1.0  0.02393  0.85619  0.64265  1.0000
  H   H234      1.0  0.95045  0.73463  0.57079  1.0000
  H   H235      1.0  0.21864  0.65274  0.51782  1.0000
  C   C142      1.0  0.18226  0.63680  0.56890  1.0000
  H   H236      1.0  0.87560  0.88096  0.60569  1.0000
  H   H237      1.0  0.04491  0.86838  0.53247  1.0000
  H   H238      1.0  0.07254  0.63341  0.64557  1.0000
  C   C143      1.0  0.03277  0.82389  0.41424  1.0000
  C   C144      1.0  0.98524  0.75538  0.52049  1.0000
  H   H239      1.0  0.03939  0.66498  0.61412  1.0000
  H   H240      1.0  0.17301  0.66871  0.58431  1.0000
  C   C145      1.0  0.12803  0.58689  0.56880  1.0000
  H   H241      1.0  0.09356  0.85732  0.56167  1.0000
  H   H242      1.0  0.22716  0.43093  0.55782  1.0000
  C   C146      1.0  0.06937  0.87961  0.56773  1.0000
  H   H243      1.0  0.07017  0.48306  0.55112  1.0000
  H   H244      1.0  0.90926  0.63329  0.56501  1.0000
  C   C147      1.0  0.02896  0.74180  0.49851  1.0000
  C   C148      1.0  0.22178  0.53026  0.49067  1.0000
  H   H245      1.0  0.02694  0.70990  0.53103  1.0000
  C   C149      1.0  0.08443  0.63810  0.53420  1.0000
  H   H246      1.0  0.08209  0.50402  0.46051  1.0000
  H   H247      1.0  0.89373  0.68376  0.47798  1.0000
  H   H248      1.0  0.00638  0.59440  0.62977  1.0000
  C   C150      1.0  0.05351  0.49591  0.51516  1.0000
  H   H249      1.0  0.09623  0.56904  0.62305  1.0000
  H   H250      1.0  0.16198  0.58619  0.43833  1.0000
  H   H251      1.0  0.94122  0.63018  0.47824  1.0000
  C   C151      1.0  0.14262  0.61246  0.44660  1.0000
  H   H252      1.0  0.15632  0.46714  0.46394  1.0000
  N   N11       1.0  0.09998  0.59519  0.52030  1.0000
  H   H253      1.0  0.01044  0.46135  0.52290  1.0000
  C   C152      1.0  0.04515  0.54364  0.53158  1.0000
  H   H254      1.0  0.15685  0.88280  0.45210  1.0000
  H   H255      1.0  0.24950  0.43421  0.62995  1.0000
  C   C153      1.0  0.07515  0.76944  0.43478  1.0000
  H   H256      1.0  0.99124  0.86947  0.65139  1.0000
  C   C154      1.0  0.24341  0.41263  0.58806  1.0000
  C   C155      1.0  0.89895  0.61745  0.52071  1.0000
  H   H257      1.0  0.87585  0.57332  0.53507  1.0000
  H   H258      1.0  0.17732  0.79998  0.64882  1.0000
  H   H259      1.0  0.99908  0.81213  0.65134  1.0000
  H   H260      1.0  0.36136  0.60694  0.64047  1.0000
  H   H261      1.0  0.30241  0.49764  0.42998  1.0000
  S   S43       1.0  0.30467  0.61131  0.52259  1.0000
  H   H262      1.0  0.28766  0.42097  0.55575  1.0000
  C   C156      1.0  0.27048  0.58151  0.46638  1.0000
  H   H263      1.0  0.29586  0.54753  0.64813  1.0000
  H   H264      1.0  0.00984  0.49913  0.40677  1.0000
  H   H265      1.0  0.31143  0.56623  0.78429  1.0000
  Fe  Fe22      1.0  0.14427  0.44969  0.86494  1.0000
  H   H266      1.0  0.94796  0.50792  0.72204  1.0000
  C   C157      1.0  0.11026  0.80017  0.73817  1.0000
  H   H267      1.0  0.97701  0.69775  0.85235  1.0000
  H   H268      1.0  0.99238  0.76042  0.80785  1.0000
  H   H269      1.0  0.88748  0.79302  0.74176  1.0000
  H   H270      1.0  0.36013  0.87270  0.79398  1.0000
  H   H271      1.0  0.25015  0.86424  0.86155  1.0000
  C   C158      1.0  0.06961  0.48630  0.74648  1.0000
  N   N12       1.0  0.06901  0.75405  0.80066  1.0000
  H   H272      1.0  0.05890  0.84187  0.83477  1.0000
  H   H273      1.0  0.04456  0.86513  0.68190  1.0000
  H   H274      1.0  0.11697  0.79598  0.86378  1.0000
  C   C159      1.0  0.07138  0.77423  0.86582  1.0000
  C   C160      1.0  0.36504  0.51108  0.79694  1.0000
  H   H275      1.0  0.95636  0.43013  0.69124  1.0000
  C   C161      1.0  0.31868  0.54672  0.74085  1.0000
  C   C162      1.0  0.31654  0.45198  0.82343  1.0000
  C   C163      1.0  0.87345  0.89907  0.70842  1.0000
  S   S44       1.0  0.04873  0.41252  0.88943  1.0000
  Fe  Fe23      1.0  0.91280  0.55952  0.80595  1.0000
  C   C164      1.0  0.00699  0.73036  0.80432  1.0000
  C   C165      1.0  0.31761  0.57621  0.67696  1.0000
  H   H276      1.0  0.33431  0.47235  0.68601  1.0000
  H   H277      1.0  0.01556  0.73970  0.69438  1.0000
  C   C166      1.0  0.02951  0.44930  0.72221  1.0000
  C   C167      1.0  0.13016  0.78698  0.66688  1.0000
  C   C168      1.0  0.99419  0.70797  0.74250  1.0000
  H   H278      1.0  0.10454  0.48125  0.75194  1.0000
  H   H279      1.0  0.09173  0.55497  0.79073  1.0000
  S   S45       1.0  0.00242  0.58153  0.79912  1.0000
  C   C169      1.0  0.98661  0.45792  0.71149  1.0000
  H   H280      1.0  0.31459  0.43614  0.87503  1.0000
  H   H281      1.0  0.26011  0.63214  0.90197  1.0000
  H   H282      1.0  0.32533  0.42678  0.78887  1.0000
  H   H283      1.0  0.15093  0.82626  0.74689  1.0000
  C   C170      1.0  0.06281  0.52850  0.76776  1.0000
  H   H284      1.0  0.18105  0.76063  0.75305  1.0000
  H   H285      1.0  0.15401  0.74215  0.84702  1.0000
  S   S46       1.0  0.16111  0.42190  0.76657  1.0000
  H   H286      1.0  0.27846  0.50732  0.75841  1.0000
  H   H287      1.0  0.08074  0.69103  0.75914  1.0000
  H   H288      1.0  0.05436  0.67824  0.85007  1.0000
  C   C171      1.0  0.04688  0.81238  0.88156  1.0000
  C   C172      1.0  0.98083  0.50108  0.73092  1.0000
  C   C173      1.0  0.14748  0.72884  0.79988  1.0000
  H   H289      1.0  0.00497  0.67599  0.73379  1.0000
  C   C174      1.0  0.89944  0.81323  0.83667  1.0000
  H   H290      1.0  0.10636  0.74488  0.66495  1.0000
  C   C175      1.0  0.01693  0.53455  0.76250  1.0000
  H   H291      1.0  0.27283  0.44644  0.83125  1.0000
  H   H292      1.0  0.35657  0.53131  0.83929  1.0000
  S   S47       1.0  0.89963  0.58837  0.71405  1.0000
  H   H293      1.0  0.29331  0.59771  0.69434  1.0000
  H   H294      1.0  0.87863  0.86574  0.72768  1.0000
  H   H295      1.0  0.15486  0.69418  0.79787  1.0000
  H   H296      1.0  0.94684  0.68989  0.75440  1.0000
  H   H297      1.0  0.09114  0.82580  0.73167  1.0000
  S   S48       1.0  0.19193  0.53576  0.86724  1.0000
  C   C176      1.0  0.88270  0.77825  0.79377  1.0000
  H   H298      1.0  0.91437  0.85491  0.81914  1.0000
  C   C177      1.0  0.08519  0.71092  0.80239  1.0000
  C   C178      1.0  0.89489  0.79383  0.90305  1.0000
  C   C179      1.0  0.25812  0.88303  0.90508  1.0000
  Fe  Fe24      1.0  0.71813  0.99429  0.96642  1.0000
  H   H299      1.0  0.44743  0.18907  0.07534  1.0000
  H   H300      1.0  0.40085  0.00244  0.05556  1.0000
  H   H301      1.0  0.85611  0.32731  0.02129  1.0000
  H   H302      1.0  0.43802  0.98335  0.94294  1.0000
  C   C180      1.0  0.53969  0.40845  0.98014  1.0000
  H   H303      1.0  0.74868  0.02116  0.12337  1.0000
  N   N13       1.0  0.55155  0.36668  0.95122  1.0000
  H   H304      1.0  0.64374  0.91193  0.92195  1.0000
  C   C181      1.0  0.45096  0.31914  0.94013  1.0000
  C   C182      1.0  0.42780  0.94219  0.93939  1.0000
  H   H305      1.0  0.77111  0.32191  0.07169  1.0000
  H   H306      1.0  0.48873  0.30891  0.04798  1.0000
  C   C183      1.0  0.80179  0.21029  0.13222  1.0000
  H   H307      1.0  0.61595  0.10552  0.95091  1.0000
  H   H308      1.0  0.82970  0.18656  0.97011  1.0000
  H   H309      1.0  0.45826  0.14167  0.03172  1.0000
  Fe  Fe25      1.0  0.72443  0.09654  0.00123  1.0000
  H   H310      1.0  0.51642  0.19276  0.05224  1.0000
  C   C184      1.0  0.40056  0.02527  0.09648  1.0000
  C   C185      1.0  0.46333  0.05816  0.09396  1.0000
  H   H311      1.0  0.53410  0.96127  0.14797  1.0000
  S   S49       1.0  0.64985  0.01588  0.01434  1.0000
  C   C186      1.0  0.61532  0.39258  0.90720  1.0000
  H   H312      1.0  0.38999  0.91250  0.98516  1.0000
  H   H313      1.0  0.43149  0.28614  0.98628  1.0000
  S   S50       1.0  0.72093  0.13921  0.08728  1.0000
  H   H314      1.0  0.81884  0.98795  0.11936  1.0000
  H   H315      1.0  0.55852  0.14986  0.07974  1.0000
  C   C187      1.0  0.53364  0.32250  0.01119  1.0000
  H   H316      1.0  0.83521  0.36577  0.11846  1.0000
  N   N14       1.0  0.47083  0.09108  0.14729  1.0000
  C   C188      1.0  0.46899  0.16448  0.07113  1.0000
  C   C189      1.0  0.79279  0.94366  0.13400  1.0000
  H   H317      1.0  0.62011  0.31798  0.91689  1.0000
  C   C190      1.0  0.59210  0.11190  0.92189  1.0000
  H   H318      1.0  0.77422  0.93295  0.09301  1.0000
  H   H319      1.0  0.56870  0.36681  0.08355  1.0000
  H   H320      1.0  0.61784  0.34934  0.02519  1.0000
  H   H321      1.0  0.60079  0.18352  0.95477  1.0000
  H   H322      1.0  0.49460  0.39059  0.01812  1.0000
  C   C191      1.0  0.58254  0.15534  0.92526  1.0000
  H   H323      1.0  0.38215  0.05056  0.08599  1.0000
  H   H324      1.0  0.49074  0.08342  0.04051  1.0000
  H   H325      1.0  0.37159  0.99571  0.14677  1.0000
  H   H326      1.0  0.75514  0.33156  0.99523  1.0000
  S   S51       1.0  0.70553  0.91570  0.01359  1.0000
  H   H327      1.0  0.43870  0.34967  0.95410  1.0000
  H   H328      1.0  0.53134  0.28646  0.99321  1.0000
  C   C192      1.0  0.82317  0.40572  0.00531  1.0000
  S   S52       1.0  0.79264  0.07301  0.96131  1.0000
  C   C193      1.0  0.83765  0.20322  0.01356  1.0000
  C   C194      1.0  0.79142  0.18779  0.07666  1.0000
  C   C195      1.0  0.83656  0.92352  0.12629  1.0000
  H   H329      1.0  0.55533  0.30019  0.09615  1.0000
  S   S53       1.0  0.38533  0.32270  0.11136  1.0000
  H   H330      1.0  0.47940  0.02967  0.09907  1.0000
  C   C196      1.0  0.76785  0.35013  0.03702  1.0000
  H   H331      1.0  0.73084  0.35495  0.06834  1.0000
  H   H332      1.0  0.86833  0.93912  0.07183  1.0000
  C   C197      1.0  0.57174  0.33633  0.05574  1.0000
  C   C198      1.0  0.44661  0.12801  0.14319  1.0000
  H   H333      1.0  0.46577  0.93910  0.94188  1.0000
  C   C199      1.0  0.85864  0.24688  0.12546  1.0000
  H   H334      1.0  0.58980  0.08979  0.08559  1.0000
  H   H335      1.0  0.39639  0.04407  0.91420  1.0000
  C   C200      1.0  0.53497  0.12383  0.13307  1.0000
  C   C201      1.0  0.56670  0.09221  0.13815  1.0000
  H   H336      1.0  0.71182  0.96608  0.32595  1.0000
  C   C202      1.0  0.69813  0.30191  0.21635  1.0000
  H   H337      1.0  0.55538  0.12314  0.39523  1.0000
  H   H338      1.0  0.80792  0.98668  0.23759  1.0000
  H   H339      1.0  0.67695  0.40643  0.24675  1.0000
  H   H340      1.0  0.63618  0.22864  0.20226  1.0000
  H   H341      1.0  0.61016  0.14790  0.31026  1.0000
  Fe  Fe26      1.0  0.39819  0.30146  0.35047  1.0000
  H   H342      1.0  0.65896  0.17891  0.39105  1.0000
  C   C203      1.0  0.45176  0.08040  0.27893  1.0000
  H   H343      1.0  0.53804  0.05116  0.17066  1.0000
  H   H344      1.0  0.49734  0.09405  0.27426  1.0000
  C   C204      1.0  0.77250  0.94443  0.25750  1.0000
  C   C205      1.0  0.58861  0.16008  0.35475  1.0000
  H   H345      1.0  0.73075  0.28988  0.20916  1.0000
  S   S54       1.0  0.46421  0.33025  0.24127  1.0000
  S   S55       1.0  0.39966  0.22517  0.37079  1.0000
  H   H346      1.0  0.75457  0.95188  0.36483  1.0000
  C   C206      1.0  0.73256  0.00665  0.18071  1.0000
  H   H347      1.0  0.76874  0.02824  0.19875  1.0000
  H   H348      1.0  0.66752  0.23247  0.33469  1.0000
  H   H349      1.0  0.68571  0.93075  0.16136  1.0000
  H   H350      1.0  0.44562  0.01994  0.22157  1.0000
  H   H351      1.0  0.59926  0.11275  0.16216  1.0000
  H   H352      1.0  0.39825  0.10544  0.16160  1.0000
  H   H353      1.0  0.79445  0.92222  0.26766  1.0000
  H   H354      1.0  0.44282  0.11396  0.28249  1.0000
  H   H355      1.0  0.86673  0.26373  0.16883  1.0000
  H   H356      1.0  0.76602  0.19868  0.18084  1.0000
  S   S56       1.0  0.38783  0.21095  0.21945  1.0000
  S   S57       1.0  0.53240  0.23299  0.22880  1.0000
  H   H357      1.0  0.69929  0.01799  0.20549  1.0000
  C   C207      1.0  0.60108  0.28113  0.22513  1.0000
  H   H358      1.0  0.56772  0.17936  0.33480  1.0000
  Fe  Fe27      1.0  0.38697  0.28798  0.21023  1.0000
  H   H359      1.0  0.66610  0.92916  0.24992  1.0000
  C   C208      1.0  0.73032  0.93952  0.32920  1.0000
  H   H360      1.0  0.37731  0.38930  0.21965  1.0000
  H   H361      1.0  0.70127  0.33149  0.39829  1.0000
  H   H362      1.0  0.61743  0.27791  0.36690  1.0000
  H   H363      1.0  0.42327  0.05016  0.32898  1.0000
  C   C209      1.0  0.63509  0.19882  0.38021  1.0000
  C   C210      1.0  0.64450  0.26713  0.21277  1.0000
  H   H364      1.0  0.60689  0.39716  0.36988  1.0000
  S   S58       1.0  0.77467  0.38979  0.24291  1.0000
  H   H365      1.0  0.45651  0.15487  0.17887  1.0000
  C   C211      1.0  0.66745  0.36728  0.23852  1.0000
  Fe  Fe28      1.0  0.45968  0.25123  0.25958  1.0000
  H   H366      1.0  0.84685  0.35585  0.36137  1.0000
  C   C212      1.0  0.43825  0.05449  0.21909  1.0000
  C   C213      1.0  0.70941  0.35154  0.23045  1.0000
  H   H367      1.0  0.54386  0.15268  0.16668  1.0000
  H   H368      1.0  0.39042  0.03621  0.23288  1.0000
  H   H369      1.0  0.57956  0.34299  0.24520  1.0000
  C   C214      1.0  0.61265  0.33158  0.23702  1.0000
  N   N15       1.0  0.74527  0.92460  0.20463  1.0000
  C   C215      1.0  0.70493  0.94540  0.20093  1.0000
  H   H370      1.0  0.73720  0.29514  0.36147  1.0000
  H   H371      1.0  0.58941  0.92640  0.18727  1.0000
  S   S59       1.0  0.41386  0.92266  0.18241  1.0000
  C   C216      1.0  0.51103  0.92440  0.18731  1.0000
  H   H372      1.0  0.86178  0.93805  0.16040  1.0000
  H   H373      1.0  0.74844  0.32258  0.43358  1.0000
  H   H374      1.0  0.74936  0.24611  0.65307  1.0000
  C   C217      1.0  0.77564  0.05451  0.59597  1.0000
  Fe  Fe29      1.0  0.85359  0.92475  0.45398  1.0000
  H   H375      1.0  0.48247  0.40280  0.48876  1.0000
  H   H376      1.0  0.54523  0.10139  0.57173  1.0000
  H   H377      1.0  0.37753  0.99148  0.63111  1.0000
  H   H378      1.0  0.74495  0.39396  0.48301  1.0000
  N   N16       1.0  0.61390  0.21902  0.44179  1.0000
  H   H379      1.0  0.50469  0.35248  0.56833  1.0000
  H   H380      1.0  0.52773  0.14913  0.49199  1.0000
  H   H381      1.0  0.60157  0.11797  0.49058  1.0000
  H   H382      1.0  0.37316  0.15869  0.50922  1.0000
  Fe  Fe30      1.0  0.54625  0.28182  0.65518  1.0000
  C   C218      1.0  0.56713  0.17404  0.50347  1.0000
  H   H383      1.0  0.51027  0.19582  0.41275  1.0000
  C   C219      1.0  0.73875  0.39927  0.53547  1.0000
  C   C220      1.0  0.52274  0.40004  0.46741  1.0000
  H   H384      1.0  0.47348  0.31495  0.51217  1.0000
  C   C221      1.0  0.84651  0.33642  0.57318  1.0000
  H   H385      1.0  0.68509  0.22680  0.47308  1.0000
  H   H386      1.0  0.55206  0.19041  0.54765  1.0000
  S   S60       1.0  0.39213  0.34664  0.43426  1.0000
  C   C222      1.0  0.82242  0.07655  0.52189  1.0000
  S   S61       1.0  0.45718  0.23396  0.65229  1.0000
  H   H387      1.0  0.79104  0.04386  0.63510  1.0000
  H   H388      1.0  0.84301  0.15856  0.58509  1.0000
  S   S62       1.0  0.78353  0.93026  0.53522  1.0000
  C   C223      1.0  0.52709  0.23089  0.43493  1.0000
  H   H389      1.0  0.60078  0.28713  0.45259  1.0000
  C   C224      1.0  0.59257  0.25577  0.42239  1.0000
  H   H390      1.0  0.80795  0.32988  0.56052  1.0000
  H   H391      1.0  0.61586  0.15450  0.55722  1.0000
  C   C225      1.0  0.66484  0.25070  0.46323  1.0000
  C   C226      1.0  0.68270  0.37752  0.58533  1.0000
  H   H392      1.0  0.37611  0.23001  0.56778  1.0000
  C   C227      1.0  0.51264  0.35008  0.51332  1.0000
  H   H393      1.0  0.38244  0.30920  0.58112  1.0000
  H   H394      1.0  0.85278  0.17844  0.49680  1.0000
  H   H395      1.0  0.80476  0.08898  0.48655  1.0000
  H   H396      1.0  0.75998  0.08264  0.61174  1.0000
  C   C228      1.0  0.71515  0.30267  0.41041  1.0000
  S   S63       1.0  0.62262  0.34042  0.56249  1.0000
  H   H397      1.0  0.50074  0.21964  0.49138  1.0000
  H   H398      1.0  0.73731  0.01732  0.59691  1.0000
  H   H399      1.0  0.85631  0.30426  0.56121  1.0000
  H   H400      1.0  0.52303  0.39138  0.41606  1.0000
  H   H401      1.0  0.82512  0.04201  0.50517  1.0000
  H   H402      1.0  0.54902  0.34202  0.49345  1.0000
  H   H403      1.0  0.65008  0.26154  0.51316  1.0000
  C   C229      1.0  0.58443  0.13534  0.53138  1.0000
  H   H404      1.0  0.83258  0.24004  0.64749  1.0000
  C   C230      1.0  0.67519  0.38597  0.65261  1.0000
  C   C231      1.0  0.83750  0.34219  0.64887  1.0000
  H   H405      1.0  0.51986  0.26114  0.40999  1.0000
  H   H406      1.0  0.65282  0.38900  0.40865  1.0000
  H   H407      1.0  0.43087  0.30173  0.90242  1.0000
  H   H408      1.0  0.79090  0.27000  0.81409  1.0000
  H   H409      1.0  0.53284  0.37341  0.85749  1.0000
  C   C232      1.0  0.44872  0.36720  0.74096  1.0000
  C   C233      1.0  0.80530  0.30543  0.77331  1.0000
  C   C234      1.0  0.57100  0.07707  0.88077  1.0000
  C   C235      1.0  0.76642  0.33004  0.80178  1.0000
  N   N17       1.0  0.37060  0.93144  0.85670  1.0000
  H   H410      1.0  0.46344  0.96233  0.82928  1.0000
  C   C236      1.0  0.53798  0.08404  0.84578  1.0000
  C   C237      1.0  0.74701  0.25763  0.70372  1.0000
  H   H411      1.0  0.78112  0.36839  0.76701  1.0000
  C   C238      1.0  0.52695  0.12645  0.85079  1.0000
  C   C239      1.0  0.80797  0.93524  0.71861  1.0000
  H   H412      1.0  0.71986  0.30239  0.81204  1.0000
  H   H413      1.0  0.75100  0.96915  0.73204  1.0000
  Fe  Fe31      1.0  0.79449  0.09925  0.85560  1.0000
  H   H414      1.0  0.76918  0.33887  0.85238  1.0000
  H   H415      1.0  0.72358  0.28069  0.70769  1.0000
  S   S64       1.0  0.58807  0.02641  0.87015  1.0000
  H   H416      1.0  0.62796  0.34535  0.83116  1.0000
  H   H417      1.0  0.52242  0.05763  0.81323  1.0000
  H   H418      1.0  0.50115  0.13143  0.82387  1.0000
  S   S65       1.0  0.55000  0.21169  0.69858  1.0000
  C   C240      1.0  0.42141  0.93145  0.86974  1.0000
  H   H419      1.0  0.41902  0.93625  0.67748  1.0000
  H   H420      1.0  0.72500  0.17739  0.75432  1.0000
  C   C241      1.0  0.63776  0.35528  0.87834  1.0000
  H   H421      1.0  0.84217  0.97102  0.72732  1.0000
  Fe  Fe32      1.0  0.42509  0.24340  0.76106  1.0000
  S   S66       1.0  0.51438  0.29717  0.75908  1.0000
  H   H422      1.0  0.84967  0.35399  0.90534  1.0000
  H   H423      1.0  0.68556  0.37536  0.86520  1.0000
  C   C242      1.0  0.55025  0.16268  0.88931  1.0000
  H   H424      1.0  0.46134  0.34906  0.69995  1.0000
  H   H425      1.0  0.52477  0.31091  0.88840  1.0000
  C   C243      1.0  0.70772  0.20536  0.76074  1.0000
  Fe  Fe33      1.0  0.51004  0.22266  0.80313  1.0000
  C   C244      1.0  0.82207  0.91020  0.85440  1.0000
  H   H426      1.0  0.70086  0.21237  0.81386  1.0000
  H   H427      1.0  0.42241  0.01707  0.81675  1.0000
  C   C245      1.0  0.38118  0.36048  0.85171  1.0000
  H   H428      1.0  0.46238  0.94095  0.72777  1.0000
  S   S67       1.0  0.73174  0.12850  0.89529  1.0000
  N   N18       1.0  0.80728  0.29133  0.70400  1.0000
  S   S68       1.0  0.54057  0.21800  0.89013  1.0000
  C   C246      1.0  0.37688  0.98634  0.84950  1.0000
  C   C247      1.0  0.42711  0.94841  0.72472  1.0000
  H   H429      1.0  0.44216  0.99166  0.71645  1.0000
  S   S69       1.0  0.41847  0.16907  0.81218  1.0000
  Fe  Fe34      1.0  0.66260  0.04546  0.90494  1.0000
  H   H430      1.0  0.81991  0.94714  0.84441  1.0000
  S   S70       1.0  0.72610  0.01867  0.85704  1.0000
  H   H431      1.0  0.66409  0.18494  0.75677  1.0000
  Fe  Fe35      1.0  0.45864  0.16423  0.70337  1.0000
  H   H432      1.0  0.84972  0.33467  0.77041  1.0000
  H   H433      1.0  0.86797  0.91989  0.84077  1.0000
  C   C248      1.0  0.39769  0.33648  0.79913  1.0000
  C   C249      1.0  0.74929  0.93248  0.75490  1.0000
  H   H434      1.0  0.63214  0.37016  0.69097  1.0000
  C   C250      1.0  0.83933  0.26035  0.69036  1.0000
  H   H435      1.0  0.82161  0.22726  0.73633  1.0000
  H   H436      1.0  0.74030  0.93080  0.81090  1.0000
  H   H437      1.0  0.81680  0.94409  0.66194  1.0000
  H   H438      1.0  0.86732  0.05783  0.83034  1.0000
  C   C251      1.0  0.37033  0.91504  0.78887  1.0000
  C   C252      1.0  0.51742  0.34339  0.90594  1.0000
  S   S71       1.0  0.43877  0.09093  0.66269  1.0000
  H   H439      1.0  0.81187  0.36305  0.65868  1.0000
  H   H440      1.0  0.79399  0.69810  0.08613  1.0000
  H   H441      1.0  0.54175  0.77577  0.03490  1.0000
  C   C253      1.0  0.53972  0.77986  0.13800  1.0000
  H   H442      1.0  0.82957  0.41709  0.95002  1.0000
  S   S72       1.0  0.51124  0.63601  0.00712  1.0000
  C   C254      1.0  0.47169  0.81578  0.07576  1.0000
  C   C255      1.0  0.78620  0.76635  0.10907  1.0000
  H   H443      1.0  0.39678  0.82667  0.12487  1.0000
  S   S73       1.0  0.44969  0.51420  0.98418  1.0000
  N   N19       1.0  0.70174  0.67186  0.11945  1.0000
  Fe  Fe36      1.0  0.53071  0.56913  0.00205  1.0000
  H   H444      1.0  0.42666  0.53078  0.14849  1.0000
  H   H445      1.0  0.41675  0.68400  0.06501  1.0000
  H   H446      1.0  0.78690  0.78352  0.05937  1.0000
  H   H447      1.0  0.72139  0.84160  0.12546  1.0000
  C   C256      1.0  0.50875  0.75510  0.08813  1.0000
  C   C257      1.0  0.54944  0.45434  0.92652  1.0000
  C   C258      1.0  0.64208  0.54027  0.00140  1.0000
  H   H448      1.0  0.50983  0.83727  0.02591  1.0000
  C   C259      1.0  0.67946  0.48343  0.02892  1.0000
  H   H449      1.0  0.64310  0.41730  0.93428  1.0000
  H   H450      1.0  0.64295  0.74081  0.95917  1.0000
  H   H451      1.0  0.83184  0.78554  0.10669  1.0000
  H   H452      1.0  0.66538  0.63523  0.04449  1.0000
  C   C260      1.0  0.64454  0.87512  0.92960  1.0000
  N   N20       1.0  0.45433  0.75789  0.09558  1.0000
  C   C261      1.0  0.42766  0.72592  0.04861  1.0000
  H   H453      1.0  0.68124  0.73619  0.12618  1.0000
  H   H454      1.0  0.81517  0.87952  0.13660  1.0000
  H   H455      1.0  0.49925  0.71303  0.09535  1.0000
  C   C262      1.0  0.70680  0.66704  0.04600  1.0000
  H   H456      1.0  0.50280  0.73821  0.95889  1.0000
  C   C263      1.0  0.46537  0.74529  0.97038  1.0000
  C   C264      1.0  0.42393  0.82818  0.07229  1.0000
  H   H457      1.0  0.48817  0.83720  0.11386  1.0000
  H   H458      1.0  0.80035  0.89321  0.91148  1.0000
  H   H459      1.0  0.55809  0.82369  0.12750  1.0000
  C   C265      1.0  0.76118  0.70549  0.12281  1.0000
  H   H460      1.0  0.47739  0.62466  0.15167  1.0000
  H   H461      1.0  0.63678  0.43513  0.13362  1.0000
  C   C266      1.0  0.59880  0.48338  0.11677  1.0000
  C   C267      1.0  0.59961  0.52004  0.06827  1.0000
  H   H462      1.0  0.68263  0.80807  0.02638  1.0000
  C   C268      1.0  0.63867  0.46490  0.09697  1.0000
  H   H463      1.0  0.60534  0.67140  0.08843  1.0000
  S   S74       1.0  0.54778  0.54066  0.09182  1.0000
  H   H464      1.0  0.57702  0.77275  0.12957  1.0000
  H   H465      1.0  0.44498  0.86903  0.03968  1.0000
  C   C269      1.0  0.72631  0.71771  0.99310  1.0000
  C   C270      1.0  0.60179  0.66608  0.14347  1.0000
  H   H466      1.0  0.70950  0.70617  0.95079  1.0000
  H   H467      1.0  0.77416  0.74216  0.96981  1.0000
  C   C271      1.0  0.66562  0.81600  0.98901  1.0000
  H   H468      1.0  0.56743  0.42707  0.01036  1.0000
  C   C272      1.0  0.71287  0.58938  0.14736  1.0000
  C   C273      1.0  0.66191  0.69356  0.15022  1.0000
  H   H469      1.0  0.73848  0.65346  0.02342  1.0000
  H   H470      1.0  0.48067  0.78777  0.94971  1.0000
  H   H471      1.0  0.43890  0.72157  0.94120  1.0000
  H   H472      1.0  0.70872  0.74276  0.01538  1.0000
  H   H473      1.0  0.64399  0.56964  0.96434  1.0000
  C   C274      1.0  0.68243  0.52256  0.98216  1.0000
  H   H474      1.0  0.76229  0.77750  0.15252  1.0000
  H   H475      1.0  0.85874  0.43443  0.10799  1.0000
  H   H476      1.0  0.72242  0.58352  0.09364  1.0000
  H   H477      1.0  0.81263  0.43454  0.03052  1.0000
  H   H478      1.0  0.38562  0.72339  0.05313  1.0000
  C   C275      1.0  0.66819  0.86526  0.97614  1.0000
  C   C276      1.0  0.64346  0.77826  0.95121  1.0000
  H   H479      1.0  0.71513  0.53868  0.93059  1.0000
  Fe  Fe37      1.0  0.43405  0.58368  0.98219  1.0000
  S   S75       1.0  0.72339  0.45487  0.00009  1.0000
  H   H480      1.0  0.53926  0.48186  0.95505  1.0000
  H   H481      1.0  0.39594  0.80212  0.04662  1.0000
  C   C277      1.0  0.83734  0.75173  0.30457  1.0000
  H   H482      1.0  0.42829  0.61424  0.23512  1.0000
  S   S76       1.0  0.52718  0.59587  0.31730  1.0000
  C   C278      1.0  0.74669  0.73657  0.29488  1.0000
  C   C279      1.0  0.54237  0.90467  0.20967  1.0000
  C   C280      1.0  0.75964  0.66163  0.32442  1.0000
  H   H483      1.0  0.68148  0.44679  0.34253  1.0000
  C   C281      1.0  0.42058  0.84835  0.26502  1.0000
  H   H484      1.0  0.39607  0.53472  0.32978  1.0000
  H   H485      1.0  0.84284  0.68151  0.33020  1.0000
  Fe  Fe38      1.0  0.79957  0.56917  0.29443  1.0000
  H   H486      1.0  0.57396  0.45375  0.32172  1.0000
  H   H487      1.0  0.45444  0.54098  0.21607  1.0000
  H   H488      1.0  0.37514  0.44327  0.30525  1.0000
  H   H489      1.0  0.85393  0.44383  0.36217  1.0000
  H   H490      1.0  0.73631  0.84765  0.23950  1.0000
  H   H491      1.0  0.60248  0.52397  0.29978  1.0000
  C   C282      1.0  0.45224  0.82885  0.28840  1.0000
  C   C283      1.0  0.45026  0.89630  0.21446  1.0000
  C   C284      1.0  0.41938  0.54086  0.20003  1.0000
  H   H492      1.0  0.64803  0.50015  0.31232  1.0000
  H   H493      1.0  0.65964  0.79235  0.19808  1.0000
  C   C285      1.0  0.49144  0.49372  0.30593  1.0000
  Fe  Fe39      1.0  0.50275  0.64743  0.38015  1.0000
  S   S77       1.0  0.79417  0.49768  0.35158  1.0000
  Fe  Fe40      1.0  0.80994  0.47523  0.24915  1.0000
  S   S78       1.0  0.56918  0.72826  0.38213  1.0000
  H   H494      1.0  0.67223  0.85124  0.27541  1.0000
  C   C286      1.0  0.51325  0.85698  0.26014  1.0000
  C   C287      1.0  0.42534  0.41558  0.40104  1.0000
  C   C288      1.0  0.80379  0.77166  0.28853  1.0000
  S   S79       1.0  0.80783  0.54298  0.19370  1.0000
  H   H495      1.0  0.56628  0.46802  0.16886  1.0000
  C   C289      1.0  0.67532  0.61666  0.16387  1.0000
  C   C290      1.0  0.71049  0.86454  0.22653  1.0000
  H   H496      1.0  0.52049  0.51109  0.25203  1.0000
  H   H497      1.0  0.66493  0.61736  0.21997  1.0000
  S   S80       1.0  0.44792  0.67661  0.35148  1.0000
  S   S81       1.0  0.55507  0.83343  0.28429  1.0000
  H   H498      1.0  0.37351  0.82662  0.28631  1.0000
  C   C291      1.0  0.81611  0.69673  0.31996  1.0000
  C   C292      1.0  0.72403  0.68147  0.31486  1.0000
  S   S82       1.0  0.83409  0.84016  0.25809  1.0000
  H   H499      1.0  0.65471  0.69172  0.20652  1.0000
  Fe  Fe41      1.0  0.50999  0.75596  0.36283  1.0000
  C   C293      1.0  0.43165  0.59887  0.18737  1.0000
  S   S83       1.0  0.73299  0.59296  0.34181  1.0000
  C   C294      1.0  0.48491  0.52665  0.35010  1.0000
  C   C295      1.0  0.60249  0.49179  0.33188  1.0000
  H   H500      1.0  0.71980  0.75188  0.28507  1.0000
  C   C296      1.0  0.46193  0.43845  0.33136  1.0000
  H   H501      1.0  0.67959  0.65431  0.32060  1.0000
  H   H502      1.0  0.42961  0.79199  0.32763  1.0000
  H   H503      1.0  0.69456  0.89793  0.35362  1.0000
  H   H504      1.0  0.76121  0.69386  0.17500  1.0000
  C   C297      1.0  0.68633  0.83571  0.17390  1.0000
  H   H505      1.0  0.42491  0.76246  0.20314  1.0000
  H   H506      1.0  0.68833  0.54907  0.18255  1.0000
  C   C298      1.0  0.38867  0.43139  0.20366  1.0000
  H   H507      1.0  0.46851  0.41394  0.29686  1.0000
  H   H508      1.0  0.41726  0.69958  0.19300  1.0000
  H   H509      1.0  0.51118  0.76154  0.19347  1.0000
  H   H510      1.0  0.57612  0.68432  0.17007  1.0000
  H   H511      1.0  0.43651  0.45555  0.18859  1.0000
  H   H512      1.0  0.57629  0.62315  0.16899  1.0000
  C   C299      1.0  0.64259  0.41861  0.38857  1.0000
  H   H513      1.0  0.40332  0.60367  0.16249  1.0000
  H   H514      1.0  0.65698  0.84766  0.16097  1.0000
  C   C300      1.0  0.41324  0.73318  0.17061  1.0000
  H   H515      1.0  0.63314  0.58895  0.15993  1.0000
  H   H516      1.0  0.75396  0.61121  0.15675  1.0000
  H   H517      1.0  0.37723  0.43489  0.15753  1.0000
  C   C301      1.0  0.65358  0.80552  0.50203  1.0000
  H   H518      1.0  0.38239  0.53328  0.62332  1.0000
  H   H519      1.0  0.38917  0.43087  0.49927  1.0000
  H   H520      1.0  0.66881  0.48921  0.42851  1.0000
  H   H521      1.0  0.46896  0.53393  0.64128  1.0000
  C   C302      1.0  0.77770  0.64519  0.50634  1.0000
  C   C303      1.0  0.86539  0.63971  0.49401  1.0000
  C   C304      1.0  0.61984  0.80545  0.62409  1.0000
  H   H522      1.0  0.79250  0.71972  0.54071  1.0000
  H   H523      1.0  0.59653  0.52169  0.59304  1.0000
  C   C305      1.0  0.44662  0.50385  0.41951  1.0000
  H   H524      1.0  0.78283  0.63494  0.45488  1.0000
  C   C306      1.0  0.81151  0.64869  0.60573  1.0000
  H   H525      1.0  0.78329  0.54913  0.60544  1.0000
  C   C307      1.0  0.71635  0.87428  0.54710  1.0000
  S   S84       1.0  0.54398  0.72372  0.58463  1.0000
  H   H526      1.0  0.72974  0.62543  0.53397  1.0000
  H   H527      1.0  0.84871  0.72854  0.46067  1.0000
  H   H528      1.0  0.44126  0.52900  0.45394  1.0000
  S   S85       1.0  0.84102  0.47310  0.64071  1.0000
  C   C308      1.0  0.61011  0.78234  0.56861  1.0000
  H   H529      1.0  0.72277  0.55436  0.60320  1.0000
  C   C309      1.0  0.56160  0.46548  0.53190  1.0000
  H   H530      1.0  0.65136  0.52865  0.51493  1.0000
  C   C310      1.0  0.76796  0.56514  0.57030  1.0000
  H   H531      1.0  0.64667  0.78753  0.45916  1.0000
  C   C311      1.0  0.67235  0.85185  0.61310  1.0000
  C   C312      1.0  0.78720  0.42830  0.55326  1.0000
  N   N21       1.0  0.57524  0.45181  0.46179  1.0000
  C   C313      1.0  0.63031  0.44861  0.44507  1.0000
  C   C314      1.0  0.58231  0.49474  0.40861  1.0000
  C   C315      1.0  0.60598  0.52045  0.53732  1.0000
  H   H532      1.0  0.55783  0.43560  0.57248  1.0000
  N   N22       1.0  0.80563  0.62469  0.54421  1.0000
  S   S86       1.0  0.45248  0.62524  0.49442  1.0000
  H   H533      1.0  0.63182  0.43019  0.49264  1.0000
  C   C316      1.0  0.76319  0.53336  0.51339  1.0000
  H   H534      1.0  0.84343  0.69221  0.58929  1.0000
  H   H535      1.0  0.60208  0.55316  0.51262  1.0000
  H   H536      1.0  0.44175  0.61202  0.65054  1.0000
  H   H537      1.0  0.74092  0.86796  0.44040  1.0000
  H   H538      1.0  0.80407  0.53264  0.48767  1.0000
  H   H539      1.0  0.72817  0.49152  0.53784  1.0000
  H   H540      1.0  0.54102  0.49571  0.42133  1.0000
  C   C317      1.0  0.41720  0.44830  0.44512  1.0000
  H   H541      1.0  0.42589  0.47683  0.61430  1.0000
  H   H542      1.0  0.51862  0.46393  0.54900  1.0000
  H   H543      1.0  0.86327  0.62696  0.44484  1.0000
  H   H544      1.0  0.83062  0.44482  0.51470  1.0000
  Fe  Fe42      1.0  0.51424  0.70863  0.49472  1.0000
  C   C318      1.0  0.77969  0.43715  0.62017  1.0000
  C   C319      1.0  0.70703  0.85100  0.49152  1.0000
  S   S87       1.0  0.83801  0.84417  0.44037  1.0000
  Fe  Fe43      1.0  0.40140  0.65958  0.46670  1.0000
  H   H545      1.0  0.75162  0.54864  0.47341  1.0000
  C   C320      1.0  0.80146  0.70589  0.49207  1.0000
  S   S88       1.0  0.45906  0.74155  0.47591  1.0000
  H   H546      1.0  0.77907  0.71607  0.46187  1.0000
  H   H547      1.0  0.61463  0.53480  0.40973  1.0000
  H   H548      1.0  0.71910  0.63166  0.64109  1.0000
  H   H549      1.0  0.83069  0.63219  0.63420  1.0000
  H   H550      1.0  0.40636  0.51214  0.79355  1.0000
  C   C321      1.0  0.85938  0.72366  0.81790  1.0000
  S   S89       1.0  0.51501  0.51311  0.77966  1.0000
  H   H551      1.0  0.74340  0.85440  0.84146  1.0000
  Fe  Fe44      1.0  0.55979  0.66354  0.89271  1.0000
  S   S90       1.0  0.58728  0.60169  0.88873  1.0000
  Fe  Fe45      1.0  0.50483  0.55098  0.87063  1.0000
  H   H552      1.0  0.71799  0.42321  0.72166  1.0000
  C   C322      1.0  0.77232  0.84180  0.71316  1.0000
  H   H553      1.0  0.82000  0.79736  0.68556  1.0000
  H   H554      1.0  0.40504  0.43319  0.88820  1.0000
  C   C323      1.0  0.75414  0.63925  0.66110  1.0000
  H   H555      1.0  0.52414  0.44456  0.69182  1.0000
  C   C324      1.0  0.62575  0.79079  0.89927  1.0000
  Fe  Fe46      1.0  0.83490  0.60344  0.78924  1.0000
  H   H556      1.0  0.76237  0.67540  0.68192  1.0000
  C   C325      1.0  0.46889  0.44505  0.78939  1.0000
  N   N23       1.0  0.81107  0.88610  0.73941  1.0000
  H   H557      1.0  0.41979  0.89252  0.86622  1.0000
  H   H558      1.0  0.59532  0.47833  0.89028  1.0000
  C   C326      1.0  0.85386  0.70412  0.88479  1.0000
  C   C327      1.0  0.72375  0.41632  0.66990  1.0000
  H   H559      1.0  0.40115  0.62039  0.80365  1.0000
  H   H560      1.0  0.79516  0.83342  0.83198  1.0000
  Fe  Fe47      1.0  0.78338  0.49955  0.89092  1.0000
  H   H561      1.0  0.39793  0.65313  0.72899  1.0000
  H   H562      1.0  0.60963  0.84762  0.85075  1.0000
  C   C328      1.0  0.37586  0.51035  0.67337  1.0000
  C   C329      1.0  0.42207  0.63636  0.74657  1.0000
  H   H563      1.0  0.52008  0.44021  0.89706  1.0000
  H   H564      1.0  0.62629  0.42199  0.86050  1.0000
  H   H565      1.0  0.41992  0.47021  0.70292  1.0000
  H   H566      1.0  0.74416  0.76064  0.70154  1.0000
  H   H567      1.0  0.71265  0.89836  0.74795  1.0000
  S   S91       1.0  0.48128  0.61539  0.86738  1.0000
  S   S92       1.0  0.76048  0.52216  0.80241  1.0000
  C   C330      1.0  0.41718  0.41482  0.84716  1.0000
  H   H568      1.0  0.46306  0.59008  0.71260  1.0000
  H   H569      1.0  0.76685  0.77225  0.77359  1.0000
  C   C331      1.0  0.79051  0.86839  0.81728  1.0000
  S   S93       1.0  0.83756  0.68110  0.76323  1.0000
  S   S94       1.0  0.61102  0.75023  0.84104  1.0000
  C   C332      1.0  0.42631  0.59417  0.70692  1.0000
  S   S95       1.0  0.85457  0.58136  0.87992  1.0000
  C   C333      1.0  0.77687  0.79058  0.71929  1.0000
  H   H570      1.0  0.72576  0.82899  0.74169  1.0000
  C   C334      1.0  0.62455  0.83843  0.88997  1.0000
  S   S96       1.0  0.84356  0.47499  0.82542  1.0000
  H   H571      1.0  0.73736  0.60510  0.70497  1.0000
  C   C335      1.0  0.48416  0.42123  0.73622  1.0000
  H   H572      1.0  0.46659  0.67004  0.73522  1.0000
  C   C336      1.0  0.42577  0.49743  0.65770  1.0000
  Fe  Fe48      1.0  0.82795  0.50497  0.73576  1.0000
  H   H573      1.0  0.58664  0.78740  0.67580  1.0000
  N   N24       1.0  0.37150  0.54055  0.72933  1.0000
  H   H574      1.0  0.83335  0.66194  0.90527  1.0000
  H   H575      1.0  0.78009  0.85573  0.65772  1.0000
  H   H576      1.0  0.67923  0.86936  0.65627  1.0000
