data_image0
_chemical_formula_structural       SFeC2H2CSFeS2FeC3SC2SH2CHNC8H15CH3SHCHNCSCFeCSC2HSH2C2FeHSHCHSCH4CHCH4NH7CHCHCH2CHC3H5SH3SHCFeCSH2C4HCH2CHCHFeS2HCH3CNHCNC2H3C2H5SC2H3CFe2H6CSHC2HC2H2SC3H4CH5SH2CFeCH2FeCS2H3FeS2FeSFeS2H3C6H4C6H3NC8H15CH9S2FeHCH2FeH2CHC2HSHCH6SH2C2H2C2HCHCH2NC2HCH2NCH3C2HC2SHCHSH5C2H3NCH3CFeCH6CH3CH5SCSC2SC2H2FeH5SC2HFeC2HC3H5CHCH8NH2C2H2CH4CH2C2HC2H4CFeS2C2H3SHSFeC2FeC2HCH2FeHSHSFeS2FeS2FeSFeS3HC3H2CH3C6H4C6H6C3HCH2CHC3HCH4CH2NH2NC8H15C2H2SC2FeCHCH2SHNSFeCHC2H2C3H4CHCHNH4CHCSH2CH3CH10C2HCHCHC2HCH5CH2SNH6CHCHCSC2SCHCHC2NH3SHCHCH4CHCH3CH8FeS2FeSCFeSFeS3HFeSHS2HFeS2H2CNC6H4C6HCH2C2H2CFeHCHSFeH2CNC8H22C2HSCH3SH3C2H7C5HCH3CH3C2H8NC5HC2H12C2H2SH4C2H2CHSHC2H4SCSH4CH2CHCSH5CH2CSFeNSFeSCSC2H2SC5HCH5C2HCHCHCHSHSC3H3CHFeCFeHCH2CNH8C3HC3HCH2CSH2CHCH6C2HSH4CH2FeS2FeH3NCHSFeCSC2H2CH2CH4C6H4NHC2FeH5CH6SH2SHCHCH2CHCH2CHCHCH3FeCSH2C2HSHCH2CNHC5H3C2S2H4CHSHNCHFeH2CH3CH6CH3CH3CH3CH3CH3C2H3C2HCH2NH2CH2CH3SFeSH3FeHSFeHS2FeS2FeSHFeHSHC6H5SHC3SH2C6H4C2HCH2C2NFeHCHCHCH2FeH2CHCSCSH4FeH2NH3NH3CHCH3C2H4CSHCHC2HCH2CH3CHCHCH2CHSH3CHFeSH2C2SHFeSCS2HSHSH2FeSH2CHC7H4C2HSC2HCH2NHCH3CSCH5Fe2SHCH3CHCNC8H12SH7C3HNCH3CHCHFeHCH2SH7FeH3CH2CFeHC2H3
_chemical_formula_sum              "S128 Fe64 C448 H768 N32"
_cell_length_a       34.7111
_cell_length_b       31.8488
_cell_length_c       72.4126
_cell_angle_alpha    91.5382
_cell_angle_beta     90.5415
_cell_angle_gamma    120.873

_space_group_name_H-M_alt    "P 1"
_space_group_IT_number       1

loop_
  _space_group_symop_operation_xyz
  'x, y, z'

loop_
  _atom_site_type_symbol
  _atom_site_label
  _atom_site_symmetry_multiplicity
  _atom_site_fract_x
  _atom_site_fract_y
  _atom_site_fract_z
  _atom_site_occupancy
  S   S1        1.0  0.32032  0.13135  0.19726  1.0000
  Fe  Fe1       1.0  0.33978  0.07533  0.20111  1.0000
  C   C1        1.0  0.34326  0.11413  0.24638  1.0000
  C   C2        1.0  0.34681  0.14074  0.26270  1.0000
  H   H1        1.0  0.35503  0.13298  0.23362  1.0000
  H   H2        1.0  0.36064  0.17986  0.26236  1.0000
  C   C3        1.0  0.46384  0.13216  0.28706  1.0000
  S   S2        1.0  0.41177  0.12630  0.19455  1.0000
  Fe  Fe2       1.0  0.39066  0.17986  0.18803  1.0000
  S   S3        1.0  0.43341  0.25741  0.19953  1.0000
  S   S4        1.0  0.37254  0.15578  0.15827  1.0000
  Fe  Fe3       1.0  0.35257  0.12419  0.32558  1.0000
  C   C4        1.0  0.15368  0.06615  0.14408  1.0000
  C   C5        1.0  0.19567  0.09845  0.32187  1.0000
  C   C6        1.0  0.12115  0.01076  0.11715  1.0000
  S   S5        1.0  0.44018  0.04346  0.32838  1.0000
  C   C7        1.0  0.19545  0.03302  0.12972  1.0000
  C   C8        1.0  0.31085  0.03967  0.26340  1.0000
  S   S6        1.0  0.23722  0.09884  0.15970  1.0000
  H   H3        1.0  0.15121  0.08933  0.15462  1.0000
  H   H4        1.0  0.40382  0.08907  0.27039  1.0000
  C   C9        1.0  0.19268  0.06304  0.14343  1.0000
  H   H5        1.0  0.25083  0.16147  0.30805  1.0000
  N   N1        1.0  0.33389  0.26660  0.15743  1.0000
  C   C10       1.0  0.30088  0.21884  0.14745  1.0000
  C   C11       1.0  0.33994  0.25432  0.17683  1.0000
  C   C12       1.0  0.37795  0.28761  0.14771  1.0000
  C   C13       1.0  0.31560  0.30054  0.15679  1.0000
  C   C14       1.0  0.29224  0.22124  0.12666  1.0000
  C   C15       1.0  0.29718  0.22974  0.18838  1.0000
  C   C16       1.0  0.41706  0.33677  0.15553  1.0000
  C   C17       1.0  0.33355  0.34255  0.17173  1.0000
  H   H6        1.0  0.31175  0.19165  0.14872  1.0000
  H   H7        1.0  0.26729  0.20203  0.15378  1.0000
  H   H8        1.0  0.36556  0.28661  0.18506  1.0000
  H   H9        1.0  0.35339  0.22924  0.17645  1.0000
  H   H10       1.0  0.38966  0.26089  0.14745  1.0000
  H   H11       1.0  0.37406  0.29442  0.13303  1.0000
  H   H12       1.0  0.32150  0.31738  0.14303  1.0000
  H   H13       1.0  0.27840  0.27924  0.15815  1.0000
  H   H14       1.0  0.25530  0.06206  0.31598  1.0000
  H   H15       1.0  0.32110  0.22698  0.11832  1.0000
  H   H16       1.0  0.27447  0.19095  0.18378  1.0000
  H   H17       1.0  0.30690  0.22922  0.20300  1.0000
  H   H18       1.0  0.44654  0.06158  0.18489  1.0000
  H   H19       1.0  0.44763  0.34624  0.14765  1.0000
  H   H20       1.0  0.42564  0.33536  0.17018  1.0000
  C   C18       1.0  0.15994  0.00725  0.11660  1.0000
  H   H21       1.0  0.33919  0.37640  0.16522  1.0000
  H   H22       1.0  0.36555  0.35204  0.17872  1.0000
  H   H23       1.0  0.30788  0.33429  0.18232  1.0000
  S   S7        1.0  0.32072  0.02976  0.22639  1.0000
  H   H24       1.0  0.37934  0.01947  0.25210  1.0000
  C   C19       1.0  0.19707  0.02686  0.27806  1.0000
  H   H25       1.0  0.26320  0.18526  0.12182  1.0000
  N   N2        1.0  0.18996  0.05375  0.31143  1.0000
  C   C20       1.0  0.47520  0.06704  0.17720  1.0000
  S   S8        1.0  0.42384  0.15138  0.33417  1.0000
  C   C21       1.0  0.48153  0.28757  0.16769  1.0000
  Fe  Fe4       1.0  0.38966  0.09850  0.16540  1.0000
  C   C22       1.0  0.33331  0.11709  0.27946  1.0000
  S   S9        1.0  0.32898  0.04553  0.33003  1.0000
  C   C23       1.0  0.20314  0.06780  0.29174  1.0000
  C   C24       1.0  0.32487  0.06349  0.24665  1.0000
  H   H26       1.0  0.30457  0.04788  0.29262  1.0000
  S   S10       1.0  0.33798  0.15127  0.29966  1.0000
  H   H27       1.0  0.20813  0.04269  0.26425  1.0000
  H   H28       1.0  0.47752  0.12611  0.22824  1.0000
  C   C25       1.0  0.11796  0.03993  0.13111  1.0000
  C   C26       1.0  0.31553  0.06653  0.27982  1.0000
  Fe  Fe5       1.0  0.30269  0.10202  0.16783  1.0000
  H   H29       1.0  0.17157  0.10878  0.31648  1.0000
  S   S11       1.0  0.43851  0.08930  0.14766  1.0000
  H   H30       1.0  0.40698  0.06076  0.29050  1.0000
  C   C27       1.0  0.22007  0.03838  0.32040  1.0000
  H   H31       1.0  0.28350  0.24937  0.12376  1.0000
  S   S12       1.0  0.31821  0.04225  0.17233  1.0000
  C   C28       1.0  0.24282  0.14481  0.32180  1.0000
  H   H32       1.0  0.18419  0.08415  0.28586  1.0000
  H   H33       1.0  0.45501  0.25417  0.16110  1.0000
  H   H34       1.0  0.22164  0.04466  0.33564  1.0000
  H   H35       1.0  0.48199  0.32032  0.32652  1.0000
  C   C29       1.0  0.42699  0.08223  0.27867  1.0000
  H   H36       1.0  0.27853  0.24933  0.18809  1.0000
  C   C30       1.0  0.12176  0.99886  0.33126  1.0000
  H   H37       1.0  0.44935  0.01991  0.29198  1.0000
  H   H38       1.0  0.42204  0.07642  0.23155  1.0000
  H   H39       1.0  0.24404  0.17282  0.33166  1.0000
  H   H40       1.0  0.23930  0.09647  0.29112  1.0000
  N   N3        1.0  0.44280  0.05373  0.26735  1.0000
  H   H41       1.0  0.08835  0.04299  0.13171  1.0000
  H   H42       1.0  0.22526  0.03039  0.12898  1.0000
  H   H43       1.0  0.41057  0.36702  0.15359  1.0000
  H   H44       1.0  0.44727  0.15033  0.29380  1.0000
  H   H45       1.0  0.21888  0.01234  0.28188  1.0000
  H   H46       1.0  0.18787  0.09078  0.33669  1.0000
  H   H47       1.0  0.26927  0.13751  0.32633  1.0000
  C   C31       1.0  0.14072  0.01519  0.31185  1.0000
  H   H48       1.0  0.29667  0.00049  0.26367  1.0000
  C   C32       1.0  0.47961  0.29756  0.18646  1.0000
  H   H49       1.0  0.12020  0.02849  0.30504  1.0000
  C   C33       1.0  0.40205  0.00911  0.25878  1.0000
  H   H50       1.0  0.48403  0.12792  0.29801  1.0000
  H   H51       1.0  0.44523  0.13146  0.24618  1.0000
  C   C34       1.0  0.47908  0.08009  0.15872  1.0000
  H   H52       1.0  0.41117  0.99231  0.24726  1.0000
  C   C35       1.0  0.45276  0.10544  0.23896  1.0000
  C   C36       1.0  0.46899  0.03969  0.27983  1.0000
  C   C37       1.0  0.47280  0.08377  0.25212  1.0000
  H   H53       1.0  0.16164  0.99693  0.27626  1.0000
  H   H54       1.0  0.48195  0.06128  0.24322  1.0000
  H   H55       1.0  0.11708  0.02692  0.33861  1.0000
  H   H56       1.0  0.48591  0.15727  0.27651  1.0000
  H   H57       1.0  0.36902  0.23243  0.40120  1.0000
  S   S13       1.0  0.20462  0.34908  0.65516  1.0000
  H   H58       1.0  0.05858  0.33721  0.62887  1.0000
  H   H59       1.0  0.21304  0.05253  0.43595  1.0000
  H   H60       1.0  0.03497  0.25257  0.58130  1.0000
  S   S14       1.0  0.14041  0.20719  0.64742  1.0000
  H   H61       1.0  0.04341  0.27488  0.63029  1.0000
  C   C38       1.0  0.20172  0.01367  0.37562  1.0000
  Fe  Fe6       1.0  0.31385  0.06112  0.35871  1.0000
  C   C39       1.0  0.08040  0.23516  0.60775  1.0000
  S   S15       1.0  0.38237  0.08115  0.36999  1.0000
  H   H62       1.0  0.23320  0.08808  0.36703  1.0000
  H   H63       1.0  0.12247  0.27989  0.57399  1.0000
  C   C40       1.0  0.04280  0.07681  0.62457  1.0000
  C   C41       1.0  0.08440  0.11614  0.63126  1.0000
  C   C42       1.0  0.08686  0.15582  0.64134  1.0000
  C   C43       1.0  0.04710  0.15529  0.64505  1.0000
  H   H64       1.0  0.28481  0.13475  0.45234  1.0000
  C   C44       1.0  0.10974  0.29805  0.58340  1.0000
  H   H65       1.0  0.11492  0.11615  0.62834  1.0000
  H   H66       1.0  0.04848  0.18550  0.65284  1.0000
  C   C45       1.0  0.12485  0.02133  0.38149  1.0000
  H   H67       1.0  0.04148  0.04676  0.61665  1.0000
  C   C46       1.0  0.32279  0.09412  0.41604  1.0000
  H   H68       1.0  0.35322  0.48799  0.63425  1.0000
  Fe  Fe7       1.0  0.40198  0.15754  0.36253  1.0000
  S   S16       1.0  0.44678  0.22197  0.38149  1.0000
  S   S17       1.0  0.07731  0.02754  0.38446  1.0000
  H   H69       1.0  0.19557  0.37596  0.61511  1.0000
  C   C47       1.0  0.37413  0.11520  0.41646  1.0000
  H   H70       1.0  0.38050  0.08437  0.41625  1.0000
  H   H71       1.0  0.37070  0.17147  0.45610  1.0000
  H   H72       1.0  0.16742  0.27448  0.59730  1.0000
  C   C48       1.0  0.19875  0.35020  0.60552  1.0000
  N   N4        1.0  0.11307  0.28762  0.60334  1.0000
  H   H73       1.0  0.16241  0.28491  0.62108  1.0000
  C   C49       1.0  0.16455  0.06091  0.37486  1.0000
  N   N5        1.0  0.30657  0.12486  0.42552  1.0000
  C   C50       1.0  0.26064  0.10988  0.41758  1.0000
  C   C51       1.0  0.33677  0.17888  0.42250  1.0000
  H   H74       1.0  0.04498  0.22556  0.60637  1.0000
  H   H75       1.0  0.19195  0.04958  0.41333  1.0000
  H   H76       1.0  0.08471  0.22981  0.62255  1.0000
  C   C52       1.0  0.34063  0.19415  0.40225  1.0000
  C   C53       1.0  0.32918  0.45655  0.66077  1.0000
  H   H77       1.0  0.31253  0.08822  0.40111  1.0000
  H   H78       1.0  0.24946  0.13505  0.42286  1.0000
  H   H79       1.0  0.26148  0.11271  0.40229  1.0000
  H   H80       1.0  0.37155  0.19302  0.42769  1.0000
  H   H81       1.0  0.32502  0.20037  0.43055  1.0000
  S   S18       1.0  0.33267  0.13824  0.35343  1.0000
  C   C54       1.0  0.00330  0.07727  0.62763  1.0000
  C   C55       1.0  0.10658  0.32168  0.61613  1.0000
  H   H82       1.0  0.38921  0.13520  0.40373  1.0000
  H   H83       1.0  0.12394  0.32638  0.62972  1.0000
  H   H84       1.0  0.05828  0.31754  0.57869  1.0000
  C   C56       1.0  0.15975  0.29673  0.60701  1.0000
  Fe  Fe8       1.0  0.15523  0.37105  0.66334  1.0000
  Fe  Fe9       1.0  0.15275  0.27425  0.66453  1.0000
  H   H85       1.0  0.34764  0.17095  0.39291  1.0000
  H   H86       1.0  0.20235  0.36292  0.59120  1.0000
  H   H87       1.0  0.23068  0.35218  0.60946  1.0000
  H   H88       1.0  0.30639  0.05689  0.42179  1.0000
  H   H89       1.0  0.12233  0.35904  0.61053  1.0000
  H   H90       1.0  0.16566  0.09470  0.37203  1.0000
  C   C57       1.0  0.20281  0.05718  0.37194  1.0000
  S   S19       1.0  0.14965  0.42378  0.64513  1.0000
  H   H91       1.0  0.13266  0.33763  0.58101  1.0000
  C   C58       1.0  0.08405  0.19590  0.59628  1.0000
  C   C59       1.0  0.13624  0.46232  0.65765  1.0000
  H   H92       1.0  0.29776  0.42676  0.65517  1.0000
  C   C60       1.0  0.22258  0.05723  0.42125  1.0000
  C   C61       1.0  0.06338  0.28626  0.57593  1.0000
  H   H93       1.0  0.08185  0.19975  0.58122  1.0000
  H   H94       1.0  0.11505  0.19566  0.59996  1.0000
  S   S20       1.0  0.24925  0.00742  0.37270  1.0000
  C   C62       1.0  0.05801  0.30638  0.62102  1.0000
  C   C63       1.0  0.00566  0.11662  0.63794  1.0000
  C   C64       1.0  0.30165  0.11624  0.44599  1.0000
  H   H95       1.0  0.06140  0.27906  0.56074  1.0000
  H   H96       1.0  0.30993  0.19337  0.39727  1.0000
  H   H97       1.0  0.33621  0.12809  0.47240  1.0000
  H   H98       1.0  0.05554  0.15920  0.59960  1.0000
  C   C65       1.0  0.34479  0.13245  0.45755  1.0000
  H   H99       1.0  0.35852  0.10839  0.45454  1.0000
  H   H100      1.0  0.27979  0.07657  0.44856  1.0000
  H   H101      1.0  0.23099  0.02948  0.41659  1.0000
  H   H102      1.0  0.39294  0.13925  0.42851  1.0000
  H   H103      1.0  0.43477  0.24740  0.34477  1.0000
  S   S21       1.0  0.10110  0.29509  0.67026  1.0000
  H   H104      1.0  0.47122  0.07047  0.36673  1.0000
  H   H105      1.0  0.03571  0.29777  0.60877  1.0000
  C   C66       1.0  0.46558  0.27738  0.35082  1.0000
  Fe  Fe10      1.0  0.39934  0.07358  0.34071  1.0000
  C   C67       1.0  0.47853  0.27509  0.36893  1.0000
  H   H106      1.0  0.14302  0.99017  0.33994  1.0000
  H   H107      1.0  0.01617  0.99075  0.50528  1.0000
  Fe  Fe11      1.0  0.13345  0.31608  0.69876  1.0000
  C   C68       1.0  0.08645  0.09009  0.92563  1.0000
  S   S22       1.0  0.09376  0.29888  0.72474  1.0000
  S   S23       1.0  0.18227  0.39392  0.69228  1.0000
  H   H108      1.0  0.15042  0.40352  0.76595  1.0000
  H   H109      1.0  0.02216  0.07563  0.91684  1.0000
  H   H110      1.0  0.04849  0.19401  0.93581  1.0000
  Fe  Fe12      1.0  0.14281  0.31487  0.85847  1.0000
  S   S24       1.0  0.11566  0.31653  0.83022  1.0000
  S   S25       1.0  0.12949  0.24931  0.87521  1.0000
  Fe  Fe13      1.0  0.18794  0.36166  0.82261  1.0000
  S   S26       1.0  0.21901  0.35697  0.79615  1.0000
  Fe  Fe14      1.0  0.12483  0.38894  0.84020  1.0000
  S   S27       1.0  0.21491  0.35520  0.84987  1.0000
  S   S28       1.0  0.14538  0.38354  0.86921  1.0000
  H   H111      1.0  0.07363  0.20259  0.96707  1.0000
  H   H112      1.0  0.10083  0.45121  0.86890  1.0000
  H   H113      1.0  0.19001  0.34521  0.72957  1.0000
  C   C69       1.0  0.08019  0.19100  0.87534  1.0000
  C   C70       1.0  0.08368  0.15085  0.88052  1.0000
  C   C71       1.0  0.04517  0.10402  0.88158  1.0000
  C   C72       1.0  0.14896  0.43418  0.77282  1.0000
  C   C73       1.0  0.09252  0.47276  0.84193  1.0000
  C   C74       1.0  0.03790  0.18395  0.87105  1.0000
  H   H114      1.0  0.11641  0.15604  0.88369  1.0000
  H   H115      1.0  0.04827  0.07319  0.88530  1.0000
  H   H116      1.0  0.14360  0.42465  0.78765  1.0000
  H   H117      1.0  0.03482  0.21467  0.86713  1.0000
  C   C75       1.0  0.12838  0.31228  0.74448  1.0000
  C   C76       1.0  0.10935  0.30084  0.76195  1.0000
  C   C77       1.0  0.13698  0.31451  0.77791  1.0000
  C   C78       1.0  0.18366  0.33877  0.77641  1.0000
  C   C79       1.0  0.20258  0.34896  0.75893  1.0000
  C   C80       1.0  0.17503  0.33617  0.74299  1.0000
  H   H118      1.0  0.07325  0.28218  0.76312  1.0000
  H   H119      1.0  0.12214  0.30637  0.79132  1.0000
  H   H120      1.0  0.23865  0.36739  0.75768  1.0000
  N   N6        1.0  0.12900  0.18777  0.81235  1.0000
  C   C81       1.0  0.16157  0.21848  0.79784  1.0000
  C   C82       1.0  0.14824  0.21391  0.83079  1.0000
  C   C83       1.0  0.08470  0.18449  0.80823  1.0000
  C   C84       1.0  0.12394  0.13784  0.81123  1.0000
  C   C85       1.0  0.14555  0.20306  0.77748  1.0000
  C   C86       1.0  0.19410  0.22111  0.83669  1.0000
  C   C87       1.0  0.05272  0.17350  0.82443  1.0000
  C   C88       1.0  0.09585  0.10152  0.82613  1.0000
  H   H121      1.0  0.17041  0.25717  0.79970  1.0000
  H   H122      1.0  0.19379  0.21908  0.79925  1.0000
  H   H123      1.0  0.12539  0.19505  0.84218  1.0000
  H   H124      1.0  0.15204  0.25081  0.83095  1.0000
  H   H125      1.0  0.09050  0.21979  0.80290  1.0000
  H   H126      1.0  0.06547  0.15637  0.79704  1.0000
  H   H127      1.0  0.10770  0.11885  0.79781  1.0000
  H   H128      1.0  0.15715  0.14038  0.81089  1.0000
  H   H129      1.0  0.17252  0.22901  0.76841  1.0000
  H   H130      1.0  0.13923  0.16602  0.77379  1.0000
  H   H131      1.0  0.11549  0.20532  0.77401  1.0000
  H   H132      1.0  0.20276  0.23777  0.85094  1.0000
  H   H133      1.0  0.19335  0.18595  0.83710  1.0000
  H   H134      1.0  0.22141  0.24704  0.82781  1.0000
  H   H135      1.0  0.04599  0.14094  0.83206  1.0000
  C   C89       1.0  0.06963  0.38820  0.76294  1.0000
  H   H136      1.0  0.08132  0.05674  0.91805  1.0000
  H   H137      1.0  0.05967  0.08055  0.82200  1.0000
  H   H138      1.0  0.09989  0.11857  0.84005  1.0000
  H   H139      1.0  0.10750  0.07521  0.82791  1.0000
  H   H140      1.0  0.12617  0.21548  0.91817  1.0000
  H   H141      1.0  0.15073  0.41597  0.73645  1.0000
  H   H142      1.0  0.12380  0.23638  0.94079  1.0000
  H   H143      1.0  0.02158  0.32475  0.77788  1.0000
  H   H144      1.0  0.10475  0.12062  0.91619  1.0000
  S   S29       1.0  0.19500  0.43353  0.83033  1.0000
  S   S30       1.0  0.18181  0.29039  0.69361  1.0000
  Fe  Fe15      1.0  0.22861  0.36730  0.68469  1.0000
  H   H145      1.0  0.07622  0.35556  0.78852  1.0000
  C   C90       1.0  0.19618  0.48007  0.77192  1.0000
  H   H146      1.0  0.04025  0.38099  0.79057  1.0000
  H   H147      1.0  0.33459  0.45269  0.79682  1.0000
  Fe  Fe16      1.0  0.21533  0.42331  0.85844  1.0000
  H   H148      1.0  0.13131  0.18482  0.93730  1.0000
  H   H149      1.0  0.04180  0.38919  0.75560  1.0000
  C   C91       1.0  0.06178  0.16704  0.97357  1.0000
  H   H150      1.0  0.09629  0.13696  0.95925  1.0000
  C   C92       1.0  0.00275  0.09715  0.87772  1.0000
  C   C93       1.0  0.11338  0.20264  0.93218  1.0000
  H   H151      1.0  0.30068  0.46413  0.84060  1.0000
  S   S31       1.0  0.08115  0.41785  0.83043  1.0000
  H   H152      1.0  0.33961  0.44749  0.77238  1.0000
  C   C94       1.0  0.05138  0.36149  0.78114  1.0000
  H   H153      1.0  0.07636  0.36389  0.75395  1.0000
  H   H154      1.0  0.10732  0.09483  0.93806  1.0000
  H   H155      1.0  0.06594  0.20559  0.83422  1.0000
  H   H156      1.0  0.10066  0.45951  0.79244  1.0000
  H   H157      1.0  0.98887  0.01901  0.00146  1.0000
  H   H158      1.0  0.01989  0.16673  0.81901  1.0000
  S   S32       1.0  0.30013  0.41768  0.69510  1.0000
  H   H159      1.0  0.05159  0.16225  0.91599  1.0000
  H   H160      1.0  0.29154  0.44640  0.78095  1.0000
  C   C95       1.0  0.33881  0.46020  0.67976  1.0000
  C   C96       1.0  0.06150  0.17021  0.93093  1.0000
  H   H161      1.0  0.02822  0.15384  0.97946  1.0000
  H   H162      1.0  0.11044  0.41584  0.68095  1.0000
  C   C97       1.0  0.10135  0.47985  0.86101  1.0000
  C   C98       1.0  0.32837  0.46369  0.78318  1.0000
  H   H163      1.0  0.09326  0.47198  0.69857  1.0000
  C   C99       1.0  0.04020  0.08263  0.93031  1.0000
  H   H164      1.0  0.98856  0.13503  0.95303  1.0000
  C   C100      1.0  0.10326  0.47133  0.77794  1.0000
  H   H165      1.0  0.04368  0.09253  0.96709  1.0000
  H   H166      1.0  0.02180  0.04773  0.93768  1.0000
  N   N7        1.0  0.11083  0.43859  0.76494  1.0000
  C   C101      1.0  0.11775  0.45003  0.67516  1.0000
  C   C102      1.0  0.06167  0.47541  0.77360  1.0000
  H   H167      1.0  0.20703  0.48873  0.75746  1.0000
  C   C103      1.0  0.06119  0.12830  0.96011  1.0000
  H   H168      1.0  0.08501  0.17367  0.98543  1.0000
  H   H169      1.0  0.22056  0.47262  0.77896  1.0000
  N   N8        1.0  0.03980  0.12327  0.94131  1.0000
  C   C104      1.0  0.99936  0.13711  0.87217  1.0000
  H   H170      1.0  0.09236  0.46206  0.74034  1.0000
  H   H171      1.0  0.15405  0.45894  0.72073  1.0000
  H   H172      1.0  0.02985  0.43981  0.77434  1.0000
  C   C105      1.0  0.10794  0.48174  0.68510  1.0000
  C   C106      1.0  0.12141  0.46059  0.74615  1.0000
  H   H173      1.0  0.10079  0.40365  0.72400  1.0000
  C   C107      1.0  0.13206  0.43284  0.73112  1.0000
  C   C108      1.0  0.99119  0.10739  0.94432  1.0000
  S   S33       1.0  0.27117  0.48659  0.87491  1.0000
  H   H174      1.0  0.09852  0.92918  0.16679  1.0000
  C   C109      1.0  0.09539  0.89290  0.16474  1.0000
  H   H175      1.0  0.09061  0.89018  0.12540  1.0000
  S   S34       1.0  0.07757  0.97741  0.10025  1.0000
  H   H176      1.0  0.16273  0.98478  0.10585  1.0000
  H   H177      1.0  0.11998  0.89564  0.15446  1.0000
  H   H178      1.0  0.10519  0.88419  0.17811  1.0000
  H   H179      1.0  0.06623  0.82683  0.12822  1.0000
  H   H180      1.0  0.04671  0.81703  0.15917  1.0000
  C   C110      1.0  0.05752  0.85536  0.12577  1.0000
  C   C111      1.0  0.04699  0.85215  0.15925  1.0000
  H   H181      1.0  0.01667  0.90953  0.12741  1.0000
  H   H182      1.0  0.02459  0.84909  0.17069  1.0000
  H   H183      1.0  0.06806  0.93719  0.14003  1.0000
  N   N9        1.0  0.02935  0.85805  0.14103  1.0000
  C   C112      1.0  0.03249  0.90698  0.14042  1.0000
  H   H184      1.0  0.06235  0.84950  0.09597  1.0000
  H   H185      1.0  0.02506  0.91976  0.17014  1.0000
  H   H186      1.0  0.02762  0.87304  0.10254  1.0000
  C   C113      1.0  0.03698  0.84587  0.10606  1.0000
  Fe  Fe17      1.0  0.00513  0.96115  0.09871  1.0000
  C   C114      1.0  0.01078  0.91980  0.15642  1.0000
  H   H187      1.0  0.00735  0.80845  0.10405  1.0000
  H   H188      1.0  0.18307  0.96364  0.30587  1.0000
  H   H189      1.0  0.99948  0.76179  0.13362  1.0000
  H   H190      1.0  0.01777  0.95764  0.15473  1.0000
  H   H191      1.0  0.08800  0.96522  0.32993  1.0000
  H   H192      1.0  0.19491  0.96419  0.33023  1.0000
  C   C115      1.0  0.20738  0.98436  0.31726  1.0000
  H   H193      1.0  0.23803  0.98323  0.31401  1.0000
  H   H194      1.0  0.13242  0.98164  0.30370  1.0000
  H   H195      1.0  0.36181  0.98190  0.28393  1.0000
  C   C116      1.0  0.37296  0.96829  0.27211  1.0000
  H   H196      1.0  0.39072  0.95010  0.27731  1.0000
  H   H197      1.0  0.45937  0.88656  0.14092  1.0000
  H   H198      1.0  0.34221  0.93975  0.26451  1.0000
  H   H199      1.0  0.46613  0.98515  0.25905  1.0000
  H   H200      1.0  0.48525  0.86477  0.12535  1.0000
  S   S35       1.0  0.03322  0.88340  0.61540  1.0000
  C   C117      1.0  0.03842  0.83272  0.62105  1.0000
  S   S36       1.0  0.00951  0.91952  0.41958  1.0000
  C   C118      1.0  0.04968  0.75431  0.63119  1.0000
  C   C119      1.0  0.00854  0.74540  0.62366  1.0000
  S   S37       1.0  0.05504  0.70412  0.63743  1.0000
  C   C120      1.0  0.00275  0.78442  0.61876  1.0000
  C   C121      1.0  0.02184  0.86141  0.67042  1.0000
  H   H201      1.0  0.05217  0.88786  0.66298  1.0000
  H   H202      1.0  0.02366  0.79857  0.66028  1.0000
  Fe  Fe18      1.0  0.01338  0.97256  0.39886  1.0000
  H   H203      1.0  0.06592  0.61445  0.59474  1.0000
  H   H204      1.0  0.99501  0.82698  0.46057  1.0000
  H   H205      1.0  0.99271  0.85281  0.66118  1.0000
  H   H206      1.0  0.06558  0.76499  0.67119  1.0000
  H   H207      1.0  0.10390  0.86088  0.66658  1.0000
  S   S38       1.0  0.98760  0.96726  0.46719  1.0000
  C   C122      1.0  0.07974  0.84154  0.62835  1.0000
  C   C123      1.0  0.11997  0.68568  0.58670  1.0000
  H   H208      1.0  0.22569  0.63362  0.66688  1.0000
  Fe  Fe19      1.0  0.20464  0.71951  0.65731  1.0000
  C   C124      1.0  0.16210  0.97419  0.38230  1.0000
  C   C125      1.0  0.13563  0.53821  0.66017  1.0000
  H   H209      1.0  0.20803  0.83330  0.60395  1.0000
  C   C126      1.0  0.26737  0.60200  0.66317  1.0000
  C   C127      1.0  0.40138  0.53049  0.65610  1.0000
  C   C128      1.0  0.18395  0.76510  0.57716  1.0000
  H   H210      1.0  0.15897  0.51575  0.63655  1.0000
  H   H211      1.0  0.12301  0.66706  0.57415  1.0000
  H   H212      1.0  0.11888  0.63060  0.60504  1.0000
  H   H213      1.0  0.16097  0.94047  0.38529  1.0000
  H   H214      1.0  0.12686  0.76208  0.60420  1.0000
  C   C129      1.0  0.17998  0.74282  0.55755  1.0000
  H   H215      1.0  0.14305  0.73343  0.62067  1.0000
  C   C130      1.0  0.08526  0.80260  0.63356  1.0000
  H   H216      1.0  0.18689  0.69917  0.61371  1.0000
  H   H217      1.0  0.28923  0.63191  0.65384  1.0000
  H   H218      1.0  0.23688  0.50799  0.66874  1.0000
  H   H219      1.0  0.32185  0.54550  0.63075  1.0000
  H   H220      1.0  0.11686  0.80998  0.63953  1.0000
  H   H221      1.0  0.34123  0.56120  0.66331  1.0000
  H   H222      1.0  0.08762  0.65826  0.61340  1.0000
  H   H223      1.0  0.34819  0.61428  0.65291  1.0000
  N   N10       1.0  0.16424  0.73013  0.59278  1.0000
  H   H224      1.0  0.40335  0.72895  0.64418  1.0000
  H   H225      1.0  0.27964  0.56123  0.63237  1.0000
  C   C131      1.0  0.15474  0.75609  0.60826  1.0000
  C   C132      1.0  0.09745  0.64546  0.60097  1.0000
  H   H226      1.0  0.16764  0.78740  0.57602  1.0000
  H   H227      1.0  0.09545  0.69680  0.58269  1.0000
  C   C133      1.0  0.14480  0.50622  0.65011  1.0000
  H   H228      1.0  0.14276  0.57217  0.65433  1.0000
  H   H229      1.0  0.14484  0.72443  0.55206  1.0000
  H   H230      1.0  0.09355  0.94718  0.39032  1.0000
  H   H231      1.0  0.20055  0.77282  0.54810  1.0000
  C   C134      1.0  0.32224  0.57748  0.65765  1.0000
  H   H232      1.0  0.33401  0.71533  0.62799  1.0000
  H   H233      1.0  0.22228  0.80302  0.62135  1.0000
  C   C135      1.0  0.37999  0.73600  0.65141  1.0000
  C   C136      1.0  0.19729  0.71693  0.60017  1.0000
  H   H234      1.0  0.23969  0.57320  0.65420  1.0000
  C   C137      1.0  0.29696  0.54591  0.64018  1.0000
  C   C138      1.0  0.34081  0.72849  0.64226  1.0000
  H   H235      1.0  0.10749  0.87885  0.63015  1.0000
  H   H236      1.0  0.21799  0.66361  0.59636  1.0000
  H   H237      1.0  0.23674  0.70791  0.57858  1.0000
  H   H238      1.0  0.17930  0.65705  0.57903  1.0000
  C   C139      1.0  0.20820  0.68489  0.58755  1.0000
  Fe  Fe20      1.0  0.11100  0.70704  0.65517  1.0000
  S   S39       1.0  0.43860  0.57626  0.64141  1.0000
  S   S40       1.0  0.13672  0.65643  0.64849  1.0000
  C   C140      1.0  0.31054  0.73806  0.65150  1.0000
  C   C141      1.0  0.19478  0.80635  0.61500  1.0000
  H   H239      1.0  0.19237  0.71708  0.55681  1.0000
  H   H240      1.0  0.23023  0.75050  0.60360  1.0000
  H   H241      1.0  0.18328  0.82217  0.62592  1.0000
  S   S41       1.0  0.17975  0.77196  0.66156  1.0000
  H   H242      1.0  0.22030  0.79186  0.58000  1.0000
  S   S42       1.0  0.26189  0.72896  0.63970  1.0000
  Fe  Fe21      1.0  0.48401  0.73873  0.67208  1.0000
  C   C142      1.0  0.38966  0.75446  0.66969  1.0000
  C   C143      1.0  0.31971  0.75526  0.66991  1.0000
  Fe  Fe22      1.0  0.48334  0.64855  0.65663  1.0000
  C   C144      1.0  0.12385  0.97793  0.38522  1.0000
  C   C145      1.0  0.36074  0.49113  0.64893  1.0000
  H   H243      1.0  0.27288  0.50729  0.64342  1.0000
  C   C146      1.0  0.08277  0.70523  0.89053  1.0000
  H   H244      1.0  0.24635  0.79909  0.74752  1.0000
  H   H245      1.0  0.47881  0.55581  0.76225  1.0000
  Fe  Fe23      1.0  0.16721  0.74509  0.69060  1.0000
  H   H246      1.0  0.16052  0.78644  0.89947  1.0000
  S   S43       1.0  0.18173  0.79504  0.71561  1.0000
  H   H247      1.0  0.09985  0.70836  0.93781  1.0000
  S   S44       1.0  0.99146  0.96025  0.91127  1.0000
  Fe  Fe24      1.0  0.13005  0.71132  0.81488  1.0000
  S   S45       1.0  0.17892  0.79088  0.82132  1.0000
  S   S46       1.0  0.09505  0.67706  0.78757  1.0000
  Fe  Fe25      1.0  0.14388  0.67991  0.85220  1.0000
  S   S47       1.0  0.19470  0.75699  0.86169  1.0000
  S   S48       1.0  0.12692  0.61790  0.87111  1.0000
  Fe  Fe26      1.0  0.14628  0.77638  0.84912  1.0000
  S   S49       1.0  0.13654  0.83241  0.86552  1.0000
  Fe  Fe27      1.0  0.22252  0.76466  0.83337  1.0000
  S   S50       1.0  0.29350  0.79555  0.82372  1.0000
  S   S51       1.0  0.09354  0.69835  0.84160  1.0000
  S   S52       1.0  0.17570  0.68606  0.82499  1.0000
  H   H248      1.0  0.26899  0.59834  0.82498  1.0000
  C   C147      1.0  0.08546  0.83028  0.87032  1.0000
  C   C148      1.0  0.08714  0.86965  0.88037  1.0000
  C   C149      1.0  0.04746  0.86832  0.88555  1.0000
  H   H249      1.0  0.27083  0.65749  0.68324  1.0000
  H   H250      1.0  0.08307  0.77014  0.69433  1.0000
  C   C150      1.0  0.04355  0.78933  0.86553  1.0000
  H   H251      1.0  0.11940  0.90135  0.88426  1.0000
  H   H252      1.0  0.04934  0.89886  0.89330  1.0000
  H   H253      1.0  0.04174  0.75876  0.85783  1.0000
  C   C151      1.0  0.15673  0.76248  0.73556  1.0000
  C   C152      1.0  0.16265  0.78782  0.75248  1.0000
  C   C153      1.0  0.14433  0.76198  0.76863  1.0000
  C   C154      1.0  0.11916  0.71075  0.76779  1.0000
  C   C155      1.0  0.11288  0.68559  0.75083  1.0000
  C   C156      1.0  0.13209  0.71133  0.73482  1.0000
  H   H254      1.0  0.18178  0.82741  0.75315  1.0000
  H   H255      1.0  0.14896  0.78166  0.78163  1.0000
  H   H256      1.0  0.09352  0.64598  0.75011  1.0000
  H   H257      1.0  0.12802  0.69134  0.72196  1.0000
  C   C157      1.0  0.33477  0.79349  0.83739  1.0000
  C   C158      1.0  0.33356  0.79322  0.85670  1.0000
  C   C159      1.0  0.36782  0.79236  0.86699  1.0000
  C   C160      1.0  0.40251  0.79023  0.85800  1.0000
  C   C161      1.0  0.40348  0.79043  0.83872  1.0000
  C   C162      1.0  0.37010  0.79270  0.82851  1.0000
  H   H258      1.0  0.30676  0.79451  0.86368  1.0000
  H   H259      1.0  0.36714  0.79263  0.88193  1.0000
  H   H260      1.0  0.43033  0.78943  0.83165  1.0000
  H   H261      1.0  0.37163  0.79370  0.81366  1.0000
  H   H262      1.0  0.10223  0.86296  0.72639  1.0000
  H   H263      1.0  0.09688  0.68211  0.88670  1.0000
  C   C163      1.0  0.11068  0.52398  0.86993  1.0000
  C   C164      1.0  0.11217  0.56167  0.85978  1.0000
  C   C165      1.0  0.10303  0.55445  0.84073  1.0000
  H   H264      1.0  0.38837  0.50111  0.70136  1.0000
  C   C166      1.0  0.37087  0.51961  0.83891  1.0000
  H   H265      1.0  0.11756  0.52921  0.88468  1.0000
  H   H266      1.0  0.10332  0.58292  0.83281  1.0000
  C   C167      1.0  0.01216  0.72337  0.68987  1.0000
  H   H267      1.0  0.16038  0.78087  0.92384  1.0000
  C   C168      1.0  0.36079  0.55389  0.87336  1.0000
  C   C169      1.0  0.40216  0.57862  0.86461  1.0000
  C   C170      1.0  0.40718  0.56171  0.84734  1.0000
  H   H268      1.0  0.43053  0.66604  0.78977  1.0000
  C   C171      1.0  0.23600  0.71416  0.73422  1.0000
  H   H269      1.0  0.35724  0.56690  0.88682  1.0000
  H   H270      1.0  0.43032  0.61064  0.87130  1.0000
  H   H271      1.0  0.10026  0.64285  0.90969  1.0000
  H   H272      1.0  0.30868  0.62930  0.69703  1.0000
  C   C172      1.0  0.07884  0.64273  0.92089  1.0000
  H   H273      1.0  0.25157  0.56278  0.70568  1.0000
  H   H274      1.0  0.04761  0.86231  0.70763  1.0000
  N   N11       1.0  0.29369  0.58203  0.67228  1.0000
  H   H275      1.0  0.20663  0.69101  0.74275  1.0000
  H   H276      1.0  0.42946  0.54856  0.79862  1.0000
  N   N12       1.0  0.27450  0.62965  0.86339  1.0000
  C   C173      1.0  0.28175  0.66388  0.87966  1.0000
  C   C174      1.0  0.31184  0.61864  0.86411  1.0000
  C   C175      1.0  0.23059  0.58288  0.86606  1.0000
  C   C176      1.0  0.27330  0.65345  0.84578  1.0000
  C   C177      1.0  0.24508  0.67702  0.88249  1.0000
  C   C178      1.0  0.35971  0.66367  0.86474  1.0000
  C   C179      1.0  0.21603  0.54236  0.85095  1.0000
  C   C180      1.0  0.28775  0.63825  0.82792  1.0000
  H   H277      1.0  0.28551  0.64858  0.89278  1.0000
  H   H278      1.0  0.31355  0.69939  0.87838  1.0000
  H   H279      1.0  0.30999  0.59496  0.85223  1.0000
  H   H280      1.0  0.30878  0.59743  0.87656  1.0000
  H   H281      1.0  0.23132  0.56686  0.87949  1.0000
  H   H282      1.0  0.20250  0.58994  0.86679  1.0000
  H   H283      1.0  0.23901  0.64707  0.84305  1.0000
  H   H284      1.0  0.29548  0.69389  0.84716  1.0000
  H   H285      1.0  0.21488  0.64654  0.88870  1.0000
  H   H286      1.0  0.25801  0.70893  0.89238  1.0000
  H   H287      1.0  0.23545  0.68741  0.86951  1.0000
  H   H288      1.0  0.20160  0.51754  0.69339  1.0000
  H   H289      1.0  0.41761  0.49931  0.78325  1.0000
  H   H290      1.0  0.42125  0.55345  0.74560  1.0000
  H   H291      1.0  0.06003  0.50036  0.78418  1.0000
  C   C181      1.0  0.32894  0.49587  0.84736  1.0000
  C   C182      1.0  0.07357  0.82555  0.72295  1.0000
  H   H292      1.0  0.32424  0.65175  0.82818  1.0000
  H   H293      1.0  0.28140  0.65550  0.81606  1.0000
  S   S53       1.0  0.44289  0.78451  0.87090  1.0000
  C   C183      1.0  0.14824  0.75919  0.91060  1.0000
  C   C184      1.0  0.05679  0.77003  0.68550  1.0000
  Fe  Fe28      1.0  0.48361  0.76166  0.85366  1.0000
  C   C185      1.0  0.00556  0.82726  0.88087  1.0000
  H   H294      1.0  0.36669  0.77828  0.69301  1.0000
  C   C186      1.0  0.08003  0.69156  0.92472  1.0000
  H   H295      1.0  0.38336  0.60533  0.76659  1.0000
  H   H296      1.0  0.08601  0.77045  0.94296  1.0000
  S   S54       1.0  0.10551  0.56565  0.69056  1.0000
  H   H297      1.0  0.44277  0.56351  0.68066  1.0000
  N   N13       1.0  0.05687  0.81737  0.68738  1.0000
  S   S55       1.0  0.46524  0.66681  0.68397  1.0000
  Fe  Fe29      1.0  0.12936  0.63923  0.67847  1.0000
  C   C187      1.0  0.04509  0.82609  0.70653  1.0000
  H   H298      1.0  0.14883  0.49972  0.74688  1.0000
  C   C188      1.0  0.09266  0.50988  0.83188  1.0000
  C   C189      1.0  0.42239  0.62798  0.79185  1.0000
  H   H299      1.0  0.01874  0.87901  0.68326  1.0000
  H   H300      1.0  0.36352  0.69109  0.85476  1.0000
  C   C190      1.0  0.39096  0.52802  0.75341  1.0000
  C   C191      1.0  0.26277  0.53176  0.67947  1.0000
  C   C192      1.0  0.41109  0.53396  0.67505  1.0000
  H   H301      1.0  0.05232  0.81212  0.73530  1.0000
  H   H302      1.0  0.45270  0.63067  0.79831  1.0000
  H   H303      1.0  0.34894  0.55515  0.74178  1.0000
  H   H304      1.0  0.09019  0.63280  0.93356  1.0000
  C   C193      1.0  0.02127  0.81347  0.67401  1.0000
  H   H305      1.0  0.30799  0.76209  0.73599  1.0000
  C   C194      1.0  0.10167  0.85978  0.68190  1.0000
  H   H306      1.0  0.37395  0.62913  0.70878  1.0000
  N   N14       1.0  0.09764  0.72839  0.90969  1.0000
  H   H307      1.0  0.24749  0.67469  0.77300  1.0000
  H   H308      1.0  0.36925  0.68100  0.87884  1.0000
  H   H309      1.0  0.20221  0.55038  0.83855  1.0000
  H   H310      1.0  0.21043  0.75883  0.90874  1.0000
  C   C195      1.0  0.47677  0.56676  0.77671  1.0000
  H   H311      1.0  0.24830  0.76637  0.78743  1.0000
  C   C196      1.0  0.23677  0.52872  0.69707  1.0000
  S   S56       1.0  0.09705  0.68348  0.68450  1.0000
  H   H312      1.0  0.10528  0.89530  0.68654  1.0000
  H   H313      1.0  0.09100  0.78905  0.90107  1.0000
  C   C197      1.0  0.32564  0.61785  0.68700  1.0000
  H   H314      1.0  0.23601  0.50067  0.70610  1.0000
  H   H315      1.0  0.31799  0.49084  0.74728  1.0000
  H   H316      1.0  0.23055  0.74073  0.72680  1.0000
  C   C198      1.0  0.00385  0.78779  0.87086  1.0000
  H   H317      1.0  0.17428  0.89513  0.68448  1.0000
  H   H318      1.0  0.37968  0.77957  0.78251  1.0000
  H   H319      1.0  0.14684  0.85963  0.70383  1.0000
  H   H320      1.0  0.08640  0.80042  0.72099  1.0000
  H   H321      1.0  0.28240  0.88109  0.76230  1.0000
  H   H322      1.0  0.35368  0.82575  0.76531  1.0000
  H   H323      1.0  0.21189  0.73476  0.76879  1.0000
  H   H324      1.0  0.32593  0.80528  0.78648  1.0000
  H   H325      1.0  0.39034  0.49273  0.75261  1.0000
  H   H326      1.0  0.29696  0.76335  0.67709  1.0000
  C   C199      1.0  0.32765  0.79247  0.77222  1.0000
  C   C200      1.0  0.34820  0.75967  0.77396  1.0000
  H   H327      1.0  0.02486  0.65207  0.87375  1.0000
  C   C201      1.0  0.42829  0.53881  0.78366  1.0000
  H   H328      1.0  0.43948  0.62050  0.76395  1.0000
  C   C202      1.0  0.17391  0.73163  0.90935  1.0000
  H   H329      1.0  0.04387  0.61228  0.91799  1.0000
  C   C203      1.0  0.14430  0.86059  0.68867  1.0000
  C   C204      1.0  0.38014  0.49861  0.68679  1.0000
  H   H330      1.0  0.35825  0.75207  0.76035  1.0000
  C   C205      1.0  0.35068  0.51998  0.78270  1.0000
  H   H331      1.0  0.32580  0.72511  0.78082  1.0000
  H   H332      1.0  0.23745  0.68951  0.72347  1.0000
  H   H333      1.0  0.25370  0.83535  0.77875  1.0000
  H   H334      1.0  0.38417  0.65241  0.86119  1.0000
  H   H335      1.0  0.20266  0.67042  0.78555  1.0000
  C   C206      1.0  0.09290  0.79306  0.93070  1.0000
  H   H336      1.0  0.25847  0.70354  0.79587  1.0000
  H   H337      1.0  0.16921  0.71018  0.92182  1.0000
  S   S57       1.0  0.19864  0.69921  0.68692  1.0000
  N   N15       1.0  0.28269  0.77076  0.76212  1.0000
  H   H338      1.0  0.31448  0.86759  0.77787  1.0000
  H   H339      1.0  0.18864  0.50760  0.85630  1.0000
  H   H340      1.0  0.32599  0.52876  0.77681  1.0000
  H   H341      1.0  0.28121  0.51217  0.68203  1.0000
  H   H342      1.0  0.28641  0.70996  0.74950  1.0000
  H   H343      1.0  0.16504  0.70772  0.89676  1.0000
  C   C207      1.0  0.28052  0.73961  0.74560  1.0000
  H   H344      1.0  0.22174  0.59667  0.68547  1.0000
  C   C208      1.0  0.40997  0.60028  0.77290  1.0000
  H   H345      1.0  0.09626  0.73407  0.88006  1.0000
  C   C209      1.0  0.23874  0.69555  0.78273  1.0000
  S   S58       1.0  0.44870  0.70592  0.83060  1.0000
  C   C210      1.0  0.24457  0.74306  0.77504  1.0000
  C   C211      1.0  0.28281  0.85094  0.76950  1.0000
  S   S59       1.0  0.43975  0.76794  0.68144  1.0000
  C   C212      1.0  0.27899  0.81263  0.75488  1.0000
  H   H346      1.0  0.24284  0.53506  0.84716  1.0000
  C   C213      1.0  0.03154  0.67379  0.88691  1.0000
  H   H347      1.0  0.30505  0.83265  0.74443  1.0000
  C   C214      1.0  0.07980  0.76255  0.91233  1.0000
  C   C215      1.0  0.35125  0.59958  0.69866  1.0000
  N   N16       1.0  0.39496  0.54666  0.77316  1.0000
  H   H348      1.0  0.00153  0.72489  0.70413  1.0000
  H   H349      1.0  0.32824  0.56717  0.70660  1.0000
  H   H350      1.0  0.14696  0.83036  0.68210  1.0000
  S   S60       1.0  0.45844  0.59337  0.83605  1.0000
  H   H351      1.0  0.39453  0.61201  0.80165  1.0000
  C   C216      1.0  0.35926  0.76376  0.67891  1.0000
  H   H352      1.0  0.35461  0.53287  0.79740  1.0000
  C   C217      1.0  0.11708  0.52602  0.67766  1.0000
  H   H353      1.0  0.12850  0.82327  0.93097  1.0000
  H   H354      1.0  0.01673  0.69136  0.68881  1.0000
  H   H355      1.0  0.00915  0.79994  0.70939  1.0000
  H   H356      1.0  0.37271  0.59081  0.69020  1.0000
  C   C218      1.0  0.32381  0.51326  0.86456  1.0000
  H   H357      1.0  0.08515  0.50443  0.81721  1.0000
  C   C219      1.0  0.35002  0.52102  0.74210  1.0000
  H   H358      1.0  0.06361  0.49165  0.76005  1.0000
  H   H359      1.0  0.04491  0.68120  0.92785  1.0000
  H   H360      1.0  0.35098  0.65269  0.68071  1.0000
  C   C220      1.0  0.24554  0.62327  0.67577  1.0000
  H   H361      1.0  0.07257  0.81089  0.93185  1.0000
  H   H362      1.0  0.19829  0.51228  0.77919  1.0000
  H   H363      1.0  0.13259  0.50935  0.77820  1.0000
  H   H364      1.0  0.37499  0.50577  0.82577  1.0000
  H   H365      1.0  0.04246  0.74206  0.91150  1.0000
  H   H366      1.0  0.35224  0.51040  0.72759  1.0000
  H   H367      1.0  0.01401  0.64760  0.89790  1.0000
  H   H368      1.0  0.01660  0.69702  0.88511  1.0000
  Fe  Fe30      1.0  0.73349  0.18037  0.16038  1.0000
  S   S61       1.0  0.70610  0.16574  0.18890  1.0000
  S   S62       1.0  0.74544  0.24670  0.14526  1.0000
  Fe  Fe31      1.0  0.72726  0.08143  0.15544  1.0000
  S   S63       1.0  0.69866  0.05865  0.18363  1.0000
  C   C221      1.0  0.78366  0.99709  0.11785  1.0000
  Fe  Fe32      1.0  0.65601  0.09111  0.17713  1.0000
  S   S64       1.0  0.58420  0.05450  0.18664  1.0000
  Fe  Fe33      1.0  0.75075  0.13482  0.19307  1.0000
  S   S65       1.0  0.79272  0.15275  0.21927  1.0000
  S   S66       1.0  0.67997  0.10778  0.14817  1.0000
  S   S67       1.0  0.78299  0.15592  0.16533  1.0000
  H   H369      1.0  0.49868  0.07284  0.28617  1.0000
  Fe  Fe34      1.0  0.71402  0.08619  0.31720  1.0000
  S   S68       1.0  0.69333  0.04036  0.29066  1.0000
  H   H370      1.0  0.60616  0.41367  0.29789  1.0000
  S   S69       1.0  0.67871  0.45498  0.19606  1.0000
  S   S70       1.0  0.59724  0.40597  0.15224  1.0000
  H   H371      1.0  0.59607  0.23921  0.32448  1.0000
  Fe  Fe35      1.0  0.66095  0.46336  0.16717  1.0000
  S   S71       1.0  0.77361  0.42684  0.19510  1.0000
  S   S72       1.0  0.72448  0.47347  0.15542  1.0000
  H   H372      1.0  0.54859  0.35223  0.25812  1.0000
  H   H373      1.0  0.70311  0.06899  0.22435  1.0000
  C   C222      1.0  0.79158  0.44868  0.11883  1.0000
  N   N17       1.0  0.59226  0.42551  0.26962  1.0000
  C   C223      1.0  0.75260  0.29589  0.15942  1.0000
  C   C224      1.0  0.76890  0.30242  0.17765  1.0000
  C   C225      1.0  0.77538  0.34285  0.18854  1.0000
  C   C226      1.0  0.76421  0.37586  0.18143  1.0000
  C   C227      1.0  0.74640  0.36822  0.16345  1.0000
  C   C228      1.0  0.74166  0.32904  0.15231  1.0000
  H   H374      1.0  0.77783  0.27719  0.18314  1.0000
  H   H375      1.0  0.78937  0.34877  0.20242  1.0000
  H   H376      1.0  0.73655  0.39262  0.15809  1.0000
  H   H377      1.0  0.72879  0.32388  0.13824  1.0000
  C   C229      1.0  0.76533  0.11926  0.23875  1.0000
  C   C230      1.0  0.72096  0.08010  0.23754  1.0000
  C   C231      1.0  0.69945  0.05528  0.25349  1.0000
  C   C232      1.0  0.72166  0.07065  0.27079  1.0000
  C   C233      1.0  0.76602  0.10980  0.27198  1.0000
  C   C234      1.0  0.78796  0.13362  0.25598  1.0000
  H   H378      1.0  0.82101  0.46633  0.15505  1.0000
  C   C235      1.0  0.52142  0.04878  0.33067  1.0000
  H   H379      1.0  0.78352  0.12188  0.28520  1.0000
  H   H380      1.0  0.82229  0.16391  0.25699  1.0000
  C   C236      1.0  0.54486  0.06581  0.17575  1.0000
  C   C237      1.0  0.54893  0.07906  0.15731  1.0000
  H   H381      1.0  0.54899  0.27579  0.32815  1.0000
  H   H382      1.0  0.57723  0.08363  0.14957  1.0000
  C   C238      1.0  0.60879  0.27055  0.33466  1.0000
  Fe  Fe36      1.0  0.75037  0.18872  0.33401  1.0000
  H   H383      1.0  0.64551  0.29435  0.33228  1.0000
  C   C239      1.0  0.82822  0.07007  0.31210  1.0000
  H   H384      1.0  0.88702  0.01616  0.18086  1.0000
  S   S73       1.0  0.56652  0.40748  0.33435  1.0000
  Fe  Fe37      1.0  0.74425  0.47083  0.18465  1.0000
  H   H385      1.0  0.48749  0.33281  0.28325  1.0000
  H   H386      1.0  0.51595  0.03806  0.31616  1.0000
  C   C240      1.0  0.63081  0.20720  0.15149  1.0000
  N   N18       1.0  0.74663  0.24323  0.26423  1.0000
  C   C241      1.0  0.79205  0.28037  0.27254  1.0000
  C   C242      1.0  0.71866  0.26699  0.26311  1.0000
  C   C243      1.0  0.75077  0.22658  0.24507  1.0000
  C   C244      1.0  0.72531  0.19929  0.27618  1.0000
  C   C245      1.0  0.82727  0.26453  0.27333  1.0000
  C   C246      1.0  0.70085  0.27435  0.28164  1.0000
  C   C247      1.0  0.77559  0.26738  0.23120  1.0000
  C   C248      1.0  0.67788  0.15763  0.26994  1.0000
  H   H387      1.0  0.80718  0.31531  0.26515  1.0000
  H   H388      1.0  0.78888  0.29068  0.28696  1.0000
  H   H389      1.0  0.68934  0.24615  0.25341  1.0000
  H   H390      1.0  0.73829  0.30386  0.25714  1.0000
  H   H391      1.0  0.76785  0.20528  0.24556  1.0000
  H   H392      1.0  0.71706  0.20063  0.23873  1.0000
  H   H393      1.0  0.74600  0.18197  0.27666  1.0000
  H   H394      1.0  0.72478  0.20957  0.29094  1.0000
  H   H395      1.0  0.81743  0.23384  0.28271  1.0000
  H   H396      1.0  0.83464  0.25507  0.25949  1.0000
  H   H397      1.0  0.85929  0.29565  0.27917  1.0000
  H   H398      1.0  0.67525  0.23898  0.28730  1.0000
  H   H399      1.0  0.72815  0.29483  0.29212  1.0000
  H   H400      1.0  0.68447  0.29604  0.27939  1.0000
  H   H401      1.0  0.77596  0.25027  0.21767  1.0000
  H   H402      1.0  0.81118  0.29274  0.23545  1.0000
  H   H403      1.0  0.75844  0.28814  0.22888  1.0000
  H   H404      1.0  0.67997  0.13201  0.25987  1.0000
  H   H405      1.0  0.65709  0.17087  0.26368  1.0000
  H   H406      1.0  0.65949  0.13703  0.28218  1.0000
  H   H407      1.0  0.58001  0.17871  0.17163  1.0000
  H   H408      1.0  0.65330  0.45797  0.28650  1.0000
  C   C249      1.0  0.50774  0.05950  0.18562  1.0000
  C   C250      1.0  0.82419  0.07155  0.13674  1.0000
  H   H409      1.0  0.82882  0.03902  0.33809  1.0000
  S   S74       1.0  0.73113  0.02490  0.13673  1.0000
  C   C251      1.0  0.76452  0.34417  0.33163  1.0000
  H   H410      1.0  0.55033  0.00861  0.12859  1.0000
  H   H411      1.0  0.57738  0.40802  0.19100  1.0000
  H   H412      1.0  0.84715  0.06180  0.30195  1.0000
  S   S75       1.0  0.68147  0.12909  0.32487  1.0000
  H   H413      1.0  0.55857  0.42116  0.23333  1.0000
  H   H414      1.0  0.77941  0.03800  0.33271  1.0000
  H   H415      1.0  0.96134  0.03675  0.17067  1.0000
  C   C252      1.0  0.52459  0.35178  0.28509  1.0000
  C   C253      1.0  0.57126  0.47316  0.29319  1.0000
  H   H416      1.0  0.51271  0.34908  0.20933  1.0000
  H   H417      1.0  0.61896  0.17207  0.14368  1.0000
  H   H418      1.0  0.56495  0.47199  0.26395  1.0000
  H   H419      1.0  0.56219  0.22749  0.20533  1.0000
  H   H420      1.0  0.53578  0.44420  0.29490  1.0000
  H   H421      1.0  0.65108  0.37906  0.29262  1.0000
  H   H422      1.0  0.89299  0.02303  0.15657  1.0000
  C   C254      1.0  0.51742  0.32156  0.15725  1.0000
  C   C255      1.0  0.54654  0.37949  0.26738  1.0000
  C   C256      1.0  0.86539  0.03931  0.12018  1.0000
  C   C257      1.0  0.63561  0.38386  0.27996  1.0000
  C   C258      1.0  0.86493  0.07506  0.13185  1.0000
  H   H423      1.0  0.91186  0.47308  0.10792  1.0000
  C   C259      1.0  0.93305  0.99815  0.16979  1.0000
  H   H424      1.0  0.50782  0.21430  0.19814  1.0000
  H   H425      1.0  0.53313  0.37492  0.29779  1.0000
  H   H426      1.0  0.63291  0.19974  0.33011  1.0000
  C   C260      1.0  0.88883  0.99797  0.16786  1.0000
  H   H427      1.0  0.58523  0.05237  0.33228  1.0000
  H   H428      1.0  0.50406  0.04860  0.19981  1.0000
  H   H429      1.0  0.89633  0.10545  0.13734  1.0000
  C   C261      1.0  0.78327  0.03242  0.12985  1.0000
  C   C262      1.0  0.58610  0.29929  0.32892  1.0000
  H   H430      1.0  0.59155  0.25021  0.12804  1.0000
  H   H431      1.0  0.51818  0.31432  0.14262  1.0000
  H   H432      1.0  0.60548  0.04052  0.11905  1.0000
  H   H433      1.0  0.86989  0.45857  0.13405  1.0000
  H   H434      1.0  0.52734  0.17574  0.18958  1.0000
  H   H435      1.0  0.52188  0.03421  0.26544  1.0000
  H   H436      1.0  0.60652  0.34772  0.27557  1.0000
  H   H437      1.0  0.82451  0.09904  0.14595  1.0000
  N   N19       1.0  0.59965  0.25466  0.16897  1.0000
  C   C263      1.0  0.63597  0.27187  0.18376  1.0000
  C   C264      1.0  0.59061  0.20635  0.16079  1.0000
  C   C265      1.0  0.55667  0.24767  0.17675  1.0000
  C   C266      1.0  0.61517  0.29294  0.15451  1.0000
  C   C267      1.0  0.64690  0.31908  0.19474  1.0000
  H   H438      1.0  0.64758  0.23659  0.14149  1.0000
  C   C268      1.0  0.53816  0.21427  0.19340  1.0000
  C   C269      1.0  0.58713  0.27724  0.13628  1.0000
  H   H439      1.0  0.62804  0.24267  0.19372  1.0000
  H   H440      1.0  0.66809  0.27948  0.17765  1.0000
  H   H441      1.0  0.56190  0.19075  0.15063  1.0000
  H   H442      1.0  0.65583  0.21053  0.16197  1.0000
  H   H443      1.0  0.56046  0.28346  0.18095  1.0000
  H   H444      1.0  0.52920  0.23152  0.16603  1.0000
  H   H445      1.0  0.61526  0.32599  0.15998  1.0000
  H   H446      1.0  0.65061  0.30657  0.15089  1.0000
  H   H447      1.0  0.65976  0.35080  0.18566  1.0000
  H   H448      1.0  0.61777  0.31510  0.20238  1.0000
  H   H449      1.0  0.67416  0.32814  0.20509  1.0000
  H   H450      1.0  0.87741  0.01804  0.32714  1.0000
  C   C270      1.0  0.59514  0.44716  0.23522  1.0000
  C   C271      1.0  0.51586  0.08561  0.14877  1.0000
  H   H451      1.0  0.61695  0.40131  0.24659  1.0000
  H   H452      1.0  0.59460  0.00633  0.15228  1.0000
  S   S76       1.0  0.77148  0.26388  0.32404  1.0000
  H   H453      1.0  0.53206  0.32225  0.28721  1.0000
  H   H454      1.0  0.59882  0.30992  0.12774  1.0000
  H   H455      1.0  0.82772  0.02542  0.17937  1.0000
  H   H456      1.0  0.66169  0.39690  0.26928  1.0000
  C   C272      1.0  0.55235  0.36482  0.16566  1.0000
  C   C273      1.0  0.80454  0.03058  0.32649  1.0000
  H   H457      1.0  0.65149  0.46395  0.25309  1.0000
  H   H458      1.0  0.51893  0.09537  0.13443  1.0000
  C   C274      1.0  0.51427  0.34109  0.19484  1.0000
  H   H459      1.0  0.77128  0.35184  0.31719  1.0000
  S   S77       1.0  0.78352  0.14819  0.32382  1.0000
  H   H460      1.0  0.77868  0.01391  0.28377  1.0000
  C   C275      1.0  0.55089  0.37439  0.18452  1.0000
  C   C276      1.0  0.61581  0.43412  0.25144  1.0000
  H   H461      1.0  0.59698  0.31334  0.31491  1.0000
  H   H462      1.0  0.66514  0.02495  0.25248  1.0000
  H   H463      1.0  0.59305  0.47356  0.30453  1.0000
  H   H464      1.0  0.52227  0.38737  0.26044  1.0000
  S   S78       1.0  0.91775  0.04395  0.11573  1.0000
  C   C277      1.0  0.58821  0.46970  0.27400  1.0000
  S   S79       1.0  0.68277  0.42148  0.33255  1.0000
  H   H465      1.0  0.80380  0.07688  0.30484  1.0000
  H   H466      1.0  0.75794  0.40694  0.33723  1.0000
  H   H467      1.0  0.55096  0.26223  0.13855  1.0000
  H   H468      1.0  0.63437  0.00593  0.13784  1.0000
  C   C278      1.0  0.57851  0.00445  0.12375  1.0000
  H   H469      1.0  0.59588  0.33147  0.33825  1.0000
  H   H470      1.0  0.50543  0.11425  0.25783  1.0000
  C   C279      1.0  0.62177  0.42195  0.28419  1.0000
  H   H471      1.0  0.81009  0.43152  0.11323  1.0000
  C   C280      1.0  0.82448  0.00038  0.11308  1.0000
  S   S80       1.0  0.97583  0.99371  0.07980  1.0000
  H   H472      1.0  0.77440  0.43049  0.13151  1.0000
  H   H473      1.0  0.85389  0.10469  0.31935  1.0000
  H   H474      1.0  0.61126  0.44583  0.22225  1.0000
  H   H475      1.0  0.76469  0.44113  0.10850  1.0000
  H   H476      1.0  0.60211  0.48524  0.23687  1.0000
  C   C281      1.0  0.48763  0.00965  0.27062  1.0000
  H   H477      1.0  0.85193  0.00088  0.48255  1.0000
  H   H478      1.0  0.88043  0.07256  0.41699  1.0000
  C   C282      1.0  0.86348  0.07113  0.47469  1.0000
  S   S81       1.0  0.95084  0.03092  0.61802  1.0000
  Fe  Fe38      1.0  0.77285  0.11731  0.35222  1.0000
  N   N20       1.0  0.88785  0.01625  0.45700  1.0000
  S   S82       1.0  0.83458  0.11806  0.36398  1.0000
  Fe  Fe39      1.0  0.67788  0.10107  0.35318  1.0000
  S   S83       1.0  0.61708  0.08069  0.37042  1.0000
  C   C283      1.0  0.53530  0.07454  0.36833  1.0000
  S   S84       1.0  0.74547  0.16385  0.36301  1.0000
  C   C284      1.0  0.55158  0.21776  0.35619  1.0000
  C   C285      1.0  0.48920  0.05418  0.34028  1.0000
  H   H479      1.0  0.94643  0.09034  0.45978  1.0000
  H   H480      1.0  0.81567  0.00996  0.63618  1.0000
  S   S85       1.0  0.73671  0.40387  0.37590  1.0000
  C   C286      1.0  0.84735  0.99285  0.38767  1.0000
  C   C287      1.0  0.56074  0.05690  0.33978  1.0000
  C   C288      1.0  0.75657  0.29489  0.35778  1.0000
  C   C289      1.0  0.74983  0.32684  0.36923  1.0000
  C   C290      1.0  0.74900  0.36657  0.36177  1.0000
  H   H481      1.0  0.95920  0.04520  0.45421  1.0000
  C   C291      1.0  0.84672  0.99151  0.66567  1.0000
  H   H482      1.0  0.75660  0.26400  0.36359  1.0000
  H   H483      1.0  0.74462  0.32031  0.38383  1.0000
  H   H484      1.0  0.62556  0.21597  0.37151  1.0000
  H   H485      1.0  0.63894  0.32716  0.39519  1.0000
  H   H486      1.0  0.59154  0.30769  0.36841  1.0000
  C   C292      1.0  0.87993  0.02303  0.43705  1.0000
  C   C293      1.0  0.56778  0.06969  0.35867  1.0000
  H   H487      1.0  0.91770  0.03846  0.38233  1.0000
  C   C294      1.0  0.61746  0.29740  0.36715  1.0000
  H   H488      1.0  0.76836  0.02456  0.37927  1.0000
  C   C295      1.0  0.88591  0.07280  0.43212  1.0000
  H   H489      1.0  0.55785  0.17979  0.38039  1.0000
  C   C296      1.0  0.54515  0.35587  0.36634  1.0000
  H   H490      1.0  0.50272  0.15881  0.37256  1.0000
  S   S86       1.0  0.70456  0.05220  0.34487  1.0000
  H   H491      1.0  0.60588  0.26188  0.39424  1.0000
  S   S87       1.0  0.97794  0.00032  0.41704  1.0000
  C   C297      1.0  0.83846  0.06966  0.37357  1.0000
  C   C298      1.0  0.88062  0.07341  0.37468  1.0000
  C   C299      1.0  0.88509  0.03514  0.38162  1.0000
  H   H492      1.0  0.83440  0.07429  0.47017  1.0000
  H   H493      1.0  0.58309  0.15894  0.34278  1.0000
  H   H494      1.0  0.90998  0.10603  0.37000  1.0000
  C   C300      1.0  0.85458  0.01936  0.46935  1.0000
  H   H495      1.0  0.57595  0.38602  0.37235  1.0000
  Fe  Fe40      1.0  0.64022  0.45147  0.34198  1.0000
  C   C301      1.0  0.51795  0.31473  0.37679  1.0000
  Fe  Fe41      1.0  0.71961  0.45170  0.35964  1.0000
  H   H496      1.0  0.86648  0.07690  0.48997  1.0000
  C   C302      1.0  0.63184  0.29381  0.38700  1.0000
  H   H497      1.0  0.54044  0.08413  0.38296  1.0000
  H   H498      1.0  0.63695  0.16878  0.34938  1.0000
  C   C303      1.0  0.53612  0.19255  0.37474  1.0000
  N   N21       1.0  0.60119  0.25311  0.35422  1.0000
  H   H499      1.0  0.92880  0.06090  0.49269  1.0000
  H   H500      1.0  0.90336  0.05374  0.65217  1.0000
  H   H501      1.0  0.90237  0.01670  0.42798  1.0000
  H   H502      1.0  0.86206  0.00574  0.62847  1.0000
  H   H503      1.0  0.52803  0.31318  0.39082  1.0000
  H   H504      1.0  0.64730  0.32994  0.36151  1.0000
  H   H505      1.0  0.53255  0.21663  0.38510  1.0000
  H   H506      1.0  0.86020  0.07880  0.43851  1.0000
  C   C304      1.0  0.62886  0.22966  0.35735  1.0000
  C   C305      1.0  0.61928  0.18687  0.34396  1.0000
  C   C306      1.0  0.80080  0.02745  0.37970  1.0000
  H   H507      1.0  0.66353  0.29325  0.38714  1.0000
  C   C307      1.0  0.93617  0.05217  0.46266  1.0000
  C   C308      1.0  0.53238  0.35781  0.34815  1.0000
  C   C309      1.0  0.49223  0.31883  0.34052  1.0000
  H   H508      1.0  0.89374  0.10182  0.46881  1.0000
  C   C310      1.0  0.49628  0.06720  0.35914  1.0000
  H   H509      1.0  0.91691  0.01036  0.66138  1.0000
  H   H510      1.0  0.97540  0.11752  0.64029  1.0000
  C   C311      1.0  0.75684  0.37541  0.34298  1.0000
  S   S88       1.0  0.67339  0.47671  0.37005  1.0000
  H   H511      1.0  0.66508  0.25750  0.35628  1.0000
  H   H512      1.0  0.92015  0.10412  0.43521  1.0000
  C   C312      1.0  0.94875  0.05222  0.48318  1.0000
  H   H513      1.0  0.98462  0.08077  0.48567  1.0000
  C   C313      1.0  0.89724  0.02858  0.66353  1.0000
  H   H514      1.0  0.94565  0.01722  0.48698  1.0000
  H   H515      1.0  0.53739  0.18908  0.34486  1.0000
  H   H516      1.0  0.82977  0.01284  0.66805  1.0000
  H   H517      1.0  0.53264  0.23694  0.35446  1.0000
  H   H518      1.0  0.84504  0.99562  0.43233  1.0000
  H   H519      1.0  0.82027  0.99848  0.46287  1.0000
  C   C314      1.0  0.80526  0.98924  0.38670  1.0000
  C   C315      1.0  0.76365  0.30337  0.33892  1.0000
  H   H520      1.0  0.92842  0.09156  0.93100  1.0000
  S   S89       1.0  0.95323  0.03935  0.87927  1.0000
  H   H521      1.0  0.95667  0.06801  0.91809  1.0000
  H   H522      1.0  0.97633  0.13271  0.91834  1.0000
  H   H523      1.0  0.88052  0.02385  0.97593  1.0000
  H   H524      1.0  0.96664  0.13195  0.86897  1.0000
  C   C316      1.0  0.96221  0.09974  0.92680  1.0000
  H   H525      1.0  0.91083  0.05178  0.67640  1.0000
  H   H526      1.0  0.97409  0.07268  0.95198  1.0000
  Fe  Fe42      1.0  0.91206  0.88342  0.11240  1.0000
  S   S90       1.0  0.96386  0.95940  0.12252  1.0000
  S   S91       1.0  0.88315  0.83391  0.13693  1.0000
  Fe  Fe43      1.0  0.92344  0.91565  0.07195  1.0000
  H   H527      1.0  0.78475  0.59754  0.31846  1.0000
  H   H528      1.0  0.71870  0.92421  0.30685  1.0000
  H   H529      1.0  0.73579  0.62948  0.32470  1.0000
  N   N22       1.0  0.86131  0.52174  0.13532  1.0000
  C   C317      1.0  0.87689  0.52337  0.17053  1.0000
  H   H530      1.0  0.85827  0.95397  0.13505  1.0000
  S   S92       1.0  0.87542  0.90898  0.09435  1.0000
  Fe  Fe44      1.0  0.75376  0.55427  0.16117  1.0000
  C   C318      1.0  0.88436  0.67705  0.28229  1.0000
  S   S93       1.0  0.79871  0.60309  0.13868  1.0000
  C   C319      1.0  0.89775  0.60320  0.11748  1.0000
  C   C320      1.0  0.60361  0.92694  0.15676  1.0000
  H   H531      1.0  0.86909  0.87961  0.19404  1.0000
  H   H532      1.0  0.56784  0.98029  0.11121  1.0000
  C   C321      1.0  0.83813  0.91544  0.18026  1.0000
  H   H533      1.0  0.89619  0.50442  0.16993  1.0000
  H   H534      1.0  0.51859  0.87755  0.15600  1.0000
  C   C322      1.0  0.49124  0.89724  0.13384  1.0000
  H   H535      1.0  0.52647  0.93722  0.15889  1.0000
  H   H536      1.0  0.96148  0.98360  0.03214  1.0000
  H   H537      1.0  0.89962  0.71727  0.28173  1.0000
  H   H538      1.0  0.75495  0.90769  0.33277  1.0000
  C   C323      1.0  0.85853  0.76951  0.13677  1.0000
  C   C324      1.0  0.85958  0.74291  0.12131  1.0000
  C   C325      1.0  0.84098  0.69191  0.12209  1.0000
  C   C326      1.0  0.82059  0.66700  0.13820  1.0000
  C   C327      1.0  0.81940  0.69364  0.15362  1.0000
  C   C328      1.0  0.83858  0.74470  0.15293  1.0000
  H   H539      1.0  0.87479  0.76158  0.10878  1.0000
  H   H540      1.0  0.84193  0.67157  0.11007  1.0000
  H   H541      1.0  0.80393  0.67492  0.16611  1.0000
  H   H542      1.0  0.83773  0.76497  0.16498  1.0000
  N   N23       1.0  0.84692  0.66531  0.31394  1.0000
  H   H543      1.0  0.89995  0.56357  0.17148  1.0000
  C   C329      1.0  0.95108  0.95995  0.01983  1.0000
  C   C330      1.0  0.92163  0.90956  0.02128  1.0000
  Fe  Fe45      1.0  0.92960  0.98497  0.10324  1.0000
  H   H544      1.0  0.75224  0.96672  0.11239  1.0000
  H   H545      1.0  0.55587  0.90782  0.11339  1.0000
  H   H546      1.0  0.78072  0.88783  0.13399  1.0000
  H   H547      1.0  0.96142  0.74961  0.15217  1.0000
  H   H548      1.0  0.49757  0.92726  0.12475  1.0000
  C   C331      1.0  0.74611  0.52267  0.27584  1.0000
  H   H549      1.0  0.87679  0.91918  0.14594  1.0000
  H   H550      1.0  0.94268  0.74233  0.12836  1.0000
  H   H551      1.0  0.80211  0.97024  0.19272  1.0000
  H   H552      1.0  0.87406  0.59430  0.30286  1.0000
  H   H553      1.0  0.84848  0.95591  0.33516  1.0000
  H   H554      1.0  0.81915  0.66561  0.28701  1.0000
  S   S94       1.0  0.70201  0.57016  0.22486  1.0000
  H   H555      1.0  0.92444  0.58905  0.14187  1.0000
  H   H556      1.0  0.90952  0.66857  0.28762  1.0000
  S   S95       1.0  0.76175  0.50161  0.29502  1.0000
  H   H557      1.0  0.82430  0.97275  0.10400  1.0000
  C   C332      1.0  0.80621  0.87975  0.13937  1.0000
  H   H558      1.0  0.87633  0.59385  0.14522  1.0000
  C   C333      1.0  0.84934  0.92710  0.14608  1.0000
  H   H559      1.0  0.56520  0.91540  0.18228  1.0000
  H   H560      1.0  0.77530  0.92271  0.16100  1.0000
  C   C334      1.0  0.72520  0.55012  0.27789  1.0000
  H   H561      1.0  0.69383  0.92691  0.33670  1.0000
  C   C335      1.0  0.86150  0.88504  0.17967  1.0000
  H   H562      1.0  0.74876  0.51759  0.22885  1.0000
  H   H563      1.0  0.93451  0.98111  0.18272  1.0000
  C   C336      1.0  0.97096  0.76523  0.13827  1.0000
  H   H564      1.0  0.48924  0.98529  0.28092  1.0000
  C   C337      1.0  0.86725  0.71969  0.31714  1.0000
  H   H565      1.0  0.80154  0.88803  0.18088  1.0000
  C   C338      1.0  0.59871  0.94116  0.17680  1.0000
  H   H566      1.0  0.83274  0.51903  0.10796  1.0000
  H   H567      1.0  0.56280  0.86757  0.12725  1.0000
  H   H568      1.0  0.78696  0.87492  0.01601  1.0000
  Fe  Fe46      1.0  0.71117  0.53660  0.19870  1.0000
  C   C339      1.0  0.62412  0.92638  0.11647  1.0000
  S   S96       1.0  0.68793  0.54437  0.17046  1.0000
  H   H569      1.0  0.84799  0.73299  0.30937  1.0000
  H   H570      1.0  0.90175  0.74002  0.31167  1.0000
  C   C340      1.0  0.75523  0.51185  0.25814  1.0000
  C   C341      1.0  0.75349  0.97527  0.28614  1.0000
  H   H571      1.0  0.81425  0.86249  0.12768  1.0000
  S   S97       1.0  0.68354  0.52382  0.32914  1.0000
  H   H572      1.0  0.57223  0.50851  0.29464  1.0000
  C   C342      1.0  0.57732  0.90720  0.12467  1.0000
  H   H573      1.0  0.85854  0.51312  0.18369  1.0000
  H   H574      1.0  0.62393  0.93970  0.18590  1.0000
  C   C343      1.0  0.80155  0.63707  0.32259  1.0000
  N   N24       1.0  0.84655  0.94885  0.16445  1.0000
  H   H575      1.0  0.84760  0.93665  0.19368  1.0000
  C   C344      1.0  0.76507  0.94629  0.33646  1.0000
  C   C345      1.0  0.80790  0.95779  0.16285  1.0000
  C   C346      1.0  0.85737  0.97872  0.32282  1.0000
  C   C347      1.0  0.74245  0.52715  0.24246  1.0000
  C   C348      1.0  0.84230  0.50676  0.15432  1.0000
  H   H576      1.0  0.64708  0.92202  0.12591  1.0000
  H   H577      1.0  0.79165  0.85252  0.15028  1.0000
  H   H578      1.0  0.89352  0.90154  0.17235  1.0000
  C   C349      1.0  0.84093  0.65356  0.29342  1.0000
  C   C350      1.0  0.71312  0.56624  0.26218  1.0000
  S   S98       1.0  0.77892  0.55230  0.18968  1.0000
  S   S99       1.0  0.95503  0.88323  0.08954  1.0000
  H   H579      1.0  0.87670  0.65273  0.33804  1.0000
  H   H580      1.0  0.87579  0.66217  0.26780  1.0000
  H   H581      1.0  0.59489  0.88803  0.15685  1.0000
  H   H582      1.0  0.82290  0.61328  0.29055  1.0000
  C   C351      1.0  0.76785  0.65345  0.31778  1.0000
  H   H583      1.0  0.96480  0.82357  0.12613  1.0000
  S   S100      1.0  0.89815  0.88275  0.04268  1.0000
  H   H584      1.0  0.69664  0.58714  0.26373  1.0000
  N   N25       1.0  0.57630  0.93385  0.14203  1.0000
  C   C352      1.0  0.72120  0.55418  0.24443  1.0000
  H   H585      1.0  0.76005  0.65032  0.30277  1.0000
  Fe  Fe47      1.0  0.72939  0.49620  0.32233  1.0000
  H   H586      1.0  0.77934  0.69114  0.32305  1.0000
  H   H587      1.0  0.83836  0.84764  0.17369  1.0000
  C   C353      1.0  0.52877  0.91187  0.14862  1.0000
  H   H588      1.0  0.97377  0.89549  0.15618  1.0000
  H   H589      1.0  0.71827  0.55880  0.29152  1.0000
  H   H590      1.0  0.80036  0.51910  0.12640  1.0000
  C   C354      1.0  0.98070  0.81839  0.13864  1.0000
  H   H591      1.0  0.82011  0.52151  0.15761  1.0000
  H   H592      1.0  0.64017  0.94870  0.15391  1.0000
  H   H593      1.0  0.86656  0.60175  0.11269  1.0000
  H   H594      1.0  0.93928  0.98080  0.15770  1.0000
  H   H595      1.0  0.81118  0.97864  0.15037  1.0000
  H   H596      1.0  0.62051  0.90484  0.10357  1.0000
  C   C355      1.0  0.89053  0.57704  0.13587  1.0000
  H   H597      1.0  0.92338  0.64261  0.11978  1.0000
  H   H598      1.0  0.90980  0.58852  0.10644  1.0000
  H   H599      1.0  0.96070  0.82068  0.15011  1.0000
  C   C356      1.0  0.82204  0.50459  0.12190  1.0000
  H   H600      1.0  0.64002  0.96523  0.11267  1.0000
  H   H601      1.0  0.79860  0.92739  0.30644  1.0000
  H   H602      1.0  0.83278  0.57041  0.32051  1.0000
  C   C357      1.0  0.87188  0.73751  0.33753  1.0000
  H   H603      1.0  0.82644  0.93242  0.00702  1.0000
  H   H604      1.0  0.91847  0.51350  0.14065  1.0000
  H   H605      1.0  0.88598  0.84042  0.00604  1.0000
  C   C358      1.0  0.86766  0.59857  0.31755  1.0000
  H   H606      1.0  0.62141  0.50391  0.27265  1.0000
  H   H607      1.0  0.88465  0.50360  0.10058  1.0000
  H   H608      1.0  0.94059  0.53890  0.11083  1.0000
  C   C359      1.0  0.87774  0.65065  0.32267  1.0000
  H   H609      1.0  0.91341  0.67660  0.31936  1.0000
  H   H610      1.0  0.88662  0.77782  0.33817  1.0000
  H   H611      1.0  0.88993  0.59064  0.32599  1.0000
  C   C360      1.0  0.88867  0.49834  0.13110  1.0000
  C   C361      1.0  0.90750  0.50452  0.11152  1.0000
  H   H612      1.0  0.80498  0.63850  0.33792  1.0000
  H   H613      1.0  0.76397  0.95100  0.27952  1.0000
  H   H614      1.0  0.60493  0.97879  0.17816  1.0000
  C   C362      1.0  0.81572  0.96687  0.31082  1.0000
  C   C363      1.0  0.74340  0.96432  0.30675  1.0000
  H   H615      1.0  0.87966  0.97051  0.31455  1.0000
  C   C364      1.0  0.59745  0.98805  0.13952  1.0000
  H   H616      1.0  0.72473  0.98246  0.31141  1.0000
  H   H617      1.0  0.72214  0.96754  0.27876  1.0000
  N   N26       1.0  0.78268  0.97788  0.31980  1.0000
  H   H618      1.0  0.82874  0.98680  0.29791  1.0000
  H   H619      1.0  0.77162  0.49085  0.25649  1.0000
  C   C365      1.0  0.80194  0.98579  0.17924  1.0000
  H   H620      1.0  0.76904  0.98352  0.17749  1.0000
  H   H621      1.0  0.80004  0.71945  0.43114  1.0000
  C   C366      1.0  0.96285  0.93697  0.52165  1.0000
  H   H622      1.0  0.54453  0.63070  0.62827  1.0000
  H   H623      1.0  0.60493  0.63792  0.64485  1.0000
  H   H624      1.0  0.62151  0.64660  0.58008  1.0000
  S   S101      1.0  0.87464  0.90681  0.59135  1.0000
  Fe  Fe48      1.0  0.56848  0.74838  0.65405  1.0000
  S   S102      1.0  0.62494  0.79382  0.63427  1.0000
  H   H625      1.0  0.88614  0.95818  0.47275  1.0000
  H   H626      1.0  0.80693  0.92205  0.45853  1.0000
  H   H627      1.0  0.82063  0.86039  0.66182  1.0000
  Fe  Fe49      1.0  0.94344  0.86618  0.40522  1.0000
  H   H628      1.0  0.89480  0.73010  0.34570  1.0000
  S   S103      1.0  0.92917  0.78927  0.39868  1.0000
  Fe  Fe50      1.0  0.91409  0.94121  0.40314  1.0000
  H   H629      1.0  0.96486  0.74787  0.45583  1.0000
  S   S104      1.0  0.90326  0.88522  0.42414  1.0000
  S   S105      1.0  0.93443  0.90329  0.62597  1.0000
  Fe  Fe51      1.0  0.91488  0.88670  0.57261  1.0000
  S   S106      1.0  0.90712  0.82603  0.59073  1.0000
  S   S107      1.0  0.89243  0.86676  0.54204  1.0000
  Fe  Fe52      1.0  0.87090  0.85015  0.61011  1.0000
  S   S108      1.0  0.81014  0.79805  0.62694  1.0000
  H   H630      1.0  0.49787  0.65071  0.61444  1.0000
  Fe  Fe53      1.0  0.72104  0.54752  0.35659  1.0000
  H   H631      1.0  0.90565  0.65912  0.45790  1.0000
  S   S109      1.0  0.73776  0.62278  0.36727  1.0000
  H   H632      1.0  0.51639  0.64298  0.59272  1.0000
  C   C367      1.0  0.87613  0.74363  0.38959  1.0000
  C   C368      1.0  0.86873  0.69688  0.38495  1.0000
  C   C369      1.0  0.82643  0.65930  0.37815  1.0000
  C   C370      1.0  0.79119  0.66825  0.37609  1.0000
  C   C371      1.0  0.79863  0.71496  0.38081  1.0000
  C   C372      1.0  0.84096  0.75259  0.38749  1.0000
  H   H633      1.0  0.89577  0.68965  0.38668  1.0000
  H   H634      1.0  0.82098  0.62338  0.37466  1.0000
  H   H635      1.0  0.77149  0.72210  0.37923  1.0000
  H   H636      1.0  0.84626  0.78841  0.39110  1.0000
  H   H637      1.0  0.94330  0.67128  0.43950  1.0000
  S   S110      1.0  0.94966  0.91768  0.38327  1.0000
  H   H638      1.0  0.58585  0.57198  0.59728  1.0000
  C   C373      1.0  0.91999  0.89505  0.52143  1.0000
  C   C374      1.0  0.89776  0.87471  0.50427  1.0000
  C   C375      1.0  0.91812  0.89576  0.48752  1.0000
  S   S111      1.0  0.55528  0.67686  0.66489  1.0000
  H   H639      1.0  0.90264  0.81677  0.45422  1.0000
  H   H640      1.0  0.90038  0.88008  0.47449  1.0000
  C   C376      1.0  0.67611  0.79429  0.63248  1.0000
  C   C377      1.0  0.68947  0.77202  0.64538  1.0000
  C   C378      1.0  0.73042  0.77324  0.64340  1.0000
  C   C379      1.0  0.75865  0.79705  0.62862  1.0000
  C   C380      1.0  0.74518  0.81912  0.61567  1.0000
  C   C381      1.0  0.70417  0.81779  0.61762  1.0000
  H   H641      1.0  0.66826  0.75384  0.65689  1.0000
  H   H642      1.0  0.74047  0.75591  0.65346  1.0000
  H   H643      1.0  0.76624  0.83692  0.60410  1.0000
  H   H644      1.0  0.69407  0.83499  0.60753  1.0000
  C   C382      1.0  0.84649  0.92629  0.64549  1.0000
  C   C383      1.0  0.86067  0.72184  0.44072  1.0000
  H   H645      1.0  0.82805  0.89872  0.63415  1.0000
  C   C384      1.0  0.77462  0.92102  0.65357  1.0000
  H   H646      1.0  0.66239  0.65483  0.64358  1.0000
  H   H647      1.0  0.62019  0.59540  0.63521  1.0000
  C   C385      1.0  0.93488  0.73290  0.44641  1.0000
  C   C386      1.0  0.79942  0.95293  0.61560  1.0000
  N   N27       1.0  0.58991  0.63949  0.60638  1.0000
  Fe  Fe54      1.0  0.97104  0.88415  0.60514  1.0000
  H   H648      1.0  0.54137  0.70301  0.60413  1.0000
  C   C387      1.0  0.62922  0.63424  0.63619  1.0000
  H   H649      1.0  0.87077  0.75358  0.49811  1.0000
  C   C388      1.0  0.83533  0.92214  0.45166  1.0000
  H   H650      1.0  0.84872  0.77876  0.43071  1.0000
  C   C389      1.0  0.89160  0.73319  0.47280  1.0000
  H   H651      1.0  0.63144  0.72988  0.57326  1.0000
  H   H652      1.0  0.83818  0.68366  0.44513  1.0000
  Fe  Fe55      1.0  0.94065  0.95885  0.60605  1.0000
  H   H653      1.0  0.57280  0.64994  0.57843  1.0000
  H   H654      1.0  0.82618  0.72214  0.48087  1.0000
  C   C390      1.0  0.83160  0.74539  0.43895  1.0000
  H   H655      1.0  0.73166  0.98089  0.35066  1.0000
  C   C391      1.0  0.56297  0.65648  0.61712  1.0000
  S   S112      1.0  0.85086  0.94363  0.39662  1.0000
  C   C392      1.0  0.63135  0.71747  0.58746  1.0000
  S   S113      1.0  0.49685  0.71820  0.64388  1.0000
  H   H656      1.0  0.71620  0.92180  0.35824  1.0000
  H   H657      1.0  0.58591  0.69238  0.62430  1.0000
  H   H658      1.0  0.94786  0.74816  0.43261  1.0000
  H   H659      1.0  0.86440  0.84263  0.50400  1.0000
  Fe  Fe56      1.0  0.96950  0.94286  0.43679  1.0000
  H   H660      1.0  0.86955  0.71808  0.42628  1.0000
  H   H661      1.0  0.83380  0.88757  0.45516  1.0000
  N   N28       1.0  0.82380  0.95490  0.64978  1.0000
  H   H662      1.0  0.93526  0.81266  0.43676  1.0000
  H   H663      1.0  0.66687  0.73066  0.59140  1.0000
  H   H664      1.0  0.87312  0.69265  0.47357  1.0000
  N   N29       1.0  0.90245  0.74805  0.45306  1.0000
  H   H665      1.0  0.65557  0.64660  0.60877  1.0000
  H   H666      1.0  0.98033  0.95309  0.53472  1.0000
  H   H667      1.0  0.65281  0.69590  0.61921  1.0000
  C   C393      1.0  0.60248  0.66105  0.58753  1.0000
  H   H668      1.0  0.86895  0.78587  0.47927  1.0000
  C   C394      1.0  0.56481  0.58439  0.60434  1.0000
  H   H669      1.0  0.50534  0.51976  0.59290  1.0000
  H   H670      1.0  0.83911  0.72142  0.34433  1.0000
  H   H671      1.0  0.77591  0.95678  0.39147  1.0000
  C   C395      1.0  0.91622  0.67721  0.44450  1.0000
  C   C396      1.0  0.92534  0.80278  0.45128  1.0000
  H   H672      1.0  0.92258  0.74514  0.48139  1.0000
  H   H673      1.0  0.95983  0.82916  0.47863  1.0000
  H   H674      1.0  0.83071  0.92059  0.43643  1.0000
  H   H675      1.0  0.81070  0.92810  0.61044  1.0000
  C   C397      1.0  0.96757  0.83392  0.46373  1.0000
  S   S114      1.0  0.77031  0.52469  0.34881  1.0000
  H   H676      1.0  0.49416  0.56467  0.60198  1.0000
  C   C398      1.0  0.52833  0.66349  0.60608  1.0000
  H   H677      1.0  0.88818  0.65872  0.43414  1.0000
  C   C399      1.0  0.96102  0.93764  0.48776  1.0000
  C   C400      1.0  0.72437  0.94430  0.34581  1.0000
  H   H678      1.0  0.90728  0.96294  0.45023  1.0000
  C   C401      1.0  0.63339  0.65551  0.61691  1.0000
  H   H679      1.0  0.80485  0.97820  0.60431  1.0000
  H   H680      1.0  0.98098  0.87315  0.46111  1.0000
  C   C402      1.0  0.85102  0.89747  0.66129  1.0000
  H   H681      1.0  0.76023  0.88780  0.64430  1.0000
  H   H682      1.0  0.82208  0.75402  0.45240  1.0000
  H   H683      1.0  0.88022  0.94968  0.63961  1.0000
  C   C403      1.0  0.86247  0.74953  0.48306  1.0000
  H   H684      1.0  0.61849  0.73550  0.59674  1.0000
  C   C404      1.0  0.88142  0.96572  0.45827  1.0000
  H   H685      1.0  0.75495  0.93889  0.65040  1.0000
  C   C405      1.0  0.51895  0.55985  0.59405  1.0000
  H   H686      1.0  0.52113  0.57239  0.57978  1.0000
  H   H687      1.0  0.55731  0.56762  0.61811  1.0000
  C   C406      1.0  0.82679  0.98343  0.63295  1.0000
  H   H688      1.0  0.76278  0.93173  0.61791  1.0000
  S   S115      1.0  0.98137  0.94369  0.58582  1.0000
  H   H689      1.0  0.97080  0.77714  0.61315  1.0000
  H   H690      1.0  0.79162  0.95879  0.34751  1.0000
  H   H691      1.0  0.88026  0.89304  0.65877  1.0000
  C   C407      1.0  0.98310  0.95817  0.50490  1.0000
  H   H692      1.0  0.98079  0.70812  0.62178  1.0000
  Fe  Fe57      1.0  0.53822  0.70170  0.69126  1.0000
  S   S116      1.0  0.55796  0.68823  0.71911  1.0000
  H   H693      1.0  0.85826  0.91632  0.67499  1.0000
  H   H694      1.0  0.76464  0.70325  0.89872  1.0000
  C   C408      1.0  0.77264  0.88176  0.98733  1.0000
  C   C409      1.0  0.50202  0.75265  0.74839  1.0000
  S   S117      1.0  0.53978  0.81424  0.83614  1.0000
  H   H695      1.0  0.71037  0.90696  0.78446  1.0000
  Fe  Fe58      1.0  0.57570  0.77576  0.84538  1.0000
  S   S118      1.0  0.65227  0.82115  0.84775  1.0000
  C   C410      1.0  0.80322  0.82637  0.96259  1.0000
  S   S119      1.0  0.90016  0.96278  0.92173  1.0000
  S   S120      1.0  0.54762  0.72094  0.82149  1.0000
  H   H696      1.0  0.51230  0.74304  0.71962  1.0000
  S   S121      1.0  0.89933  0.89977  0.88522  1.0000
  H   H697      1.0  0.83615  0.89512  0.94889  1.0000
  S   S122      1.0  0.90223  0.86219  0.92683  1.0000
  H   H698      1.0  0.69718  0.88520  0.94520  1.0000
  H   H699      1.0  0.79188  0.81084  0.97636  1.0000
  Fe  Fe59      1.0  0.86024  0.88503  0.91104  1.0000
  S   S123      1.0  0.78439  0.83874  0.91321  1.0000
  H   H700      1.0  0.76882  0.89298  0.94050  1.0000
  H   H701      1.0  0.73513  0.84094  0.95378  1.0000
  C   C411      1.0  0.61767  0.82165  0.78564  1.0000
  H   H702      1.0  0.81970  0.71660  0.90661  1.0000
  C   C412      1.0  0.81758  0.95610  0.96904  1.0000
  C   C413      1.0  0.74784  0.83442  0.89506  1.0000
  C   C414      1.0  0.70136  0.80182  0.89630  1.0000
  C   C415      1.0  0.67145  0.79723  0.88198  1.0000
  C   C416      1.0  0.68791  0.82525  0.86628  1.0000
  C   C417      1.0  0.73443  0.85769  0.86506  1.0000
  C   C418      1.0  0.76425  0.86244  0.87939  1.0000
  H   H703      1.0  0.68834  0.77997  0.90837  1.0000
  H   H704      1.0  0.63573  0.77212  0.88307  1.0000
  H   H705      1.0  0.74745  0.87964  0.85301  1.0000
  H   H706      1.0  0.79988  0.88804  0.87834  1.0000
  C   C419      1.0  0.53697  0.70789  0.73719  1.0000
  C   C420      1.0  0.51635  0.73490  0.73367  1.0000
  H   H707      1.0  0.61143  0.91225  0.75813  1.0000
  S   S124      1.0  0.49448  0.77055  0.78494  1.0000
  C   C421      1.0  0.52681  0.71441  0.77007  1.0000
  C   C422      1.0  0.54173  0.69724  0.75539  1.0000
  H   H708      1.0  0.57672  0.87024  0.79639  1.0000
  C   C423      1.0  0.72068  0.89814  0.95740  1.0000
  H   H709      1.0  0.53087  0.70616  0.78400  1.0000
  H   H710      1.0  0.55742  0.67610  0.75814  1.0000
  N   N30       1.0  0.63987  0.87601  0.78964  1.0000
  H   H711      1.0  0.77567  0.80681  0.95213  1.0000
  C   C424      1.0  0.80598  0.89276  0.00349  1.0000
  H   H712      1.0  0.84381  0.97353  0.67889  1.0000
  H   H713      1.0  0.82981  0.81853  0.95861  1.0000
  H   H714      1.0  0.64798  0.94708  0.81978  1.0000
  C   C425      1.0  0.60552  0.89116  0.78712  1.0000
  S   S125      1.0  0.95448  0.82279  0.88757  1.0000
  C   C426      1.0  0.58592  0.88564  0.76745  1.0000
  H   H715      1.0  0.63036  0.76161  0.78295  1.0000
  H   H716      1.0  0.85363  0.89771  0.97205  1.0000
  H   H717      1.0  0.74928  0.84140  0.98631  1.0000
  H   H718      1.0  0.68958  0.94055  0.83159  1.0000
  H   H719      1.0  0.62586  0.86090  0.81858  1.0000
  Fe  Fe60      1.0  0.94547  0.94154  0.93566  1.0000
  Fe  Fe61      1.0  0.94448  0.88183  0.90138  1.0000
  S   S126      1.0  0.97164  0.97735  0.96444  1.0000
  H   H720      1.0  0.60504  0.81124  0.77117  1.0000
  C   C427      1.0  0.64686  0.79900  0.78950  1.0000
  H   H721      1.0  0.72564  0.87477  0.67339  1.0000
  H   H722      1.0  0.76696  0.93318  0.68307  1.0000
  H   H723      1.0  0.91411  0.87566  0.97539  1.0000
  C   C428      1.0  0.67785  0.88765  0.75776  1.0000
  H   H724      1.0  0.75178  0.89730  0.99179  1.0000
  C   C429      1.0  0.50795  0.74319  0.76666  1.0000
  N   N31       1.0  0.81738  0.74220  0.86735  1.0000
  C   C430      1.0  0.83909  0.71175  0.86945  1.0000
  C   C431      1.0  0.82170  0.76709  0.88592  1.0000
  C   C432      1.0  0.84385  0.78069  0.85351  1.0000
  C   C433      1.0  0.76914  0.70914  0.86081  1.0000
  C   C434      1.0  0.84334  0.68693  0.85161  1.0000
  C   C435      1.0  0.79958  0.73272  0.90208  1.0000
  C   C436      1.0  0.82661  0.81505  0.84860  1.0000
  C   C437      1.0  0.73596  0.72699  0.86491  1.0000
  H   H725      1.0  0.87353  0.73425  0.87575  1.0000
  H   H726      1.0  0.82003  0.68164  0.87909  1.0000
  H   H727      1.0  0.80806  0.79166  0.88556  1.0000
  H   H728      1.0  0.85777  0.79173  0.88995  1.0000
  H   H729      1.0  0.87961  0.80396  0.85838  1.0000
  H   H730      1.0  0.84461  0.76370  0.84003  1.0000
  H   H731      1.0  0.76743  0.70141  0.84564  1.0000
  H   H732      1.0  0.75468  0.67295  0.86732  1.0000
  H   H733      1.0  0.81151  0.66728  0.84334  1.0000
  H   H734      1.0  0.87091  0.71372  0.84301  1.0000
  H   H735      1.0  0.85252  0.65952  0.85539  1.0000
  H   H736      1.0  0.79856  0.75436  0.91417  1.0000
  S   S127      1.0  0.52135  0.72669  0.86473  1.0000
  H   H737      1.0  0.55849  0.89392  0.76801  1.0000
  H   H738      1.0  0.79433  0.79518  0.84061  1.0000
  H   H739      1.0  0.85123  0.84378  0.83957  1.0000
  H   H740      1.0  0.82332  0.83443  0.86081  1.0000
  H   H741      1.0  0.71134  0.71546  0.85317  1.0000
  H   H742      1.0  0.75110  0.76691  0.86678  1.0000
  H   H743      1.0  0.61988  0.93041  0.79112  1.0000
  C   C438      1.0  0.68047  0.90578  0.77806  1.0000
  C   C439      1.0  0.82341  0.88234  0.96293  1.0000
  C   C440      1.0  0.95283  0.94990  0.98617  1.0000
  H   H744      1.0  0.71558  0.70886  0.87711  1.0000
  N   N32       1.0  0.79281  0.90061  0.96882  1.0000
  C   C441      1.0  0.75505  0.88161  0.95453  1.0000
  H   H745      1.0  0.69500  0.86638  0.75638  1.0000
  H   H746      1.0  0.58716  0.80170  0.79405  1.0000
  H   H747      1.0  0.69995  0.88147  0.96964  1.0000
  C   C442      1.0  0.92426  0.89939  0.98766  1.0000
  H   H748      1.0  0.97163  0.75586  0.86715  1.0000
  C   C443      1.0  0.65450  0.88500  0.80978  1.0000
  H   H749      1.0  0.64377  0.86618  0.75143  1.0000
  Fe  Fe62      1.0  0.94294  0.97653  0.89691  1.0000
  H   H750      1.0  0.57059  0.84799  0.76147  1.0000
  C   C444      1.0  0.67443  0.93781  0.81768  1.0000
  H   H751      1.0  0.73663  0.93850  0.95847  1.0000
  H   H752      1.0  0.64957  0.79474  0.80456  1.0000
  S   S128      1.0  0.55685  0.77572  0.68130  1.0000
  H   H753      1.0  0.87700  0.97241  0.98680  1.0000
  H   H754      1.0  0.68088  0.82051  0.78385  1.0000
  H   H755      1.0  0.68062  0.87537  0.81249  1.0000
  H   H756      1.0  0.49178  0.60695  0.77793  1.0000
  H   H757      1.0  0.81548  0.96934  0.95516  1.0000
  H   H758      1.0  0.68873  0.94450  0.77789  1.0000
  H   H759      1.0  0.82805  0.87780  0.00082  1.0000
  Fe  Fe63      1.0  0.50768  0.75529  0.81385  1.0000
  H   H760      1.0  0.70132  0.96522  0.80906  1.0000
  H   H761      1.0  0.69692  0.91990  0.74906  1.0000
  H   H762      1.0  0.80160  0.97035  0.97860  1.0000
  C   C445      1.0  0.96648  0.97995  0.00238  1.0000
  H   H763      1.0  0.49800  0.55797  0.78545  1.0000
  H   H764      1.0  0.88759  0.98067  0.96251  1.0000
  C   C446      1.0  0.86838  0.98423  0.97399  1.0000
  Fe  Fe64      1.0  0.49053  0.67509  0.83986  1.0000
  H   H765      1.0  0.78023  0.88575  0.67872  1.0000
  C   C447      1.0  0.90853  0.87947  0.00508  1.0000
  C   C448      1.0  0.76200  0.90306  0.67340  1.0000
  H   H766      1.0  0.98694  0.78710  0.67875  1.0000
  H   H767      1.0  0.98504  0.71578  0.67971  1.0000
  H   H768      1.0  0.48725  0.77470  0.74561  1.0000
