data_image0
_chemical_formula_structural       FeS2H2FeHFeS3HFeS2FeS2H2NHSCH2FeSHC6H7C7H4CH2C2H8CHCH6CH2CH2C2HCH2CH2C3H3CHC2H2CH4C3H6CNH4CHNCH2CH6C2HC2H8CHSC2H3FeS2FeSFeSFeS3FeS2FeSFeSFeS2FeS2FeSFeHS4HSC2HFeSCHC3HCH2CHC7H5C3H4C6H4C6H8FeHC2HFeH5C2H2CHC2HNCHNC5H7CH3C2S2CH5CHNC2H2C2H7CH4CH2SH2C2H3CHC2SH4CH3C2HCH2CHNHN2H13CH2CH4CH10C2HC2H2C4HFeS2FeSFeSFeS3H2FeS2FeSFeS2HSH2FeSFeSHFeSFeHSFeCHS2CH2C5H4C7H3CHNH2C6H4C6H4N2C2HCFeHSHCH2C2HCH2CHFeHNC8H20CSH4CFeH4CH2C3HCH6CH4CHSHSCH3C2HCH3CNC2H2CHSHC4H2CH2SCHC2H5CH2CHCHSH4SH2CNH3CFeS2H2FeHS2FeS2HFeS2H3CH4CH3CHC6H4C3H3CH2C6H4SH2C2HCH3NH5CH4C2H6SH2SHC2H4NH2FeHCHFeH3CH2C2FeH2C2H2CH3CHC2H3CH3C3SCHSH4CHSFeSH2CFeSHSFeSHFeS2FeSHFeSFeS3FeS2FeS2FeSFeS3CHC7H5CHC6H3C7H4C4H3C7H9C2HCH2CH3CH2CH2CHNH4SCH2C2SC3H9CHCHCHNC6HCH8CH3CHCHCH3CSH6CH2CHCH2NHCHCHC2H2CH6SHCH2NH5NHC2HSCH10SH2CH2NSHFeCH6CH2CHC2H5CHC2HCH4C2H4C2H2C2FeH2C2FeH3NH5FeS2FeS2FeSFeS3C6H6C3HC2HNSCH2CHC6H4C6H4SHNC7H6C2H3C2HCHCHC2H4CHCH2CH2CH3CHCH2CH2CNH3CH3C2H5NH2CH12CH2NH11CH9NC3H11CHCHCH2NHCH2CH2C2H2C2HCHCHC3H3C2H8CNH5CS2HFeS2FeS2FeSFeS3C6H4C2HCH5CH2CHC6H4C6H4NHCHCH6CH4CHCH3C2HCH2NH4CFeH2CH4CHC5H5CHCH3CHC3H10C4H4SH2CHCH2SCH2CH2CH2C2H2CH3SH2C3HNH3S2FeSFeS2Fe2SFeS2FeS2FeSFeS3FeS2FeS2FeHFeS4C6H6C7H2CHC6H4C4H3SHC6H3CH6C3SNC8H8CHSH9CH2CHFeH3CH2SH5C2HCH6FeH3CNC6H14NHCHCHCHC4HCH5NH9CH3SH2CHS2CHNH3FeH3CH3CH3CFeH2CH3NCH2CH2CHSC3HCHSHC2HCH4CNHC2HC2H3CH2CHFeS2FeSHFeSFeS3H3SHCHSC2HSC2HFeH3C4H3SHC2H4C6H4C6H5NHCH4CH3SHC2HC3SHC2HCH7CH3CHFeCHCH3CH2FeCH9CHC2H7CNC2HCSH3SCH3CHCH2CHCH4FeS2FeS2FeSFeS3FeSFe2S2CFeHS2CSHSH3CHC4HCH12C6H4C6H5C4HCHSHNSH6CFeHCNH2CH5FeCNH4C2HCH3SCH2CHCHCHCHCSHCHC2HCHC2H3SHC2H2CH2C2H2CH3CHC2H5CHCHCH5C3FeS2FeS2FeSFeS3HFeS2FeSFeHSH2SCHSN2H3C5H6CH3C6H4C6H5C5H4CHCH4CH6CHCH6C3SH2C2H3C3H2CH9CHCH4CSHC2H4C2HC2H3NCHCFeCH2SH5CHCHCH2FeH2CH3NCH3CHC2HCH4CHNH3SCH4CFeS2FeS2FeSFeS3C2HSH3SHCH2CH3CHC3H4C2HSHCH3C6H4C4H8NC4H2C2H8NCH2CH11C4HSH5FeC2H2C2H4C2H4C2NCHCH8CHCH2CHC2H2CH4NCH2CH3C2H3CHC5HCH
_chemical_formula_sum              "Fe112 S224 H1344 N56 C784"
_cell_length_a       49.986
_cell_length_b       36.3018
_cell_length_c       45.3111
_cell_angle_alpha    90.6342
_cell_angle_beta     113.241
_cell_angle_gamma    90.4817

_space_group_name_H-M_alt    "P 1"
_space_group_IT_number       1

loop_
  _space_group_symop_operation_xyz
  'x, y, z'

loop_
  _atom_site_type_symbol
  _atom_site_label
  _atom_site_symmetry_multiplicity
  _atom_site_fract_x
  _atom_site_fract_y
  _atom_site_fract_z
  _atom_site_occupancy
  Fe  Fe1       1.0  0.26913  0.14835  0.35901  1.0000
  S   S1        1.0  0.27286  0.08639  0.36039  1.0000
  S   S2        1.0  0.22925  0.18142  0.32695  1.0000
  H   H1        1.0  0.25054  0.02250  0.21954  1.0000
  H   H2        1.0  0.15149  0.41561  0.04946  1.0000
  Fe  Fe2       1.0  0.31545  0.09621  0.35482  1.0000
  H   H3        1.0  0.27709  0.01738  0.30395  1.0000
  Fe  Fe3       1.0  0.29905  0.09396  0.41388  1.0000
  S   S3        1.0  0.29262  0.06442  0.45508  1.0000
  S   S4        1.0  0.31055  0.15743  0.35043  1.0000
  S   S5        1.0  0.29254  0.15542  0.41269  1.0000
  H   H4        1.0  0.03192  0.07245  0.21367  1.0000
  Fe  Fe4       1.0  0.05487  0.21509  0.28149  1.0000
  S   S6        1.0  0.03045  0.21450  0.31404  1.0000
  S   S7        1.0  0.09245  0.17371  0.29665  1.0000
  Fe  Fe5       1.0  0.03096  0.27629  0.31053  1.0000
  S   S8        1.0  0.04554  0.31591  0.35311  1.0000
  S   S9        1.0  0.05715  0.27680  0.28018  1.0000
  H   H5        1.0  0.17536  0.25764  0.35288  1.0000
  H   H6        1.0  0.13554  0.32866  0.37569  1.0000
  N   N1        1.0  0.23358  0.08341  0.25070  1.0000
  H   H7        1.0  0.12356  0.26301  0.32874  1.0000
  S   S10       1.0  0.10412  0.45935  0.32527  1.0000
  C   C1        1.0  0.14709  0.31954  0.30534  1.0000
  H   H8        1.0  0.24173  0.06200  0.19349  1.0000
  H   H9        1.0  0.13577  0.33854  0.48210  1.0000
  Fe  Fe6       1.0  0.01313  0.27409  0.23924  1.0000
  S   S11       1.0  0.01309  0.21197  0.23679  1.0000
  H   H10       1.0  0.16562  0.32737  0.29875  1.0000
  C   C2        1.0  0.05940  0.35799  0.34552  1.0000
  C   C3        1.0  0.05601  0.36660  0.31429  1.0000
  C   C4        1.0  0.06952  0.39809  0.30858  1.0000
  C   C5        1.0  0.08600  0.42185  0.33392  1.0000
  C   C6        1.0  0.08849  0.41431  0.36513  1.0000
  C   C7        1.0  0.07530  0.38224  0.37093  1.0000
  H   H11       1.0  0.04334  0.34867  0.29448  1.0000
  H   H12       1.0  0.06725  0.40392  0.28432  1.0000
  H   H13       1.0  0.10109  0.43264  0.38479  1.0000
  H   H14       1.0  0.07782  0.37585  0.39513  1.0000
  H   H15       1.0  0.24536  0.00664  0.26905  1.0000
  H   H16       1.0  0.09482  0.30576  0.01718  1.0000
  H   H17       1.0  0.10004  0.33267  0.28525  1.0000
  C   C8        1.0  0.25381  0.15026  0.25975  1.0000
  C   C9        1.0  0.19152  0.17962  0.32022  1.0000
  C   C10       1.0  0.17268  0.20612  0.30035  1.0000
  C   C11       1.0  0.14255  0.20550  0.29370  1.0000
  C   C12       1.0  0.13067  0.17784  0.30634  1.0000
  C   C13       1.0  0.14946  0.15107  0.32585  1.0000
  C   C14       1.0  0.17968  0.15210  0.33302  1.0000
  H   H18       1.0  0.18143  0.22711  0.28978  1.0000
  H   H19       1.0  0.12836  0.22569  0.27798  1.0000
  H   H20       1.0  0.14057  0.12930  0.33555  1.0000
  H   H21       1.0  0.19372  0.13133  0.34812  1.0000
  C   C15       1.0  0.23276  0.04065  0.20450  1.0000
  H   H22       1.0  0.21018  0.46603  0.04801  1.0000
  H   H23       1.0  0.14533  0.28917  0.30247  1.0000
  C   C16       1.0  0.03278  0.00760  0.27278  1.0000
  C   C17       1.0  0.16440  0.39212  0.37372  1.0000
  H   H24       1.0  0.16211  0.39419  0.48463  1.0000
  H   H25       1.0  0.16811  0.09534  0.23769  1.0000
  H   H26       1.0  0.18663  0.38417  0.39008  1.0000
  H   H27       1.0  0.00524  0.46245  0.26706  1.0000
  H   H28       1.0  0.11075  0.43767  0.48892  1.0000
  H   H29       1.0  0.26350  0.17088  0.24880  1.0000
  H   H30       1.0  0.19631  0.27881  0.33287  1.0000
  H   H31       1.0  0.17903  0.36846  0.01187  1.0000
  C   C18       1.0  0.11934  0.33532  0.27923  1.0000
  H   H32       1.0  0.04897  0.12950  0.31776  1.0000
  C   C19       1.0  0.13009  0.31951  0.35048  1.0000
  H   H33       1.0  0.27620  0.05949  0.26257  1.0000
  H   H34       1.0  0.13959  0.26471  0.37228  1.0000
  H   H35       1.0  0.16487  0.42245  0.37072  1.0000
  H   H36       1.0  0.18485  0.31855  0.38714  1.0000
  H   H37       1.0  0.11436  0.31997  0.25627  1.0000
  H   H38       1.0  0.13281  0.38490  0.32578  1.0000
  C   C20       1.0  0.00920  0.00836  0.03546  1.0000
  H   H39       1.0  0.16937  0.38380  0.32900  1.0000
  H   H40       1.0  0.14880  0.38691  0.38512  1.0000
  C   C21       1.0  0.19172  0.27922  0.35493  1.0000
  H   H41       1.0  0.10163  0.27361  0.34961  1.0000
  H   H42       1.0  0.12248  0.36468  0.27460  1.0000
  C   C22       1.0  0.12394  0.27782  0.35031  1.0000
  C   C23       1.0  0.21492  0.09461  0.26844  1.0000
  H   H43       1.0  0.00090  0.13099  0.26183  1.0000
  C   C24       1.0  0.13435  0.41201  0.02485  1.0000
  H   H44       1.0  0.21225  0.27133  0.37497  1.0000
  H   H45       1.0  0.22748  0.11116  0.29054  1.0000
  C   C25       1.0  0.20428  0.49297  0.03763  1.0000
  H   H46       1.0  0.20066  0.33674  0.36136  1.0000
  H   H47       1.0  0.24275  0.03145  0.30282  1.0000
  C   C26       1.0  0.04726  0.09002  0.26571  1.0000
  C   C27       1.0  0.99916  0.45613  0.31068  1.0000
  C   C28       1.0  0.18296  0.31809  0.36180  1.0000
  H   H48       1.0  0.10917  0.33337  0.33717  1.0000
  H   H49       1.0  0.18144  0.13480  0.26432  1.0000
  H   H50       1.0  0.10607  0.35514  0.48952  1.0000
  C   C29       1.0  0.24319  0.11637  0.23710  1.0000
  H   H51       1.0  0.11492  0.42759  0.02361  1.0000
  C   C30       1.0  0.21605  0.05768  0.22349  1.0000
  C   C31       1.0  0.01037  0.02795  0.00906  1.0000
  H   H52       1.0  0.26136  0.10897  0.22985  1.0000
  H   H53       1.0  0.21007  0.47067  0.47439  1.0000
  C   C32       1.0  0.12308  0.42408  0.47631  1.0000
  H   H54       1.0  0.06647  0.05375  0.24029  1.0000
  H   H55       1.0  0.14379  0.42506  0.00916  1.0000
  H   H56       1.0  0.22561  0.12575  0.21451  1.0000
  H   H57       1.0  0.27074  0.14313  0.28334  1.0000
  C   C33       1.0  0.31785  0.03668  0.48538  1.0000
  C   C34       1.0  0.25555  0.02808  0.28784  1.0000
  C   C35       1.0  0.26045  0.06490  0.27385  1.0000
  H   H58       1.0  0.18841  0.13184  0.22911  1.0000
  H   H59       1.0  0.10884  0.40371  0.45846  1.0000
  H   H60       1.0  0.10998  0.36446  0.02731  1.0000
  H   H61       1.0  0.21749  0.02321  0.18456  1.0000
  H   H62       1.0  0.00647  0.03553  0.22983  1.0000
  H   H63       1.0  0.12886  0.44583  0.46266  1.0000
  C   C36       1.0  0.12698  0.37055  0.01792  1.0000
  N   N2        1.0  0.01976  0.07658  0.26873  1.0000
  H   H64       1.0  0.20770  0.07004  0.27792  1.0000
  H   H65       1.0  0.03881  0.10963  0.34778  1.0000
  H   H66       1.0  0.05551  0.01558  0.27730  1.0000
  H   H67       1.0  0.06679  0.08050  0.28644  1.0000
  C   C37       1.0  0.18665  0.11508  0.24850  1.0000
  H   H68       1.0  0.01154  0.13105  0.31441  1.0000
  N   N3        1.0  0.15349  0.33176  0.33944  1.0000
  C   C38       1.0  0.15458  0.37341  0.34024  1.0000
  H   H69       1.0  0.06392  0.10036  0.22890  1.0000
  H   H70       1.0  0.14606  0.35484  0.03418  1.0000
  C   C39       1.0  0.01508  0.47484  0.29169  1.0000
  H   H71       1.0  0.19712  0.07222  0.20568  1.0000
  H   H72       1.0  0.03786  0.46502  0.30194  1.0000
  H   H73       1.0  0.20621  0.03478  0.23216  1.0000
  H   H74       1.0  0.27242  0.08344  0.29466  1.0000
  H   H75       1.0  0.23557  0.16391  0.26347  1.0000
  H   H76       1.0  0.04848  0.12065  0.26699  1.0000
  C   C40       1.0  0.05195  0.07793  0.23525  1.0000
  C   C41       1.0  0.02485  0.07626  0.30391  1.0000
  H   H77       1.0  0.32170  0.12610  0.22669  1.0000
  C   C42       1.0  0.01083  0.03794  0.25569  1.0000
  C   C43       1.0  0.03139  0.11401  0.32154  1.0000
  H   H78       1.0  0.25120  0.49874  0.42248  1.0000
  H   H79       1.0  0.00530  0.46760  0.33513  1.0000
  H   H80       1.0  0.04365  0.05859  0.31765  1.0000
  H   H81       1.0  0.04821  0.48131  0.25800  1.0000
  H   H82       1.0  0.31586  0.11892  0.27846  1.0000
  H   H83       1.0  0.00644  0.05726  0.00722  1.0000
  H   H84       1.0  0.99672  0.34668  0.25206  1.0000
  H   H85       1.0  0.00166  0.11977  0.20933  1.0000
  C   C44       1.0  0.99496  0.10239  0.25227  1.0000
  H   H86       1.0  0.00494  0.42649  0.31334  1.0000
  S   S12       1.0  0.99917  0.31123  0.19591  1.0000
  C   C45       1.0  0.21093  0.47083  0.49860  1.0000
  C   C46       1.0  0.19241  0.49631  0.00394  1.0000
  H   H87       1.0  0.00568  0.06399  0.30719  1.0000
  H   H88       1.0  0.00433  0.02308  0.05360  1.0000
  H   H89       1.0  0.13738  0.30425  0.00001  1.0000
  Fe  Fe7       1.0  0.20909  0.32584  0.63498  1.0000
  S   S13       1.0  0.20669  0.38733  0.63492  1.0000
  S   S14       1.0  0.16568  0.29839  0.60582  1.0000
  Fe  Fe8       1.0  0.27581  0.32716  0.67218  1.0000
  S   S15       1.0  0.27747  0.38921  0.67520  1.0000
  Fe  Fe9       1.0  0.23740  0.38336  0.68689  1.0000
  S   S16       1.0  0.22368  0.42019  0.71943  1.0000
  Fe  Fe10      1.0  0.24613  0.38768  0.62304  1.0000
  S   S17       1.0  0.25320  0.41378  0.58079  1.0000
  S   S18       1.0  0.23779  0.32137  0.68740  1.0000
  S   S19       1.0  0.24644  0.32604  0.61958  1.0000
  Fe  Fe11      1.0  0.17243  0.41108  0.86489  1.0000
  S   S20       1.0  0.12474  0.41599  0.83537  1.0000
  S   S21       1.0  0.19976  0.37840  0.84371  1.0000
  Fe  Fe12      1.0  0.16663  0.44749  0.92458  1.0000
  S   S22       1.0  0.11840  0.45514  0.89785  1.0000
  Fe  Fe13      1.0  0.11760  0.39737  0.87875  1.0000
  S   S23       1.0  0.07923  0.35994  0.87424  1.0000
  Fe  Fe14      1.0  0.12985  0.47296  0.85701  1.0000
  S   S24       1.0  0.16501  0.38837  0.90731  1.0000
  S   S25       1.0  0.17846  0.46940  0.88456  1.0000
  Fe  Fe15      1.0  0.07018  0.15603  0.64962  1.0000
  S   S26       1.0  0.03570  0.16414  0.60032  1.0000
  S   S27       1.0  0.11693  0.17645  0.67086  1.0000
  Fe  Fe16      1.0  0.03059  0.10976  0.67119  1.0000
  S   S28       1.0  0.03495  0.07961  0.71661  1.0000
  Fe  Fe17      1.0  0.02530  0.10327  0.60054  1.0000
  H   H90       1.0  0.06314  0.38318  0.80168  1.0000
  S   S29       1.0  0.01414  0.07103  0.55236  1.0000
  S   S30       1.0  0.06212  0.09490  0.64857  1.0000
  S   S31       1.0  0.04145  0.17014  0.67546  1.0000
  S   S32       1.0  0.02573  0.14793  0.95267  1.0000
  H   H91       1.0  0.12269  0.13273  0.53110  1.0000
  S   S33       1.0  0.03337  0.10319  0.89363  1.0000
  C   C47       1.0  0.03426  0.19971  0.76941  1.0000
  C   C48       1.0  0.02262  0.03132  0.53380  1.0000
  H   H92       1.0  0.14328  0.19398  0.58462  1.0000
  Fe  Fe18      1.0  0.04224  0.16113  0.91421  1.0000
  S   S34       1.0  0.08346  0.19372  0.92039  1.0000
  C   C49       1.0  0.05857  0.15195  0.53137  1.0000
  H   H93       1.0  0.08992  0.18282  0.84712  1.0000
  C   C50       1.0  0.11471  0.11067  0.54261  1.0000
  C   C51       1.0  0.03055  0.08695  0.77485  1.0000
  C   C52       1.0  0.31359  0.03025  0.51384  1.0000
  H   H94       1.0  0.21387  0.47050  0.58574  1.0000
  C   C53       1.0  0.13702  0.34819  0.73760  1.0000
  H   H95       1.0  0.16410  0.26029  0.76946  1.0000
  H   H96       1.0  0.05180  0.07444  0.78460  1.0000
  C   C54       1.0  0.04649  0.43897  0.79544  1.0000
  H   H97       1.0  0.04645  0.17824  0.52631  1.0000
  C   C55       1.0  0.13579  0.07807  0.54988  1.0000
  C   C56       1.0  0.08127  0.31376  0.88720  1.0000
  C   C57       1.0  0.10682  0.29334  0.89619  1.0000
  C   C58       1.0  0.10723  0.25663  0.90634  1.0000
  C   C59       1.0  0.08218  0.24003  0.90765  1.0000
  C   C60       1.0  0.05672  0.26060  0.89873  1.0000
  C   C61       1.0  0.05624  0.29711  0.88839  1.0000
  H   H98       1.0  0.12623  0.30573  0.89524  1.0000
  H   H99       1.0  0.12705  0.24097  0.91319  1.0000
  H   H100      1.0  0.03740  0.24851  0.90006  1.0000
  H   H101      1.0  0.03638  0.31267  0.88157  1.0000
  H   H102      1.0  0.04630  0.29868  0.79139  1.0000
  C   C62       1.0  0.13796  0.36842  0.96843  1.0000
  C   C63       1.0  0.22881  0.44577  0.52131  1.0000
  C   C64       1.0  0.22982  0.44519  0.55282  1.0000
  H   H103      1.0  0.30819  0.43048  0.64234  1.0000
  H   H104      1.0  0.18277  0.33080  0.50569  1.0000
  H   H105      1.0  0.16634  0.42886  0.51356  1.0000
  H   H106      1.0  0.00697  0.26061  0.77695  1.0000
  C   C65       1.0  0.21649  0.40733  0.75339  1.0000
  C   C66       1.0  0.20048  0.43123  0.76469  1.0000
  C   C67       1.0  0.19492  0.42266  0.79207  1.0000
  C   C68       1.0  0.20573  0.39026  0.80879  1.0000
  C   C69       1.0  0.22167  0.36629  0.79743  1.0000
  C   C70       1.0  0.22686  0.37460  0.76977  1.0000
  H   H107      1.0  0.19250  0.45673  0.75234  1.0000
  H   H108      1.0  0.18270  0.44144  0.80054  1.0000
  H   H109      1.0  0.23036  0.34133  0.81035  1.0000
  H   H110      1.0  0.23950  0.35616  0.76162  1.0000
  C   C71       1.0  0.15202  0.26580  0.62487  1.0000
  C   C72       1.0  0.17040  0.24867  0.65291  1.0000
  C   C73       1.0  0.15919  0.22164  0.66698  1.0000
  C   C74       1.0  0.12952  0.21201  0.65341  1.0000
  C   C75       1.0  0.11094  0.22986  0.62587  1.0000
  C   C76       1.0  0.12226  0.25641  0.61140  1.0000
  H   H111      1.0  0.19337  0.25564  0.66336  1.0000
  H   H112      1.0  0.17364  0.20783  0.68829  1.0000
  H   H113      1.0  0.08794  0.22305  0.61563  1.0000
  H   H114      1.0  0.10790  0.26986  0.58984  1.0000
  H   H115      1.0  0.07627  0.35202  0.94203  1.0000
  H   H116      1.0  0.07687  0.11131  0.59082  1.0000
  H   H117      1.0  0.09970  0.17997  0.54873  1.0000
  H   H118      1.0  0.11275  0.30430  0.95919  1.0000
  Fe  Fe19      1.0  0.01253  0.09151  0.92918  1.0000
  H   H119      1.0  0.11979  0.08327  0.62983  1.0000
  C   C77       1.0  0.08901  0.15897  0.55827  1.0000
  C   C78       1.0  0.06192  0.27773  0.79021  1.0000
  H   H120      1.0  0.07031  0.30328  0.97501  1.0000
  Fe  Fe20      1.0  0.00602  0.17359  0.62625  1.0000
  H   H121      1.0  0.24185  0.42661  0.51441  1.0000
  H   H122      1.0  0.05451  0.39982  0.76216  1.0000
  H   H123      1.0  0.05810  0.16127  0.75187  1.0000
  H   H124      1.0  0.05348  0.49421  0.83969  1.0000
  H   H125      1.0  0.04385  0.43541  0.81840  1.0000
  C   C79       1.0  0.01139  0.24011  0.79635  1.0000
  C   C80       1.0  0.14516  0.43084  0.55977  1.0000
  H   H126      1.0  0.10571  0.34791  0.76079  1.0000
  H   H127      1.0  0.08554  0.17269  0.57856  1.0000
  C   C81       1.0  0.06203  0.18857  0.76437  1.0000
  H   H128      1.0  0.12082  0.31715  0.54001  1.0000
  C   C82       1.0  0.15426  0.16713  0.59138  1.0000
  C   C83       1.0  0.08385  0.40958  0.95022  1.0000
  H   H129      1.0  0.08352  0.29183  0.79844  1.0000
  N   N4        1.0  0.02411  0.46430  0.77290  1.0000
  C   C84       1.0  0.11624  0.31555  0.98339  1.0000
  H   H130      1.0  0.06634  0.20795  0.74791  1.0000
  N   N5        1.0  0.14763  0.37810  0.52188  1.0000
  C   C85       1.0  0.11716  0.28486  0.71593  1.0000
  C   C86       1.0  0.16962  0.29833  0.73421  1.0000
  C   C87       1.0  0.08510  0.29599  0.69788  1.0000
  C   C88       1.0  0.17866  0.28284  0.76821  1.0000
  C   C89       1.0  0.12903  0.34192  0.76693  1.0000
  H   H131      1.0  0.11909  0.27436  0.73948  1.0000
  H   H132      1.0  0.12079  0.26013  0.70318  1.0000
  H   H133      1.0  0.08193  0.18577  0.78640  1.0000
  H   H134      1.0  0.08021  0.32276  0.70650  1.0000
  H   H135      1.0  0.07922  0.29700  0.67157  1.0000
  H   H136      1.0  0.18070  0.30492  0.78611  1.0000
  H   H137      1.0  0.20070  0.27088  0.77556  1.0000
  C   C90       1.0  0.09262  0.29753  0.99270  1.0000
  H   H138      1.0  0.06862  0.45146  0.80268  1.0000
  H   H139      1.0  0.13419  0.31458  0.77799  1.0000
  H   H140      1.0  0.14260  0.45371  0.54289  1.0000
  C   C91       1.0  0.13492  0.13799  0.59829  1.0000
  C   C92       1.0  0.09099  0.09743  0.58037  1.0000
  S   S35       1.0  0.01884  0.03282  0.95120  1.0000
  S   S36       1.0  0.31390  0.28724  0.68365  1.0000
  C   C93       1.0  0.01676  0.00969  0.98524  1.0000
  H   H141      1.0  0.12877  0.14929  0.61760  1.0000
  H   H142      1.0  0.06901  0.14779  0.81740  1.0000
  H   H143      1.0  0.09149  0.41073  0.93040  1.0000
  H   H144      1.0  0.12454  0.05431  0.59938  1.0000
  H   H145      1.0  0.20920  0.36754  0.52152  1.0000
  C   C94       1.0  0.12851  0.31152  0.52058  1.0000
  H   H146      1.0  0.02187  0.01444  0.83708  1.0000
  N   N6        1.0  0.10792  0.12557  0.57001  1.0000
  C   C95       1.0  0.16994  0.35729  0.98695  1.0000
  C   C96       1.0  0.13266  0.39396  0.54222  1.0000
  H   H147      1.0  0.09500  0.26710  0.99252  1.0000
  H   H148      1.0  0.06046  0.41693  0.93965  1.0000
  C   C97       1.0  0.17740  0.36546  0.54392  1.0000
  C   C98       1.0  0.01632  0.09561  0.79531  1.0000
  H   H149      1.0  0.08482  0.23174  0.81764  1.0000
  H   H150      1.0  0.11998  0.36673  0.72146  1.0000
  H   H151      1.0  0.09541  0.43081  0.96855  1.0000
  H   H152      1.0  0.01300  0.24638  0.67402  1.0000
  H   H153      1.0  0.13342  0.37421  0.56118  1.0000
  H   H154      1.0  0.01448  0.25631  0.81858  1.0000
  H   H155      1.0  0.14942  0.11480  0.60973  1.0000
  C   C99       1.0  0.10862  0.06954  0.60597  1.0000
  H   H156      1.0  0.02192  0.21789  0.74895  1.0000
  H   H157      1.0  0.19084  0.38913  0.55786  1.0000
  H   H158      1.0  0.17646  0.34719  0.56301  1.0000
  H   H159      1.0  0.04224  0.20449  0.84868  1.0000
  C   C100      1.0  0.15786  0.35277  0.68250  1.0000
  H   H160      1.0  0.02589  0.38521  0.77485  1.0000
  H   H161      1.0  0.16199  0.15754  0.57284  1.0000
  S   S37       1.0  0.00002  0.18275  0.87965  1.0000
  H   H162      1.0  0.09336  0.04892  0.60891  1.0000
  H   H163      1.0  0.12392  0.05147  0.54763  1.0000
  C   C101      1.0  0.19454  0.49635  0.50751  1.0000
  C   C102      1.0  0.04212  0.19053  0.82663  1.0000
  H   H164      1.0  0.05588  0.26862  0.76494  1.0000
  H   H165      1.0  0.07579  0.08124  0.55932  1.0000
  H   H166      1.0  0.06628  0.25739  0.83629  1.0000
  C   C103      1.0  0.06378  0.24528  0.81266  1.0000
  H   H167      1.0  0.15010  0.29822  0.53078  1.0000
  C   C104      1.0  0.03197  0.46988  0.74425  1.0000
  C   C105      1.0  0.06941  0.16647  0.83707  1.0000
  S   S38       1.0  0.18819  0.45602  0.97945  1.0000
  H   H168      1.0  0.14135  0.36226  0.78614  1.0000
  H   H169      1.0  0.13054  0.35658  0.94363  1.0000
  H   H170      1.0  0.15762  0.36475  0.74611  1.0000
  H   H171      1.0  0.18350  0.36923  0.97497  1.0000
  C   C106      1.0  0.21301  0.47024  0.56149  1.0000
  H   H172      1.0  0.21059  0.32665  0.54438  1.0000
  H   H173      1.0  0.13298  0.43863  0.57473  1.0000
  H   H174      1.0  0.17387  0.17253  0.61377  1.0000
  C   C107      1.0  0.04298  0.00507  0.55117  1.0000
  C   C108      1.0  0.19582  0.34678  0.52763  1.0000
  H   H175      1.0  0.02868  0.44396  0.72980  1.0000
  C   C109      1.0  0.01742  0.09405  0.74180  1.0000
  H   H176      1.0  0.01519  0.48525  0.83031  1.0000
  H   H177      1.0  0.05552  0.47743  0.75233  1.0000
  C   C110      1.0  0.32397  0.32533  0.61241  1.0000
  H   H178      1.0  0.17217  0.27581  0.71863  1.0000
  N   N7        1.0  0.13959  0.31445  0.71910  1.0000
  H   H179      1.0  0.07064  0.27472  0.70158  1.0000
  N   N8        1.0  0.03841  0.21843  0.80091  1.0000
  N   N9        1.0  0.11716  0.35721  0.98354  1.0000
  H   H180      1.0  0.15406  0.08006  0.57364  1.0000
  H   H181      1.0  0.15016  0.36242  0.65735  1.0000
  H   H182      1.0  0.01269  0.30346  0.70494  1.0000
  H   H183      1.0  0.02658  0.08970  0.82065  1.0000
  H   H184      1.0  0.32466  0.35245  0.65511  1.0000
  H   H185      1.0  0.02050  0.17446  0.76574  1.0000
  H   H186      1.0  0.02349  0.17074  0.81894  1.0000
  H   H187      1.0  0.17891  0.33909  0.68748  1.0000
  H   H188      1.0  0.16830  0.42885  0.57633  1.0000
  H   H189      1.0  0.11364  0.33940  0.67344  1.0000
  H   H190      1.0  0.13423  0.30115  0.67026  1.0000
  H   H191      1.0  0.18661  0.31933  0.73637  1.0000
  H   H192      1.0  0.06946  0.14839  0.85673  1.0000
  C   C111      1.0  0.13502  0.32578  0.68545  1.0000
  H   H193      1.0  0.99893  0.42533  0.80842  1.0000
  H   H194      1.0  0.13831  0.39856  0.96495  1.0000
  C   C112      1.0  0.04720  0.39973  0.78229  1.0000
  H   H195      1.0  0.16138  0.37751  0.69823  1.0000
  H   H196      1.0  0.05377  0.00805  0.57696  1.0000
  H   H197      1.0  0.07267  0.36852  0.97733  1.0000
  H   H198      1.0  0.04528  0.13209  0.53840  1.0000
  C   C113      1.0  0.08680  0.37029  0.96357  1.0000
  H   H199      1.0  0.32338  0.33112  0.58822  1.0000
  H   H200      1.0  0.14635  0.07791  0.53241  1.0000
  H   H201      1.0  0.29511  0.04231  0.51688  1.0000
  H   H202      1.0  0.10907  0.39814  0.52770  1.0000
  H   H203      1.0  0.30690  0.37696  0.61920  1.0000
  H   H204      1.0  0.03212  0.00871  0.79205  1.0000
  H   H205      1.0  0.09442  0.10054  0.52279  1.0000
  H   H206      1.0  0.30306  0.31128  0.60881  1.0000
  H   H207      1.0  0.05982  0.14267  0.50858  1.0000
  H   H208      1.0  0.17269  0.32703  0.98684  1.0000
  C   C114      1.0  0.01481  0.49977  0.72039  1.0000
  C   C115      1.0  0.32673  0.36088  0.63255  1.0000
  H   H209      1.0  0.00335  0.02522  0.87368  1.0000
  C   C116      1.0  0.19575  0.49592  0.53906  1.0000
  C   C117      1.0  0.12914  0.34660  0.50197  1.0000
  H   H210      1.0  0.11308  0.29114  0.50383  1.0000
  H   H211      1.0  0.32178  0.16501  0.50785  1.0000
  C   C118      1.0  0.00850  0.02624  0.50021  1.0000
  C   C119      1.0  0.99535  0.29822  0.68170  1.0000
  C   C120      1.0  0.99559  0.26587  0.66423  1.0000
  C   C121      1.0  0.15134  0.40639  0.49969  1.0000
  H   H212      1.0  0.11355  0.85030  0.44758  1.0000
  Fe  Fe21      1.0  0.22803  0.67875  0.16885  1.0000
  S   S39       1.0  0.20042  0.62790  0.15158  1.0000
  S   S40       1.0  0.20999  0.73303  0.17749  1.0000
  Fe  Fe22      1.0  0.28501  0.63818  0.17980  1.0000
  S   S41       1.0  0.26080  0.58350  0.16443  1.0000
  Fe  Fe23      1.0  0.22760  0.61403  0.12358  1.0000
  S   S42       1.0  0.20818  0.60020  0.06936  1.0000
  Fe  Fe24      1.0  0.23533  0.60149  0.19386  1.0000
  S   S43       1.0  0.21756  0.56367  0.22211  1.0000
  S   S44       1.0  0.25258  0.66799  0.13762  1.0000
  S   S45       1.0  0.26215  0.65321  0.21242  1.0000
  H   H213      1.0  0.18030  0.53176  0.24985  1.0000
  H   H214      1.0  0.11674  0.85348  0.09260  1.0000
  Fe  Fe25      1.0  0.11143  0.58488  0.37569  1.0000
  S   S46       1.0  0.15820  0.59569  0.40798  1.0000
  S   S47       1.0  0.07277  0.62361  0.36069  1.0000
  Fe  Fe26      1.0  0.16912  0.56818  0.36917  1.0000
  S   S48       1.0  0.20264  0.59603  0.35384  1.0000
  Fe  Fe27      1.0  0.15772  0.53823  0.42662  1.0000
  S   S49       1.0  0.12241  0.56128  0.33586  1.0000
  S   S50       1.0  0.10990  0.52934  0.39667  1.0000
  H   H215      1.0  0.08731  0.81450  0.03330  1.0000
  S   S51       1.0  0.05368  0.88171  0.40794  1.0000
  H   H216      1.0  0.11700  0.66182  0.41565  1.0000
  H   H217      1.0  0.20875  0.62532  0.47375  1.0000
  Fe  Fe28      1.0  0.02546  0.89703  0.43482  1.0000
  S   S52       1.0  0.01089  0.83438  0.07338  1.0000
  Fe  Fe29      1.0  0.03945  0.82296  0.40970  1.0000
  S   S53       1.0  0.07475  0.77989  0.42729  1.0000
  H   H218      1.0  0.26516  0.55623  0.09485  1.0000
  Fe  Fe30      1.0  0.04539  0.85564  0.16537  1.0000
  S   S54       1.0  0.06583  0.85798  0.22003  1.0000
  Fe  Fe31      1.0  0.05485  0.81790  0.10972  1.0000
  H   H219      1.0  0.27679  0.66016  0.05455  1.0000
  S   S55       1.0  0.08107  0.78050  0.09151  1.0000
  Fe  Fe32      1.0  0.02179  0.89023  0.09771  1.0000
  C   C122      1.0  0.28754  0.55275  0.09555  1.0000
  H   H220      1.0  0.21380  0.56338  0.45717  1.0000
  S   S56       1.0  0.06685  0.87430  0.13238  1.0000
  S   S57       1.0  0.03777  0.79782  0.14544  1.0000
  C   C123      1.0  0.25563  0.51735  0.44358  1.0000
  H   H221      1.0  0.99698  0.58594  0.30764  1.0000
  H   H222      1.0  0.28587  0.64230  0.43865  1.0000
  C   C124      1.0  0.03470  0.52989  0.35171  1.0000
  C   C125      1.0  0.02228  0.89370  0.28819  1.0000
  C   C126      1.0  0.04672  0.87113  0.29889  1.0000
  C   C127      1.0  0.05965  0.86023  0.27764  1.0000
  C   C128      1.0  0.04791  0.87100  0.24534  1.0000
  H   H223      1.0  0.28730  0.52592  0.08343  1.0000
  H   H224      1.0  0.27859  0.51311  0.46007  1.0000
  H   H225      1.0  0.05625  0.86309  0.32379  1.0000
  H   H226      1.0  0.07905  0.84367  0.28638  1.0000
  C   C129      1.0  0.30811  0.54689  0.13081  1.0000
  C   C130      1.0  0.07382  0.66721  0.37919  1.0000
  C   C131      1.0  0.04945  0.69017  0.36690  1.0000
  C   C132      1.0  0.04942  0.72490  0.38115  1.0000
  C   C133      1.0  0.07377  0.73685  0.40797  1.0000
  C   C134      1.0  0.09809  0.71387  0.42026  1.0000
  C   C135      1.0  0.09818  0.67926  0.40591  1.0000
  H   H227      1.0  0.03053  0.68104  0.34625  1.0000
  H   H228      1.0  0.03057  0.74231  0.37150  1.0000
  H   H229      1.0  0.11697  0.72280  0.44102  1.0000
  C   C136      1.0  0.20138  0.55927  0.04505  1.0000
  H   H230      1.0  0.10135  0.91105  0.09672  1.0000
  N   N10       1.0  0.29509  0.58412  0.07851  1.0000
  H   H231      1.0  0.27852  0.60536  0.03001  1.0000
  H   H232      1.0  0.25765  0.52619  0.03210  1.0000
  C   C137      1.0  0.21299  0.57423  0.25827  1.0000
  C   C138      1.0  0.19293  0.55338  0.26615  1.0000
  C   C139      1.0  0.18918  0.56005  0.29502  1.0000
  C   C140      1.0  0.20585  0.58732  0.31667  1.0000
  C   C141      1.0  0.22589  0.60824  0.30881  1.0000
  C   C142      1.0  0.22930  0.60195  0.27968  1.0000
  H   H233      1.0  0.13027  0.79813  0.06620  1.0000
  H   H234      1.0  0.17371  0.54367  0.30070  1.0000
  H   H235      1.0  0.23899  0.62931  0.32541  1.0000
  H   H236      1.0  0.24503  0.61795  0.27412  1.0000
  C   C143      1.0  0.11577  0.76540  0.11741  1.0000
  C   C144      1.0  0.12811  0.73530  0.10789  1.0000
  C   C145      1.0  0.15674  0.72452  0.12653  1.0000
  C   C146      1.0  0.17343  0.74433  0.15447  1.0000
  C   C147      1.0  0.16095  0.77417  0.16423  1.0000
  C   C148      1.0  0.13208  0.78444  0.14596  1.0000
  H   H237      1.0  0.11563  0.72055  0.08575  1.0000
  H   H238      1.0  0.16616  0.70154  0.11878  1.0000
  H   H239      1.0  0.17379  0.78963  0.18583  1.0000
  H   H240      1.0  0.12283  0.80782  0.15339  1.0000
  N   N11       1.0  0.01458  0.51641  0.29020  1.0000
  N   N12       1.0  0.25388  0.58671  0.45708  1.0000
  C   C149      1.0  0.14743  0.81132  0.47085  1.0000
  C   C150      1.0  0.28546  0.58761  0.47990  1.0000
  H   H241      1.0  0.13422  0.78803  0.47359  1.0000
  C   C151      1.0  0.20867  0.52416  0.05807  1.0000
  Fe  Fe33      1.0  0.99475  0.81801  0.11143  1.0000
  H   H242      1.0  0.30018  0.58812  0.46676  1.0000
  S   S58       1.0  0.00108  0.82475  0.36237  1.0000
  H   H243      1.0  0.11992  0.83913  0.01018  1.0000
  C   C152      1.0  0.08517  0.91611  0.07208  1.0000
  H   H244      1.0  0.99944  0.71837  0.23271  1.0000
  H   H245      1.0  0.06489  0.90010  0.06735  1.0000
  C   C153      1.0  0.01456  0.99566  0.48426  1.0000
  C   C154      1.0  0.29142  0.61998  0.09353  1.0000
  H   H246      1.0  0.14460  0.87478  0.03216  1.0000
  C   C155      1.0  0.01445  0.97020  0.03874  1.0000
  H   H247      1.0  0.04570  0.55377  0.36747  1.0000
  H   H248      1.0  0.04980  0.52156  0.23663  1.0000
  C   C156      1.0  0.12780  0.85799  0.07581  1.0000
  H   H249      1.0  0.14923  0.80664  0.44742  1.0000
  Fe  Fe34      1.0  0.01332  0.88439  0.36227  1.0000
  H   H250      1.0  0.07932  0.94566  0.07148  1.0000
  N   N13       1.0  0.15714  0.67884  0.22631  1.0000
  C   C157      1.0  0.16794  0.65385  0.20658  1.0000
  C   C158      1.0  0.17901  0.71001  0.23927  1.0000
  C   C159      1.0  0.12847  0.69415  0.20370  1.0000
  C   C160      1.0  0.15348  0.65641  0.25241  1.0000
  C   C161      1.0  0.14755  0.62130  0.18895  1.0000
  C   C162      1.0  0.21055  0.69858  0.25948  1.0000
  C   C163      1.0  0.11402  0.72279  0.21776  1.0000
  C   C164      1.0  0.15493  0.67737  0.28295  1.0000
  H   H251      1.0  0.17251  0.66995  0.18822  1.0000
  H   H252      1.0  0.18895  0.64111  0.22181  1.0000
  H   H253      1.0  0.17288  0.72975  0.25421  1.0000
  H   H254      1.0  0.17964  0.72686  0.21922  1.0000
  H   H255      1.0  0.13106  0.70714  0.18273  1.0000
  H   H256      1.0  0.11191  0.67178  0.19355  1.0000
  H   H257      1.0  0.13255  0.64056  0.24269  1.0000
  H   H258      1.0  0.17087  0.63538  0.26108  1.0000
  H   H259      1.0  0.12850  0.63066  0.16784  1.0000
  H   H260      1.0  0.15957  0.60201  0.17957  1.0000
  H   H261      1.0  0.14035  0.60502  0.20509  1.0000
  H   H262      1.0  0.21173  0.67855  0.27814  1.0000
  H   H263      1.0  0.22115  0.68711  0.24404  1.0000
  H   H264      1.0  0.22355  0.72335  0.27173  1.0000
  H   H265      1.0  0.09412  0.73288  0.19798  1.0000
  H   H266      1.0  0.12799  0.74743  0.22796  1.0000
  H   H267      1.0  0.10670  0.71029  0.23556  1.0000
  H   H268      1.0  0.14024  0.66325  0.29246  1.0000
  H   H269      1.0  0.14820  0.70642  0.27950  1.0000
  H   H270      1.0  0.17701  0.67535  0.30241  1.0000
  C   C165      1.0  0.22501  0.60735  0.49141  1.0000
  S   S59       1.0  0.17260  0.52973  0.48066  1.0000
  H   H271      1.0  0.01292  0.81036  0.20491  1.0000
  H   H272      1.0  0.04231  0.56269  0.31601  1.0000
  H   H273      1.0  0.11678  0.92765  0.05218  1.0000
  H   H274      1.0  0.24083  0.50838  0.45506  1.0000
  C   C166      1.0  0.12097  0.86777  0.01977  1.0000
  Fe  Fe35      1.0  0.12478  0.50674  0.35963  1.0000
  H   H275      1.0  0.08104  0.91883  0.02344  1.0000
  H   H276      1.0  0.25403  0.66423  0.41129  1.0000
  H   H277      1.0  0.28430  0.64506  0.49741  1.0000
  H   H278      1.0  0.26178  0.61908  0.40191  1.0000
  C   C167      1.0  0.26287  0.63735  0.42212  1.0000
  H   H279      1.0  0.12470  0.95538  0.49146  1.0000
  H   H280      1.0  0.24489  0.55480  0.49260  1.0000
  C   C168      1.0  0.11426  0.89759  0.49391  1.0000
  C   C169      1.0  0.24425  0.62264  0.43981  1.0000
  C   C170      1.0  0.26988  0.54741  0.02483  1.0000
  H   H281      1.0  0.29111  0.53645  0.02676  1.0000
  C   C171      1.0  0.03834  0.53315  0.31956  1.0000
  H   H282      1.0  0.05961  0.52027  0.32369  1.0000
  H   H283      1.0  0.07028  0.84446  0.05120  1.0000
  H   H284      1.0  0.04590  0.76766  0.24892  1.0000
  H   H285      1.0  0.03608  0.73167  0.21795  1.0000
  H   H286      1.0  0.14923  0.86918  0.46768  1.0000
  H   H287      1.0  0.13492  0.92679  0.46572  1.0000
  C   C172      1.0  0.25011  0.55741  0.43173  1.0000
  H   H288      1.0  0.00994  0.76986  0.26791  1.0000
  H   H289      1.0  0.16003  0.82528  0.06442  1.0000
  H   H290      1.0  0.24370  0.64523  0.45617  1.0000
  H   H291      1.0  0.05371  0.77305  0.21417  1.0000
  C   C173      1.0  0.13345  0.84911  0.47029  1.0000
  H   H292      1.0  0.22762  0.55789  0.41280  1.0000
  S   S60       1.0  0.01381  0.83764  0.43925  1.0000
  H   H293      1.0  0.00695  0.81500  0.25252  1.0000
  S   S61       1.0  0.04361  0.92992  0.48304  1.0000
  C   C174      1.0  0.02286  0.89249  0.23434  1.0000
  H   H294      1.0  0.04480  0.50425  0.36416  1.0000
  H   H295      1.0  0.21774  0.52101  0.08386  1.0000
  H   H296      1.0  0.22134  0.62007  0.42189  1.0000
  C   C175      1.0  0.09759  0.90880  0.04638  1.0000
  C   C176      1.0  0.18941  0.56256  0.01137  1.0000
  H   H297      1.0  0.06826  0.52193  0.27924  1.0000
  C   C177      1.0  0.00783  0.78042  0.20432  1.0000
  H   H298      1.0  0.31072  0.57170  0.14617  1.0000
  H   H299      1.0  0.00030  0.77163  0.17863  1.0000
  H   H300      1.0  0.18367  0.58952  0.00096  1.0000
  C   C178      1.0  0.08043  0.84350  0.03337  1.0000
  N   N14       1.0  0.10621  0.86965  0.04320  1.0000
  C   C179      1.0  0.03735  0.76180  0.22274  1.0000
  C   C180      1.0  0.01032  0.90408  0.25578  1.0000
  H   H301      1.0  0.15828  0.81564  0.10197  1.0000
  H   H302      1.0  0.26483  0.56256  0.41909  1.0000
  C   C181      1.0  0.02043  0.95181  0.01473  1.0000
  H   H303      1.0  0.30599  0.62236  0.11914  1.0000
  S   S62       1.0  0.17270  0.51162  0.39068  1.0000
  H   H304      1.0  0.14446  0.88013  0.08706  1.0000
  C   C182      1.0  0.27312  0.58374  0.04407  1.0000
  C   C183      1.0  0.02033  0.52729  0.26110  1.0000
  C   C184      1.0  0.23451  0.57623  0.47432  1.0000
  C   C185      1.0  0.04832  0.51186  0.25910  1.0000
  H   H305      1.0  0.25111  0.59078  0.04284  1.0000
  H   H306      1.0  0.26921  0.62130  0.09361  1.0000
  C   C186      1.0  0.14476  0.82227  0.07655  1.0000
  H   H307      1.0  0.02383  0.92248  0.01635  1.0000
  H   H308      1.0  0.16986  0.81054  0.48961  1.0000
  S   S63       1.0  0.01219  0.94686  0.07259  1.0000
  C   C187      1.0  0.29586  0.65525  0.07726  1.0000
  H   H309      1.0  0.02735  0.98221  0.25751  1.0000
  C   C188      1.0  0.32061  0.97174  0.00172  1.0000
  C   C189      1.0  0.32517  0.57977  0.07864  1.0000
  H   H310      1.0  0.01196  0.53119  0.34951  1.0000
  H   H311      1.0  0.02208  0.55773  0.25977  1.0000
  H   H312      1.0  0.01367  0.90106  0.20958  1.0000
  H   H313      1.0  0.29763  0.67927  0.09340  1.0000
  H   H314      1.0  0.08265  0.83604  0.47552  1.0000
  C   C190      1.0  0.05606  0.84914  0.00008  1.0000
  H   H315      1.0  0.00375  0.99272  0.45845  1.0000
  H   H316      1.0  0.29871  0.52498  0.14092  1.0000
  C   C191      1.0  0.13413  0.92818  0.48984  1.0000
  H   H317      1.0  0.09332  0.89858  0.47252  1.0000
  C   C192      1.0  0.99441  0.78891  0.25050  1.0000
  H   H318      1.0  0.31597  0.65465  0.07256  1.0000
  S   S64       1.0  0.00131  0.87541  0.13290  1.0000
  H   H319      1.0  0.32669  0.59450  0.05790  1.0000
  H   H320      1.0  0.00222  0.66595  0.13864  1.0000
  H   H321      1.0  0.00005  0.73095  0.12183  1.0000
  H   H322      1.0  0.29122  0.56153  0.49351  1.0000
  S   S65       1.0  0.00716  0.91133  0.31482  1.0000
  H   H323      1.0  0.00179  0.51837  0.23854  1.0000
  H   H324      1.0  0.03135  0.00005  0.29582  1.0000
  C   C193      1.0  0.10195  0.83382  0.49868  1.0000
  N   N15       1.0  0.12618  0.85896  0.49871  1.0000
  H   H325      1.0  0.25668  0.55249  0.99901  1.0000
  H   H326      1.0  0.18829  0.72836  0.90595  1.0000
  H   H327      1.0  0.17348  0.73849  0.86526  1.0000
  C   C194      1.0  0.16149  0.84201  0.74284  1.0000
  Fe  Fe36      1.0  0.27319  0.82572  0.86249  1.0000
  S   S66       1.0  0.27443  0.88749  0.85882  1.0000
  S   S67       1.0  0.23325  0.78810  0.83672  1.0000
  H   H328      1.0  0.17574  0.53449  0.96513  1.0000
  H   H329      1.0  0.14990  0.87655  0.54805  1.0000
  Fe  Fe37      1.0  0.30422  0.88707  0.91147  1.0000
  H   H330      1.0  0.31875  0.62483  0.51222  1.0000
  S   S68       1.0  0.31196  0.81722  0.84895  1.0000
  S   S69       1.0  0.30057  0.82567  0.91599  1.0000
  Fe  Fe38      1.0  0.05861  0.77127  0.78234  1.0000
  S   S70       1.0  0.04092  0.76674  0.82091  1.0000
  S   S71       1.0  0.09609  0.81313  0.79243  1.0000
  H   H331      1.0  0.15989  0.68435  0.94533  1.0000
  Fe  Fe39      1.0  0.04200  0.70571  0.81291  1.0000
  S   S72       1.0  0.05959  0.66586  0.85400  1.0000
  S   S73       1.0  0.06180  0.71011  0.77644  1.0000
  H   H332      1.0  0.10730  0.74831  0.84137  1.0000
  H   H333      1.0  0.16503  0.85711  0.76549  1.0000
  H   H334      1.0  0.02866  0.53124  0.83191  1.0000
  C   C195      1.0  0.13315  0.68431  0.84260  1.0000
  H   H335      1.0  0.10902  0.90663  0.51455  1.0000
  H   H336      1.0  0.24708  0.86923  0.79156  1.0000
  H   H337      1.0  0.30539  0.99263  0.98858  1.0000
  H   H338      1.0  0.07758  0.86619  0.52099  1.0000
  C   C196      1.0  0.14090  0.64787  0.83018  1.0000
  H   H339      1.0  0.11972  0.88600  0.97355  1.0000
  H   H340      1.0  0.13890  0.77415  0.86820  1.0000
  H   H341      1.0  0.22333  0.70512  0.89016  1.0000
  C   C197      1.0  0.01489  0.98655  0.82610  1.0000
  H   H342      1.0  0.13843  0.84632  0.72648  1.0000
  C   C198      1.0  0.07170  0.62349  0.84465  1.0000
  C   C199      1.0  0.06848  0.61521  0.81323  1.0000
  C   C200      1.0  0.07959  0.58236  0.80635  1.0000
  C   C201      1.0  0.09390  0.55737  0.83076  1.0000
  C   C202      1.0  0.09680  0.56526  0.86218  1.0000
  C   C203      1.0  0.08567  0.59828  0.86908  1.0000
  H   H343      1.0  0.05750  0.63413  0.79416  1.0000
  H   H344      1.0  0.07711  0.57632  0.78195  1.0000
  H   H345      1.0  0.10766  0.54603  0.88112  1.0000
  H   H346      1.0  0.08809  0.60444  0.89343  1.0000
  C   C204      1.0  0.22034  0.81140  0.75053  1.0000
  C   C205      1.0  0.16210  0.82041  0.54582  1.0000
  C   C206      1.0  0.22465  0.85434  0.69475  1.0000
  H   H347      1.0  0.20838  0.79516  0.72813  1.0000
  H   H348      1.0  0.19403  0.68035  0.94007  1.0000
  H   H349      1.0  0.10673  0.77121  0.87597  1.0000
  C   C207      1.0  0.04914  0.97458  0.53520  1.0000
  H   H350      1.0  0.12801  0.64546  0.80386  1.0000
  H   H351      1.0  0.17598  0.64060  0.94669  1.0000
  C   C208      1.0  0.19529  0.79540  0.82577  1.0000
  C   C209      1.0  0.18449  0.82824  0.83294  1.0000
  C   C210      1.0  0.15415  0.83306  0.82280  1.0000
  C   C211      1.0  0.13419  0.80501  0.80581  1.0000
  C   C212      1.0  0.14501  0.77214  0.79874  1.0000
  C   C213      1.0  0.17532  0.76747  0.80854  1.0000
  H   H352      1.0  0.19948  0.85005  0.84613  1.0000
  H   H353      1.0  0.14608  0.85873  0.82821  1.0000
  H   H354      1.0  0.12995  0.75071  0.78498  1.0000
  H   H355      1.0  0.18333  0.74209  0.80251  1.0000
  S   S74       1.0  0.29969  0.93242  0.94450  1.0000
  H   H356      1.0  0.10952  0.68163  0.83752  1.0000
  H   H357      1.0  0.02209  0.50043  0.70020  1.0000
  C   C214      1.0  0.15294  0.85830  0.52969  1.0000
  C   C215      1.0  0.32177  0.93843  0.98604  1.0000
  H   H358      1.0  0.25516  0.77156  0.76811  1.0000
  C   C216      1.0  0.18159  0.85624  0.72674  1.0000
  H   H359      1.0  0.02582  0.96774  0.84652  1.0000
  H   H360      1.0  0.20310  0.66377  0.88350  1.0000
  H   H361      1.0  0.13467  0.62364  0.84093  1.0000
  N   N16       1.0  0.15020  0.69481  0.87748  1.0000
  H   H362      1.0  0.17616  0.88553  0.72026  1.0000
  H   H363      1.0  0.26615  0.81662  0.78469  1.0000
  H   H364      1.0  0.19052  0.91449  0.76861  1.0000
  H   H365      1.0  0.15718  0.81862  0.56763  1.0000
  H   H366      1.0  0.00482  0.51691  0.77581  1.0000
  C   C217      1.0  0.17809  0.71483  0.88183  1.0000
  H   H367      1.0  0.08620  0.89402  0.97776  1.0000
  H   H368      1.0  0.13394  0.64804  0.89478  1.0000
  H   H369      1.0  0.11230  0.70623  0.88803  1.0000
  H   H370      1.0  0.16396  0.81206  0.74755  1.0000
  C   C218      1.0  0.09103  0.84106  0.52564  1.0000
  C   C219      1.0  0.23016  0.87030  0.72845  1.0000
  H   H371      1.0  0.01886  0.52777  0.73146  1.0000
  H   H372      1.0  0.24338  0.62423  0.50795  1.0000
  H   H373      1.0  0.07665  0.81776  0.52609  1.0000
  H   H374      1.0  0.17484  0.84125  0.70329  1.0000
  H   H375      1.0  0.25407  0.87124  0.74310  1.0000
  H   H376      1.0  0.02646  0.95673  0.97015  1.0000
  S   S75       1.0  0.10731  0.51652  0.82058  1.0000
  H   H377      1.0  0.21448  0.85440  0.79429  1.0000
  H   H378      1.0  0.19822  0.69357  0.84999  1.0000
  S   S76       1.0  0.01324  0.77466  0.74269  1.0000
  H   H379      1.0  0.16705  0.63947  0.89104  1.0000
  C   C220      1.0  0.21440  0.91061  0.77950  1.0000
  C   C221      1.0  0.17231  0.66766  0.93455  1.0000
  H   H380      1.0  0.24475  0.85774  0.69004  1.0000
  H   H381      1.0  0.21961  0.82448  0.69223  1.0000
  H   H382      1.0  0.10767  0.80436  0.49960  1.0000
  H   H383      1.0  0.20653  0.86889  0.67595  1.0000
  N   N17       1.0  0.21373  0.85196  0.74603  1.0000
  H   H384      1.0  0.22446  0.89991  0.72469  1.0000
  H   H385      1.0  0.06488  0.95460  0.54908  1.0000
  Fe  Fe40      1.0  0.99587  0.76573  0.78102  1.0000
  H   H386      1.0  0.06355  0.84252  0.98067  1.0000
  C   C222      1.0  0.18488  0.53137  0.99093  1.0000
  H   H387      1.0  0.22525  0.92901  0.76813  1.0000
  Fe  Fe41      1.0  0.31459  0.87885  0.84858  1.0000
  H   H388      1.0  0.04298  0.51897  0.78693  1.0000
  H   H389      1.0  0.30724  0.85269  0.76999  1.0000
  H   H390      1.0  0.05138  0.96987  0.81445  1.0000
  C   C223      1.0  0.22301  0.86995  0.77878  1.0000
  H   H391      1.0  0.14404  0.73145  0.91255  1.0000
  H   H392      1.0  0.16408  0.64622  0.83408  1.0000
  C   C224      1.0  0.12084  0.75535  0.86682  1.0000
  C   C225      1.0  0.13185  0.72086  0.88764  1.0000
  Fe  Fe42      1.0  0.01517  0.71253  0.74096  1.0000
  H   H393      1.0  0.30935  0.84179  0.71648  1.0000
  H   H394      1.0  0.22179  0.91998  0.80495  1.0000
  C   C226      1.0  0.15523  0.66117  0.89817  1.0000
  C   C227      1.0  0.11010  0.89415  0.99093  1.0000
  H   H395      1.0  0.13483  0.70639  0.82660  1.0000
  H   H396      1.0  0.21230  0.79973  0.76818  1.0000
  C   C228      1.0  0.25277  0.80136  0.76241  1.0000
  H   H397      1.0  0.01230  0.90058  0.52463  1.0000
  H   H398      1.0  0.10897  0.84332  0.54970  1.0000
  H   H399      1.0  0.01798  0.96232  0.78187  1.0000
  C   C229      1.0  0.20161  0.69267  0.87573  1.0000
  H   H400      1.0  0.26157  0.80619  0.74379  1.0000
  C   C230      1.0  0.02170  0.97138  0.98838  1.0000
  C   C231      1.0  0.02941  0.98172  0.80192  1.0000
  H   H401      1.0  0.18613  0.81792  0.55444  1.0000
  H   H402      1.0  0.17202  0.87011  0.52601  1.0000
  H   H403      1.0  0.29234  0.61000  0.52768  1.0000
  C   C232      1.0  0.29527  0.61859  0.50567  1.0000
  H   H404      1.0  0.00855  0.91122  0.82142  1.0000
  H   H405      1.0  0.18325  0.51562  0.54625  1.0000
  H   H406      1.0  0.15261  0.79606  0.53030  1.0000
  C   C233      1.0  0.31847  0.87211  0.76087  1.0000
  C   C234      1.0  0.02526  0.50155  0.78869  1.0000
  C   C235      1.0  0.03084  0.50242  0.82468  1.0000
  S   S77       1.0  0.99546  0.67751  0.69555  1.0000
  C   C236      1.0  0.31977  0.86599  0.73063  1.0000
  H   H407      1.0  0.00644  0.63701  0.75374  1.0000
  S   S78       1.0  0.99580  0.70413  0.77731  1.0000
  H   H408      1.0  0.21398  0.59488  0.50600  1.0000
  H   H409      1.0  0.15645  0.92786  0.50881  1.0000
  H   H410      1.0  0.03779  0.82976  0.99707  1.0000
  H   H411      1.0  0.04714  0.87727  0.99716  1.0000
  C   C237      1.0  0.03493  0.96945  0.50164  1.0000
  H   H412      1.0  0.11753  0.92290  0.99881  1.0000
  S   S79       1.0  0.37323  0.19240  0.43628  1.0000
  Fe  Fe43      1.0  0.38288  0.05074  0.18006  1.0000
  S   S80       1.0  0.42982  0.05463  0.21340  1.0000
  H   H413      1.0  0.37765  0.14086  0.37771  1.0000
  H   H414      1.0  0.40867  0.33719  0.14967  1.0000
  C   C238      1.0  0.38369  0.10611  0.49250  1.0000
  Fe  Fe44      1.0  0.43876  0.06579  0.16942  1.0000
  S   S81       1.0  0.47516  0.10829  0.17803  1.0000
  H   H415      1.0  0.52882  0.00087  0.22097  1.0000
  S   S82       1.0  0.63009  0.05742  0.35532  1.0000
  Fe  Fe45      1.0  0.62360  0.07360  0.39992  1.0000
  S   S83       1.0  0.58266  0.10526  0.39350  1.0000
  H   H416      1.0  0.32751  0.13098  0.48257  1.0000
  Fe  Fe46      1.0  0.54629  0.30214  0.43722  1.0000
  S   S84       1.0  0.51644  0.29705  0.38540  1.0000
  S   S85       1.0  0.58201  0.26046  0.45993  1.0000
  Fe  Fe47      1.0  0.52540  0.38104  0.44508  1.0000
  S   S86       1.0  0.49423  0.38083  0.39285  1.0000
  H   H417      1.0  0.64629  0.16594  0.03079  1.0000
  Fe  Fe48      1.0  0.48341  0.32235  0.40144  1.0000
  S   S87       1.0  0.43730  0.30048  0.37517  1.0000
  Fe  Fe49      1.0  0.52955  0.35509  0.38089  1.0000
  S   S88       1.0  0.54961  0.37101  0.34554  1.0000
  S   S89       1.0  0.51245  0.32362  0.45441  1.0000
  S   S90       1.0  0.56151  0.35902  0.43214  1.0000
  Fe  Fe50      1.0  0.56408  0.32927  0.14600  1.0000
  S   S91       1.0  0.53782  0.31843  0.09357  1.0000
  S   S92       1.0  0.61219  0.31764  0.17106  1.0000
  Fe  Fe51      1.0  0.51226  0.35598  0.15871  1.0000
  S   S93       1.0  0.48233  0.34797  0.10662  1.0000
  S   S94       1.0  0.48965  0.36863  0.19255  1.0000
  Fe  Fe52      1.0  0.50483  0.29390  0.11027  1.0000
  S   S95       1.0  0.47803  0.24190  0.08941  1.0000
  Fe  Fe53      1.0  0.51769  0.37393  0.09406  1.0000
  S   S96       1.0  0.50674  0.40901  0.04830  1.0000
  S   S97       1.0  0.53268  0.30058  0.16260  1.0000
  S   S98       1.0  0.54613  0.38620  0.14626  1.0000
  C   C239      1.0  0.51419  0.45153  0.03288  1.0000
  H   H418      1.0  0.36536  0.01958  0.29563  1.0000
  C   C240      1.0  0.65233  0.22823  0.12991  1.0000
  C   C241      1.0  0.53251  0.36835  0.30307  1.0000
  C   C242      1.0  0.50252  0.36240  0.28692  1.0000
  C   C243      1.0  0.48973  0.36233  0.25306  1.0000
  C   C244      1.0  0.50687  0.36697  0.23504  1.0000
  C   C245      1.0  0.53697  0.37181  0.25124  1.0000
  C   C246      1.0  0.54960  0.37322  0.28507  1.0000
  H   H419      1.0  0.48908  0.35900  0.30048  1.0000
  H   H420      1.0  0.46638  0.35917  0.24080  1.0000
  H   H421      1.0  0.55036  0.37588  0.23769  1.0000
  H   H422      1.0  0.57275  0.37840  0.29735  1.0000
  H   H423      1.0  0.42964  0.22747  0.46265  1.0000
  C   C247      1.0  0.61203  0.39669  0.11942  1.0000
  H   H424      1.0  0.50106  0.46735  0.40699  1.0000
  C   C248      1.0  0.58191  0.21770  0.44081  1.0000
  C   C249      1.0  0.55641  0.20266  0.41740  1.0000
  C   C250      1.0  0.55697  0.16811  0.40323  1.0000
  C   C251      1.0  0.58309  0.14869  0.41179  1.0000
  C   C252      1.0  0.60872  0.16415  0.43460  1.0000
  C   C253      1.0  0.60803  0.19820  0.44946  1.0000
  H   H425      1.0  0.53614  0.21727  0.41076  1.0000
  H   H426      1.0  0.53704  0.15631  0.38561  1.0000
  H   H427      1.0  0.39852  0.09896  0.38416  1.0000
  C   C254      1.0  0.58446  0.17675  0.14548  1.0000
  C   C255      1.0  0.47572  0.14442  0.15239  1.0000
  C   C256      1.0  0.49901  0.16997  0.16337  1.0000
  C   C257      1.0  0.50001  0.19987  0.14429  1.0000
  C   C258      1.0  0.47786  0.20426  0.11384  1.0000
  C   C259      1.0  0.45482  0.17837  0.10264  1.0000
  C   C260      1.0  0.45360  0.14869  0.12191  1.0000
  H   H428      1.0  0.51622  0.16680  0.18688  1.0000
  H   H429      1.0  0.51801  0.21934  0.15301  1.0000
  H   H430      1.0  0.43766  0.18150  0.07906  1.0000
  H   H431      1.0  0.43560  0.12916  0.11319  1.0000
  C   C261      1.0  0.62324  0.23821  0.11323  1.0000
  C   C262      1.0  0.61050  0.26484  0.12610  1.0000
  C   C263      1.0  0.62700  0.28236  0.15537  1.0000
  C   C264      1.0  0.65614  0.27239  0.17208  1.0000
  H   H432      1.0  0.61042  0.22513  0.09035  1.0000
  H   H433      1.0  0.58801  0.27203  0.11313  1.0000
  H   H434      1.0  0.45935  0.46669  0.35523  1.0000
  C   C265      1.0  0.39097  0.22216  0.41903  1.0000
  C   C266      1.0  0.37751  0.23276  0.38700  1.0000
  C   C267      1.0  0.39196  0.25701  0.37404  1.0000
  C   C268      1.0  0.42006  0.27046  0.39281  1.0000
  C   C269      1.0  0.43373  0.25940  0.42471  1.0000
  C   C270      1.0  0.41912  0.23551  0.43783  1.0000
  C   C271      1.0  0.63146  0.11468  0.14609  1.0000
  H   H435      1.0  0.38123  0.26564  0.34939  1.0000
  H   H436      1.0  0.45538  0.26963  0.43936  1.0000
  H   H437      1.0  0.42212  0.33335  0.19287  1.0000
  H   H438      1.0  0.63745  0.47495  0.07564  1.0000
  H   H439      1.0  0.65552  0.31239  0.10191  1.0000
  H   H440      1.0  0.59429  0.05721  0.26727  1.0000
  H   H441      1.0  0.39907  0.06655  0.46667  1.0000
  H   H442      1.0  0.58714  0.31187  0.29779  1.0000
  H   H443      1.0  0.61199  0.45556  0.03941  1.0000
  C   C272      1.0  0.63085  0.41583  0.07844  1.0000
  C   C273      1.0  0.40562  0.32297  0.16967  1.0000
  H   H444      1.0  0.44246  0.07990  0.37808  1.0000
  C   C274      1.0  0.39964  0.12897  0.38934  1.0000
  H   H445      1.0  0.39707  0.19254  0.28643  1.0000
  H   H446      1.0  0.40052  0.26908  0.18589  1.0000
  C   C275      1.0  0.40630  0.28064  0.16647  1.0000
  H   H447      1.0  0.35966  0.18279  0.27757  1.0000
  H   H448      1.0  0.46412  0.26957  0.14368  1.0000
  H   H449      1.0  0.51503  0.23737  0.31472  1.0000
  C   C276      1.0  0.57335  0.38353  0.02697  1.0000
  H   H450      1.0  0.34509  0.02483  0.45980  1.0000
  H   H451      1.0  0.48330  0.22195  0.21234  1.0000
  C   C277      1.0  0.57021  0.01711  0.28282  1.0000
  H   H452      1.0  0.56893  0.15438  0.14454  1.0000
  H   H453      1.0  0.65391  0.16534  0.16781  1.0000
  C   C278      1.0  0.60453  0.29165  0.36235  1.0000
  H   H454      1.0  0.53844  0.47781  0.07857  1.0000
  N   N18       1.0  0.58956  0.25618  0.34619  1.0000
  H   H455      1.0  0.60035  0.22124  0.38765  1.0000
  H   H456      1.0  0.64487  0.08102  0.03010  1.0000
  H   H457      1.0  0.64314  0.07668  0.20636  1.0000
  H   H458      1.0  0.61422  0.25477  0.31631  1.0000
  S   S99       1.0  0.35098  0.08328  0.19491  1.0000
  C   C279      1.0  0.38201  0.17183  0.28953  1.0000
  H   H459      1.0  0.63712  0.40317  0.05960  1.0000
  H   H460      1.0  0.64061  0.08655  0.15129  1.0000
  C   C280      1.0  0.62651  0.08531  0.21544  1.0000
  C   C281      1.0  0.53043  0.48046  0.05280  1.0000
  S   S100      1.0  0.44477  0.00576  0.16139  1.0000
  C   C282      1.0  0.61925  0.45456  0.06594  1.0000
  C   C283      1.0  0.51337  0.06155  0.24821  1.0000
  C   C284      1.0  0.34172  0.02065  0.48169  1.0000
  H   H461      1.0  0.65484  0.22278  0.22456  1.0000
  H   H462      1.0  0.43088  0.29557  0.09309  1.0000
  H   H463      1.0  0.62680  0.29371  0.36235  1.0000
  H   H464      1.0  0.65155  0.41976  0.10001  1.0000
  H   H465      1.0  0.55238  0.28828  0.28753  1.0000
  H   H466      1.0  0.38273  0.14605  0.27657  1.0000
  H   H467      1.0  0.61779  0.11326  0.02455  1.0000
  H   H468      1.0  0.61770  0.45684  0.12616  1.0000
  H   H469      1.0  0.61116  0.06171  0.21163  1.0000
  C   C285      1.0  0.42168  0.28074  0.10834  1.0000
  H   H470      1.0  0.53287  0.07959  0.25438  1.0000
  C   C286      1.0  0.50180  0.48672  0.38835  1.0000
  H   H471      1.0  0.63718  0.09022  0.24180  1.0000
  C   C287      1.0  0.57528  0.28520  0.29027  1.0000
  H   H472      1.0  0.38262  0.12752  0.47474  1.0000
  N   N19       1.0  0.41670  0.14688  0.34450  1.0000
  C   C288      1.0  0.42198  0.14944  0.37959  1.0000
  C   C289      1.0  0.44189  0.16524  0.33985  1.0000
  C   C290      1.0  0.41441  0.10729  0.33317  1.0000
  C   C291      1.0  0.38834  0.16545  0.32529  1.0000
  C   C292      1.0  0.44626  0.20684  0.34822  1.0000
  C   C293      1.0  0.43989  0.08225  0.35275  1.0000
  H   H473      1.0  0.43141  0.17337  0.18647  1.0000
  C   C294      1.0  0.57896  0.45811  0.39721  1.0000
  H   H474      1.0  0.42172  0.17866  0.38713  1.0000
  H   H475      1.0  0.44012  0.16126  0.31474  1.0000
  H   H476      1.0  0.46279  0.15226  0.35513  1.0000
  H   H477      1.0  0.39410  0.09402  0.33263  1.0000
  H   H478      1.0  0.41263  0.10552  0.30793  1.0000
  H   H479      1.0  0.36958  0.14900  0.32571  1.0000
  H   H480      1.0  0.38693  0.19257  0.33617  1.0000
  H   H481      1.0  0.46388  0.21781  0.34152  1.0000
  C   C295      1.0  0.36012  0.04773  0.25204  1.0000
  H   H482      1.0  0.45340  0.21208  0.37441  1.0000
  H   H483      1.0  0.43517  0.05399  0.34209  1.0000
  H   H484      1.0  0.46072  0.09130  0.35169  1.0000
  C   C296      1.0  0.57845  0.03426  0.25637  1.0000
  H   H485      1.0  0.59612  0.12877  0.21140  1.0000
  C   C297      1.0  0.53749  0.22638  0.32424  1.0000
  H   H486      1.0  0.60430  0.33110  0.08831  1.0000
  C   C298      1.0  0.60264  0.18641  0.35020  1.0000
  H   H487      1.0  0.39800  0.19864  0.17605  1.0000
  H   H488      1.0  0.36195  0.09233  0.48246  1.0000
  H   H489      1.0  0.57482  0.27858  0.26607  1.0000
  C   C299      1.0  0.44405  0.28262  0.14352  1.0000
  S   S101      1.0  0.63075  0.01621  0.41982  1.0000
  H   H490      1.0  0.54843  0.28409  0.33597  1.0000
  H   H491      1.0  0.41749  0.25207  0.09881  1.0000
  H   H492      1.0  0.59061  0.00597  0.46015  1.0000
  H   H493      1.0  0.62903  0.14985  0.44078  1.0000
  H   H494      1.0  0.53518  0.44444  0.36659  1.0000
  H   H495      1.0  0.53806  0.20227  0.33934  1.0000
  C   C300      1.0  0.60769  0.29776  0.39741  1.0000
  H   H496      1.0  0.44408  0.13961  0.39497  1.0000
  H   H497      1.0  0.62157  0.20671  0.17660  1.0000
  C   C301      1.0  0.55875  0.25691  0.34429  1.0000
  H   H498      1.0  0.57141  0.20224  0.13828  1.0000
  C   C302      1.0  0.64790  0.16298  0.22794  1.0000
  H   H499      1.0  0.42660  0.22317  0.33514  1.0000
  H   H500      1.0  0.40096  0.29435  0.10495  1.0000
  N   N20       1.0  0.61050  0.39009  0.08585  1.0000
  H   H501      1.0  0.41315  0.21881  0.13702  1.0000
  C   C303      1.0  0.35600  0.04313  0.28082  1.0000
  H   H502      1.0  0.45028  0.31209  0.14962  1.0000
  C   C304      1.0  0.57929  0.39295  0.06231  1.0000
  H   H503      1.0  0.50250  0.26230  0.23338  1.0000
  C   C305      1.0  0.40564  0.07683  0.49178  1.0000
  C   C306      1.0  0.34754  0.07743  0.23216  1.0000
  H   H504      1.0  0.63539  0.16887  0.24306  1.0000
  H   H505      1.0  0.56501  0.37454  0.06941  1.0000
  C   C307      1.0  0.60845  0.18309  0.17923  1.0000
  H   H506      1.0  0.59265  0.47081  0.42077  1.0000
  H   H507      1.0  0.63992  0.01518  0.49742  1.0000
  H   H508      1.0  0.65095  0.07157  0.48041  1.0000
  H   H509      1.0  0.44978  0.26857  0.22024  1.0000
  H   H510      1.0  0.57325  0.35330  0.02300  1.0000
  H   H511      1.0  0.59266  0.31602  0.34901  1.0000
  S   S102      1.0  0.39143  0.06507  0.13577  1.0000
  H   H512      1.0  0.35575  0.22291  0.37242  1.0000
  C   C308      1.0  0.66042  0.15137  0.02076  1.0000
  H   H513      1.0  0.63718  0.12491  0.12625  1.0000
  H   H514      1.0  0.59846  0.37575  0.12516  1.0000
  N   N21       1.0  0.53301  0.49408  0.39297  1.0000
  H   H515      1.0  0.60170  0.46494  0.07269  1.0000
  H   H516      1.0  0.57977  0.44098  0.11108  1.0000
  H   H517      1.0  0.61938  0.32432  0.40662  1.0000
  H   H518      1.0  0.38396  0.33106  0.16887  1.0000
  H   H519      1.0  0.56024  0.04584  0.23582  1.0000
  N   N22       1.0  0.62773  0.15092  0.19442  1.0000
  H   H520      1.0  0.57971  0.17706  0.33863  1.0000
  C   C309      1.0  0.59104  0.25431  0.31359  1.0000
  C   C310      1.0  0.62845  0.09744  0.01106  1.0000
  H   H521      1.0  0.63458  0.39348  0.13759  1.0000
  S   S103      1.0  0.53870  0.43505  0.47552  1.0000
  C   C311      1.0  0.42206  0.20137  0.18468  1.0000
  H   H522      1.0  0.57659  0.04158  0.47714  1.0000
  H   H523      1.0  0.65394  0.00649  0.03656  1.0000
  H   H524      1.0  0.49686  0.01779  0.26804  1.0000
  H   H525      1.0  0.58626  0.30017  0.39913  1.0000
  H   H526      1.0  0.38798  0.27198  0.14377  1.0000
  H   H527      1.0  0.43067  0.21273  0.20945  1.0000
  H   H528      1.0  0.59823  0.05285  0.45447  1.0000
  H   H529      1.0  0.62787  0.20978  0.46742  1.0000
  H   H530      1.0  0.40614  0.13240  0.41567  1.0000
  H   H531      1.0  0.59312  0.10935  0.17467  1.0000
  S   S104      1.0  0.33503  0.06060  0.32674  1.0000
  H   H532      1.0  0.37252  0.02784  0.24487  1.0000
  H   H533      1.0  0.59384  0.17220  0.12730  1.0000
  C   C312      1.0  0.60619  0.22467  0.36659  1.0000
  H   H534      1.0  0.61309  0.18556  0.33267  1.0000
  H   H535      1.0  0.62052  0.27599  0.41373  1.0000
  N   N23       1.0  0.43469  0.26517  0.16806  1.0000
  S   S105      1.0  0.34138  0.09814  0.40823  1.0000
  H   H536      1.0  0.46414  0.30290  0.20359  1.0000
  Fe  Fe54      1.0  0.33380  0.15894  0.40415  1.0000
  C   C313      1.0  0.61966  0.35080  0.08412  1.0000
  H   H537      1.0  0.61413  0.16580  0.36876  1.0000
  H   H538      1.0  0.57442  0.03828  0.30214  1.0000
  H   H539      1.0  0.52573  0.04472  0.29634  1.0000
  H   H540      1.0  0.49644  0.25600  0.19214  1.0000
  H   H541      1.0  0.54102  0.21715  0.30280  1.0000
  H   H542      1.0  0.50577  0.05106  0.22316  1.0000
  C   C314      1.0  0.59573  0.03358  0.47204  1.0000
  H   H543      1.0  0.61879  0.34396  0.05977  1.0000
  H   H544      1.0  0.58633  0.42925  0.39754  1.0000
  C   C315      1.0  0.33140  0.10294  0.24185  1.0000
  H   H545      1.0  0.45014  0.00965  0.04046  1.0000
  C   C316      1.0  0.48652  0.25185  0.20982  1.0000
  C   C317      1.0  0.48135  0.47108  0.35514  1.0000
  H   H546      1.0  0.45010  0.21216  0.15928  1.0000
  H   H547      1.0  0.48823  0.44396  0.34942  1.0000
  H   H548      1.0  0.58908  0.39706  0.01877  1.0000
  H   H549      1.0  0.49579  0.07940  0.24919  1.0000
  H   H550      1.0  0.58208  0.22800  0.30076  1.0000
  C   C318      1.0  0.54621  0.45739  0.39079  1.0000
  H   H551      1.0  0.55876  0.25478  0.36875  1.0000
  C   C319      1.0  0.45793  0.27323  0.20100  1.0000
  C   C320      1.0  0.43059  0.22439  0.16115  1.0000
  H   H552      1.0  0.57050  0.42068  0.06249  1.0000
  C   C321      1.0  0.60255  0.43470  0.12681  1.0000
  H   H553      1.0  0.54333  0.43772  0.40807  1.0000
  H   H554      1.0  0.55124  0.39317  0.01146  1.0000
  H   H555      1.0  0.60750  0.11272  0.13632  1.0000
  H   H556      1.0  0.60354  0.43466  0.15175  1.0000
  C   C322      1.0  0.64591  0.14029  0.17588  1.0000
  C   C323      1.0  0.60943  0.11937  0.19802  1.0000
  H   H557      1.0  0.63007  0.23071  0.37681  1.0000
  H   H558      1.0  0.58309  0.47202  0.37772  1.0000
  H   H559      1.0  0.59757  0.19318  0.19498  1.0000
  H   H560      1.0  0.56008  0.48858  0.44397  1.0000
  C   C324      1.0  0.51855  0.03052  0.27255  1.0000
  C   C325      1.0  0.50355  0.45619  0.99934  1.0000
  H   H561      1.0  0.47876  0.49057  0.33556  1.0000
  H   H562      1.0  0.41729  0.00467  0.04833  1.0000
  C   C326      1.0  0.33983  0.06851  0.29048  1.0000
  C   C327      1.0  0.65075  0.34087  0.10754  1.0000
  Fe  Fe55      1.0  0.39649  0.00345  0.13060  1.0000
  H   H563      1.0  0.65294  0.34058  0.13284  1.0000
  H   H564      1.0  0.33924  0.00497  0.04536  1.0000
  C   C328      1.0  0.64404  0.08975  0.49604  1.0000
  C   C329      1.0  0.32796  0.09888  0.27112  1.0000
  Fe  Fe56      1.0  0.64168  0.00187  0.37767  1.0000
  H   H565      1.0  0.59027  0.01399  0.24759  1.0000
  H   H566      1.0  0.53140  0.00411  0.33444  1.0000
  H   H567      1.0  0.62459  0.10442  0.47934  1.0000
  N   N24       1.0  0.53982  0.00123  0.27270  1.0000
  H   H568      1.0  0.56974  0.00187  0.34114  1.0000
  H   H569      1.0  0.42829  0.15358  0.49681  1.0000
  H   H570      1.0  0.33226  0.46161  0.67149  1.0000
  H   H571      1.0  0.40560  0.05260  0.50643  1.0000
  H   H572      1.0  0.42643  0.17201  0.70296  1.0000
  Fe  Fe57      1.0  0.54765  0.26222  0.75480  1.0000
  S   S106      1.0  0.53309  0.27037  0.79544  1.0000
  S   S107      1.0  0.58749  0.28802  0.74921  1.0000
  Fe  Fe58      1.0  0.49903  0.20382  0.72228  1.0000
  S   S108      1.0  0.48187  0.20770  0.76106  1.0000
  S   S109      1.0  0.47756  0.16393  0.68068  1.0000
  Fe  Fe59      1.0  0.48685  0.26883  0.75739  1.0000
  S   S110      1.0  0.45197  0.31011  0.75629  1.0000
  Fe  Fe60      1.0  0.52916  0.20836  0.79457  1.0000
  S   S111      1.0  0.54841  0.17359  0.83925  1.0000
  S   S112      1.0  0.50177  0.26508  0.71663  1.0000
  S   S113      1.0  0.54587  0.20040  0.75583  1.0000
  C   C330      1.0  0.35214  0.29480  0.70393  1.0000
  C   C331      1.0  0.36406  0.32512  0.72443  1.0000
  C   C332      1.0  0.39461  0.32932  0.74034  1.0000
  C   C333      1.0  0.41360  0.30335  0.73601  1.0000
  C   C334      1.0  0.40163  0.27335  0.71514  1.0000
  C   C335      1.0  0.37113  0.26925  0.69917  1.0000
  H   H573      1.0  0.34979  0.34499  0.72845  1.0000
  H   H574      1.0  0.40360  0.35265  0.75641  1.0000
  H   H575      1.0  0.41593  0.25348  0.71117  1.0000
  H   H576      1.0  0.36212  0.24629  0.68274  1.0000
  H   H577      1.0  0.43629  0.11788  0.54735  1.0000
  H   H578      1.0  0.59408  0.07812  0.96418  1.0000
  C   C336      1.0  0.42421  0.15311  0.79319  1.0000
  C   C337      1.0  0.62122  0.30476  0.77869  1.0000
  C   C338      1.0  0.62417  0.31601  0.80947  1.0000
  H   H579      1.0  0.50078  0.49179  0.96009  1.0000
  C   C339      1.0  0.58068  0.44060  0.79252  1.0000
  C   C340      1.0  0.54850  0.49339  0.77317  1.0000
  H   H580      1.0  0.60557  0.31454  0.81596  1.0000
  N   N25       1.0  0.35406  0.38385  0.64008  1.0000
  S   S114      1.0  0.43843  0.01382  0.72226  1.0000
  C   C341      1.0  0.65200  0.08034  0.95355  1.0000
  H   H581      1.0  0.58225  0.38422  0.81051  1.0000
  H   H582      1.0  0.48563  0.46399  0.54539  1.0000
  C   C342      1.0  0.38648  0.09367  0.54663  1.0000
  H   H583      1.0  0.60235  0.40494  0.65503  1.0000
  C   C343      1.0  0.58152  0.06081  0.82330  1.0000
  C   C344      1.0  0.58691  0.07330  0.85451  1.0000
  C   C345      1.0  0.57596  0.10750  0.85929  1.0000
  C   C346      1.0  0.55971  0.12927  0.83295  1.0000
  C   C347      1.0  0.55366  0.11605  0.80187  1.0000
  C   C348      1.0  0.56459  0.08208  0.79707  1.0000
  H   H584      1.0  0.59983  0.05688  0.87486  1.0000
  H   H585      1.0  0.58049  0.11740  0.88340  1.0000
  H   H586      1.0  0.54058  0.13196  0.78141  1.0000
  H   H587      1.0  0.56007  0.07243  0.77286  1.0000
  C   C349      1.0  0.45148  0.05354  0.71011  1.0000
  C   C350      1.0  0.46854  0.07905  0.73357  1.0000
  C   C351      1.0  0.47723  0.11250  0.72464  1.0000
  C   C352      1.0  0.46899  0.12066  0.69219  1.0000
  C   C353      1.0  0.45274  0.09460  0.66870  1.0000
  C   C354      1.0  0.44397  0.06104  0.67762  1.0000
  H   H588      1.0  0.47478  0.07320  0.75877  1.0000
  H   H589      1.0  0.49012  0.13211  0.74290  1.0000
  H   H590      1.0  0.44661  0.10060  0.64358  1.0000
  H   H591      1.0  0.43092  0.04138  0.65938  1.0000
  S   S115      1.0  0.59623  0.01961  0.81575  1.0000
  H   H592      1.0  0.44333  0.17108  0.80687  1.0000
  N   N26       1.0  0.39467  0.12944  0.73520  1.0000
  C   C355      1.0  0.39801  0.09006  0.74653  1.0000
  C   C356      1.0  0.42078  0.15096  0.75788  1.0000
  C   C357      1.0  0.39420  0.12944  0.70161  1.0000
  C   C358      1.0  0.36640  0.14345  0.73536  1.0000
  C   C359      1.0  0.37632  0.06151  0.72371  1.0000
  C   C360      1.0  0.65960  0.03385  0.57412  1.0000
  C   C361      1.0  0.40288  0.16558  0.68987  1.0000
  H   H593      1.0  0.34134  0.30537  0.62489  1.0000
  H   H594      1.0  0.42026  0.07999  0.75107  1.0000
  H   H595      1.0  0.38584  0.08260  0.59334  1.0000
  H   H596      1.0  0.42099  0.17984  0.75031  1.0000
  H   H597      1.0  0.44117  0.13908  0.75759  1.0000
  H   H598      1.0  0.40949  0.10861  0.69933  1.0000
  C   C362      1.0  0.33043  0.44251  0.65143  1.0000
  C   C363      1.0  0.35438  0.41323  0.66408  1.0000
  H   H599      1.0  0.38377  0.34310  0.63522  1.0000
  H   H600      1.0  0.37900  0.20294  0.73778  1.0000
  H   H601      1.0  0.39575  0.01154  0.99412  1.0000
  C   C364      1.0  0.64559  0.30785  0.77055  1.0000
  C   C365      1.0  0.57337  0.48509  0.83103  1.0000
  H   H602      1.0  0.64422  0.09896  0.93271  1.0000
  C   C366      1.0  0.37743  0.42722  0.61141  1.0000
  H   H603      1.0  0.35269  0.40033  0.68553  1.0000
  C   C367      1.0  0.62320  0.12304  0.54743  1.0000
  H   H604      1.0  0.63380  0.16243  0.95785  1.0000
  C   C368      1.0  0.53045  0.46104  0.50476  1.0000
  C   C369      1.0  0.59501  0.41045  0.81750  1.0000
  H   H605      1.0  0.45004  0.49910  0.99405  1.0000
  H   H606      1.0  0.60885  0.10477  0.76586  1.0000
  H   H607      1.0  0.60301  0.24949  0.82788  1.0000
  H   H608      1.0  0.33294  0.45939  0.63241  1.0000
  C   C370      1.0  0.63418  0.13523  0.80978  1.0000
  H   H609      1.0  0.37889  0.05849  0.70057  1.0000
  C   C371      1.0  0.40933  0.37640  0.67654  1.0000
  H   H610      1.0  0.37551  0.33752  0.66940  1.0000
  H   H611      1.0  0.54044  0.45972  0.60869  1.0000
  C   C372      1.0  0.35969  0.18454  0.72816  1.0000
  H   H612      1.0  0.51040  0.46385  0.73718  1.0000
  H   H613      1.0  0.65368  0.42107  0.68861  1.0000
  C   C373      1.0  0.53039  0.47877  0.73887  1.0000
  H   H614      1.0  0.34866  0.00291  0.94945  1.0000
  H   H615      1.0  0.42264  0.15528  0.56231  1.0000
  H   H616      1.0  0.65304  0.33890  0.85537  1.0000
  C   C374      1.0  0.38683  0.10706  0.57922  1.0000
  H   H617      1.0  0.39933  0.16211  0.66419  1.0000
  C   C375      1.0  0.50940  0.46203  0.80343  1.0000
  H   H618      1.0  0.65981  0.24913  0.81744  1.0000
  H   H619      1.0  0.62908  0.43550  0.70597  1.0000
  C   C376      1.0  0.59215  0.49204  0.62502  1.0000
  H   H620      1.0  0.49099  0.43412  0.98357  1.0000
  H   H621      1.0  0.34764  0.12822  0.71717  1.0000
  C   C377      1.0  0.41958  0.13982  0.53984  1.0000
  N   N27       1.0  0.64341  0.17330  0.82432  1.0000
  H   H622      1.0  0.64556  0.12318  0.56609  1.0000
  H   H623      1.0  0.34804  0.18883  0.70195  1.0000
  H   H624      1.0  0.36867  0.17388  0.50283  1.0000
  C   C378      1.0  0.35288  0.39988  0.60906  1.0000
  H   H625      1.0  0.58334  0.17701  0.95117  1.0000
  H   H626      1.0  0.64524  0.46871  0.68823  1.0000
  H   H627      1.0  0.36765  0.12402  0.57634  1.0000
  C   C379      1.0  0.61048  0.43315  0.65303  1.0000
  C   C380      1.0  0.65112  0.33000  0.83174  1.0000
  H   H628      1.0  0.60914  0.12787  0.56090  1.0000
  H   H629      1.0  0.51103  0.02295  0.72989  1.0000
  H   H630      1.0  0.41339  0.19104  0.51171  1.0000
  H   H631      1.0  0.33106  0.11953  0.52268  1.0000
  H   H632      1.0  0.58552  0.14768  0.98337  1.0000
  N   N28       1.0  0.38933  0.12325  0.52486  1.0000
  H   H633      1.0  0.36425  0.13733  0.75837  1.0000
  H   H634      1.0  0.42868  0.12583  0.80477  1.0000
  C   C381      1.0  0.61765  0.13322  0.77294  1.0000
  H   H635      1.0  0.49290  0.44170  0.80406  1.0000
  H   H636      1.0  0.65334  0.11681  0.81612  1.0000
  H   H637      1.0  0.34547  0.19421  0.74025  1.0000
  H   H638      1.0  0.54069  0.40701  0.57547  1.0000
  H   H639      1.0  0.60985  0.12432  0.94699  1.0000
  H   H640      1.0  0.37270  0.16935  0.54319  1.0000
  H   H641      1.0  0.40504  0.16569  0.79566  1.0000
  H   H642      1.0  0.61725  0.01303  0.51931  1.0000
  H   H643      1.0  0.37738  0.00126  0.93581  1.0000
  H   H644      1.0  0.36627  0.07696  0.53444  1.0000
  H   H645      1.0  0.40709  0.12246  0.59370  1.0000
  H   H646      1.0  0.60457  0.06781  0.54143  1.0000
  C   C382      1.0  0.54685  0.49330  0.51837  1.0000
  H   H647      1.0  0.62347  0.15774  0.87241  1.0000
  H   H648      1.0  0.64508  0.11769  0.87349  1.0000
  N   N29       1.0  0.63646  0.06716  0.51963  1.0000
  H   H649      1.0  0.54335  0.46121  0.72945  1.0000
  H   H650      1.0  0.36918  0.44644  0.59093  1.0000
  H   H651      1.0  0.59756  0.48180  0.60485  1.0000
  H   H652      1.0  0.56694  0.43974  0.57453  1.0000
  H   H653      1.0  0.64969  0.19404  0.78273  1.0000
  H   H654      1.0  0.62064  0.14644  0.53094  1.0000
  H   H655      1.0  0.42646  0.35509  0.68262  1.0000
  H   H656      1.0  0.60899  0.20802  0.79307  1.0000
  H   H657      1.0  0.59827  0.17806  0.81740  1.0000
  H   H658      1.0  0.59831  0.48669  0.68960  1.0000
  H   H659      1.0  0.49546  0.00025  0.77010  1.0000
  C   C383      1.0  0.37993  0.35879  0.65442  1.0000
  H   H660      1.0  0.39643  0.41246  0.61039  1.0000
  H   H661      1.0  0.62008  0.43072  0.63470  1.0000
  H   H662      1.0  0.40445  0.07353  0.55238  1.0000
  H   H663      1.0  0.57572  0.46685  0.85146  1.0000
  H   H664      1.0  0.41625  0.39940  0.66533  1.0000
  H   H665      1.0  0.63228  0.13881  0.76035  1.0000
  H   H666      1.0  0.37521  0.42896  0.67383  1.0000
  H   H667      1.0  0.61944  0.12189  0.81967  1.0000
  H   H668      1.0  0.51670  0.47823  0.82622  1.0000
  N   N30       1.0  0.58571  0.46022  0.64245  1.0000
  C   C384      1.0  0.61398  0.08635  0.52849  1.0000
  C   C385      1.0  0.56188  0.42041  0.59044  1.0000
  C   C386      1.0  0.50906  0.48898  0.98589  1.0000
  H   H669      1.0  0.64306  0.04457  0.58246  1.0000
  H   H670      1.0  0.53232  0.48551  0.64952  1.0000
  H   H671      1.0  0.35341  0.06772  0.71926  1.0000
  H   H672      1.0  0.54285  0.42156  0.82003  1.0000
  H   H673      1.0  0.53323  0.01015  0.78545  1.0000
  H   H674      1.0  0.65839  0.15213  0.90448  1.0000
  H   H675      1.0  0.38467  0.44520  0.63306  1.0000
  H   H676      1.0  0.38099  0.03403  0.73510  1.0000
  H   H677      1.0  0.37231  0.12105  0.68360  1.0000
  H   H678      1.0  0.59806  0.45697  0.78888  1.0000
  H   H679      1.0  0.39571  0.08788  0.76989  1.0000
  C   C387      1.0  0.57928  0.47272  0.67085  1.0000
  H   H680      1.0  0.64004  0.24148  0.85281  1.0000
  C   C388      1.0  0.53473  0.44118  0.79975  1.0000
  H   H681      1.0  0.45031  0.17791  0.53271  1.0000
  C   C389      1.0  0.50276  0.47243  0.53790  1.0000
  H   H682      1.0  0.52550  0.42323  0.77786  1.0000
  H   H683      1.0  0.61043  0.21883  0.85969  1.0000
  N   N31       1.0  0.55935  0.46497  0.79913  1.0000
  H   H684      1.0  0.56976  0.42545  0.76929  1.0000
  C   C390      1.0  0.63587  0.44063  0.68579  1.0000
  H   H685      1.0  0.59885  0.15202  0.76432  1.0000
  H   H686      1.0  0.61741  0.40537  0.81897  1.0000
  C   C391      1.0  0.60604  0.06909  0.98908  1.0000
  H   H687      1.0  0.64356  0.29953  0.74675  1.0000
  H   H688      1.0  0.62041  0.48188  0.84193  1.0000
  C   C392      1.0  0.36757  0.15341  0.52044  1.0000
  C   C393      1.0  0.62349  0.03095  0.50326  1.0000
  H   H689      1.0  0.59752  0.41811  0.84214  1.0000
  H   H690      1.0  0.32938  0.00345  0.56006  1.0000
  C   C394      1.0  0.61646  0.19604  0.81752  1.0000
  C   C395      1.0  0.62192  0.14305  0.96751  1.0000
  H   H691      1.0  0.59476  0.09336  0.50642  1.0000
  C   C396      1.0  0.59865  0.16526  0.97413  1.0000
  H   H692      1.0  0.60828  0.18889  0.99080  1.0000
  C   C397      1.0  0.33300  0.00824  0.53839  1.0000
  H   H693      1.0  0.40884  0.38565  0.69978  1.0000
  C   C398      1.0  0.64586  0.14785  0.87828  1.0000
  C   C399      1.0  0.42796  0.16699  0.51875  1.0000
  C   C400      1.0  0.50831  0.45079  0.51476  1.0000
  H   H694      1.0  0.38994  0.18929  0.69163  1.0000
  H   H695      1.0  0.49816  0.48044  0.78299  1.0000
  H   H696      1.0  0.58901  0.06405  0.99861  1.0000
  C   C401      1.0  0.61848  0.22788  0.84130  1.0000
  C   C402      1.0  0.55880  0.44036  0.61925  1.0000
  H   H697      1.0  0.57824  0.39826  0.59796  1.0000
  H   H698      1.0  0.35366  0.37761  0.59238  1.0000
  H   H699      1.0  0.63452  0.06062  0.95185  1.0000
  H   H700      1.0  0.49544  0.42617  0.50469  1.0000
  H   H701      1.0  0.61659  0.04239  0.98867  1.0000
  H   H702      1.0  0.33155  0.41312  0.59547  1.0000
  H   H703      1.0  0.57468  0.44838  0.68297  1.0000
  H   H704      1.0  0.51281  0.00872  0.82678  1.0000
  C   C403      1.0  0.33534  0.14095  0.50782  1.0000
  N   N32       1.0  0.64325  0.12274  0.99578  1.0000
  H   H705      1.0  0.55112  0.41930  0.63198  1.0000
  H   H706      1.0  0.43840  0.00550  0.98597  1.0000
  H   H707      1.0  0.52049  0.00368  0.69911  1.0000
  H   H708      1.0  0.65440  0.00489  0.56546  1.0000
  H   H709      1.0  0.42806  0.08814  0.49950  1.0000
  C   C404      1.0  0.55358  0.49926  0.66341  1.0000
  S   S116      1.0  0.45494  0.95581  0.24260  1.0000
  S   S117      1.0  0.62480  0.95350  0.34359  1.0000
  H   H710      1.0  0.57010  0.95257  0.24907  1.0000
  Fe  Fe61      1.0  0.49813  0.71787  0.29186  1.0000
  S   S118      1.0  0.51848  0.70983  0.25585  1.0000
  S   S119      1.0  0.45546  0.69471  0.29251  1.0000
  Fe  Fe62      1.0  0.54568  0.77535  0.33052  1.0000
  S   S120      1.0  0.56868  0.77154  0.29691  1.0000
  S   S121      1.0  0.56205  0.81521  0.37285  1.0000
  Fe  Fe63      1.0  0.52346  0.77174  0.25845  1.0000
  S   S122      1.0  0.51015  0.80894  0.21555  1.0000
  Fe  Fe64      1.0  0.56221  0.71069  0.29845  1.0000
  S   S123      1.0  0.59938  0.67016  0.30683  1.0000
  S   S124      1.0  0.50102  0.77945  0.29202  1.0000
  S   S125      1.0  0.54140  0.71413  0.33443  1.0000
  C   C405      1.0  0.42121  0.68233  0.26141  1.0000
  C   C406      1.0  0.39668  0.67826  0.26916  1.0000
  C   C407      1.0  0.36921  0.66761  0.24564  1.0000
  C   C408      1.0  0.36594  0.66037  0.21400  1.0000
  C   C409      1.0  0.39043  0.66464  0.20617  1.0000
  C   C410      1.0  0.41785  0.67569  0.22963  1.0000
  H   H711      1.0  0.39899  0.68311  0.29366  1.0000
  H   H712      1.0  0.35070  0.66437  0.25214  1.0000
  H   H713      1.0  0.38824  0.65907  0.18182  1.0000
  H   H714      1.0  0.43646  0.67845  0.22326  1.0000
  C   C411      1.0  0.55874  0.63459  0.19499  1.0000
  C   C412      1.0  0.60083  0.66830  0.16148  1.0000
  H   H715      1.0  0.42029  0.52185  0.00014  1.0000
  C   C413      1.0  0.63764  0.67891  0.32015  1.0000
  H   H716      1.0  0.51804  0.95939  0.28931  1.0000
  H   H717      1.0  0.61091  0.78437  0.36501  1.0000
  H   H718      1.0  0.52244  0.57068  0.34304  1.0000
  H   H719      1.0  0.60367  0.72087  0.38048  1.0000
  H   H720      1.0  0.63450  0.73672  0.30950  1.0000
  C   C414      1.0  0.63031  0.76800  0.37940  1.0000
  H   H721      1.0  0.65200  0.78273  0.44452  1.0000
  H   H722      1.0  0.58641  0.99511  0.29342  1.0000
  C   C415      1.0  0.53502  0.51840  0.36714  1.0000
  H   H723      1.0  0.39048  0.89519  0.23920  1.0000
  C   C416      1.0  0.57687  0.85600  0.36447  1.0000
  C   C417      1.0  0.57603  0.86172  0.33370  1.0000
  C   C418      1.0  0.59084  0.89174  0.32779  1.0000
  C   C419      1.0  0.60583  0.91714  0.35234  1.0000
  C   C420      1.0  0.60576  0.91254  0.38296  1.0000
  C   C421      1.0  0.59139  0.88181  0.38905  1.0000
  H   H724      1.0  0.56408  0.84294  0.31436  1.0000
  H   H725      1.0  0.59059  0.89531  0.30400  1.0000
  H   H726      1.0  0.61731  0.93206  0.40204  1.0000
  H   H727      1.0  0.59199  0.87765  0.41291  1.0000
  C   C422      1.0  0.47024  0.91558  0.23402  1.0000
  C   C423      1.0  0.46616  0.90539  0.20261  1.0000
  C   C424      1.0  0.47889  0.87300  0.19693  1.0000
  C   C425      1.0  0.49584  0.85090  0.22264  1.0000
  C   C426      1.0  0.50051  0.86190  0.25395  1.0000
  C   C427      1.0  0.48737  0.89364  0.25958  1.0000
  H   H728      1.0  0.45293  0.92216  0.18268  1.0000
  H   H729      1.0  0.47524  0.86481  0.17259  1.0000
  H   H730      1.0  0.51463  0.84631  0.27404  1.0000
  H   H731      1.0  0.49080  0.90134  0.28397  1.0000
  N   N33       1.0  0.59402  0.69115  0.21290  1.0000
  H   H732      1.0  0.63547  0.84429  0.37724  1.0000
  C   C428      1.0  0.57255  0.75496  0.21713  1.0000
  H   H733      1.0  0.55328  0.63621  0.16883  1.0000
  C   C429      1.0  0.35122  0.59442  0.10871  1.0000
  H   H734      1.0  0.34745  0.59652  0.13110  1.0000
  H   H735      1.0  0.44585  0.78539  0.18035  1.0000
  H   H736      1.0  0.61875  0.64026  0.22037  1.0000
  H   H737      1.0  0.43233  0.79656  0.30817  1.0000
  H   H738      1.0  0.61901  0.66065  0.25552  1.0000
  H   H739      1.0  0.55229  0.74573  0.21944  1.0000
  C   C430      1.0  0.54855  0.98685  0.33181  1.0000
  H   H740      1.0  0.54976  0.54806  0.46372  1.0000
  H   H741      1.0  0.55529  0.95045  0.29839  1.0000
  H   H742      1.0  0.32919  0.55025  0.07505  1.0000
  H   H743      1.0  0.50597  0.97353  0.23262  1.0000
  C   C431      1.0  0.38636  0.83730  0.22471  1.0000
  H   H744      1.0  0.63051  0.81911  0.42267  1.0000
  C   C432      1.0  0.43703  0.99063  0.04855  1.0000
  H   H745      1.0  0.45332  0.76707  0.21896  1.0000
  H   H746      1.0  0.63665  0.72391  0.41526  1.0000
  H   H747      1.0  0.42054  0.75333  0.18480  1.0000
  C   C433      1.0  0.42909  0.95437  0.02867  1.0000
  C   C434      1.0  0.44400  0.52260  0.00597  1.0000
  H   H748      1.0  0.65175  0.69516  0.21681  1.0000
  C   C435      1.0  0.41949  0.80996  0.20349  1.0000
  H   H749      1.0  0.45543  0.51813  0.03221  1.0000
  H   H750      1.0  0.37037  0.84279  0.19985  1.0000
  N   N34       1.0  0.40314  0.80292  0.22475  1.0000
  H   H751      1.0  0.62344  0.67240  0.16315  1.0000
  H   H752      1.0  0.40455  0.82052  0.17971  1.0000
  H   H753      1.0  0.41412  0.88265  0.22019  1.0000
  H   H754      1.0  0.34002  0.78935  0.20907  1.0000
  C   C436      1.0  0.61958  0.66747  0.23192  1.0000
  Fe  Fe65      1.0  0.43158  0.99463  0.20215  1.0000
  H   H755      1.0  0.44363  0.81420  0.26603  1.0000
  H   H756      1.0  0.60751  0.72310  0.18112  1.0000
  C   C437      1.0  0.52051  0.55623  0.36364  1.0000
  H   H757      1.0  0.37582  0.89777  0.04848  1.0000
  H   H758      1.0  0.54704  0.69002  0.19805  1.0000
  H   H759      1.0  0.37305  0.77190  0.18361  1.0000
  H   H760      1.0  0.58678  0.66999  0.13546  1.0000
  C   C438      1.0  0.56625  0.67284  0.21135  1.0000
  H   H761      1.0  0.65593  0.70605  0.25750  1.0000
  C   C439      1.0  0.65430  0.82703  0.37916  1.0000
  C   C440      1.0  0.64901  0.71379  0.31831  1.0000
  C   C441      1.0  0.43547  0.77665  0.19682  1.0000
  C   C442      1.0  0.41426  0.78936  0.28487  1.0000
  C   C443      1.0  0.36012  0.95242  0.05084  1.0000
  H   H762      1.0  0.42228  0.86960  0.26140  1.0000
  H   H763      1.0  0.39418  0.74435  0.21653  1.0000
  H   H764      1.0  0.61754  0.74207  0.23361  1.0000
  H   H765      1.0  0.52556  0.50405  0.34333  1.0000
  H   H766      1.0  0.39645  0.80796  0.28336  1.0000
  C   C444      1.0  0.40475  0.87282  0.23722  1.0000
  H   H767      1.0  0.54844  0.53533  0.05513  1.0000
  C   C445      1.0  0.33973  0.97879  0.03395  1.0000
  H   H768      1.0  0.60709  0.75495  0.41045  1.0000
  H   H769      1.0  0.51898  0.51766  0.44872  1.0000
  H   H770      1.0  0.53165  0.57395  0.38515  1.0000
  C   C446      1.0  0.36036  0.91853  0.03554  1.0000
  H   H771      1.0  0.54012  0.94023  0.21224  1.0000
  C   C447      1.0  0.54622  0.94784  0.23792  1.0000
  C   C448      1.0  0.35592  0.76710  0.21960  1.0000
  C   C449      1.0  0.65702  0.64937  0.33092  1.0000
  H   H772      1.0  0.57906  0.78135  0.23095  1.0000
  H   H773      1.0  0.55107  0.96269  0.34751  1.0000
  H   H774      1.0  0.47760  0.55660  0.00150  1.0000
  H   H775      1.0  0.40758  0.76032  0.28605  1.0000
  H   H776      1.0  0.37293  0.83414  0.23899  1.0000
  H   H777      1.0  0.65105  0.84722  0.33294  1.0000
  H   H778      1.0  0.56670  0.66991  0.23603  1.0000
  H   H779      1.0  0.55814  0.52425  0.37140  1.0000
  H   H780      1.0  0.59957  0.72164  0.25640  1.0000
  H   H781      1.0  0.57592  0.61410  0.20638  1.0000
  C   C450      1.0  0.53381  0.53480  0.44143  1.0000
  C   C451      1.0  0.64999  0.68414  0.23867  1.0000
  C   C452      1.0  0.59254  0.69958  0.17972  1.0000
  C   C453      1.0  0.59736  0.72701  0.23140  1.0000
  H   H782      1.0  0.57031  0.70889  0.16404  1.0000
  H   H783      1.0  0.56921  0.52710  0.42616  1.0000
  H   H784      1.0  0.53885  0.62389  0.19750  1.0000
  H   H785      1.0  0.59820  0.64001  0.16869  1.0000
  S   S126      1.0  0.33213  0.64546  0.18337  1.0000
  H   H786      1.0  0.64857  0.62214  0.33212  1.0000
  H   H787      1.0  0.36988  0.57557  0.11386  1.0000
  C   C454      1.0  0.38241  0.77082  0.21037  1.0000
  H   H788      1.0  0.43650  0.83176  0.21412  1.0000
  C   C455      1.0  0.42522  0.79391  0.25772  1.0000
  H   H789      1.0  0.63563  0.75162  0.36171  1.0000
  H   H790      1.0  0.36201  0.76614  0.24579  1.0000
  S   S127      1.0  0.38778  0.96133  0.08957  1.0000
  C   C456      1.0  0.34131  0.91152  0.00338  1.0000
  H   H791      1.0  0.49112  0.51210  0.39180  1.0000
  H   H792      1.0  0.43594  0.76741  0.25694  1.0000
  C   C457      1.0  0.52539  0.51784  0.00582  1.0000
  H   H793      1.0  0.56794  0.76135  0.19174  1.0000
  H   H794      1.0  0.54041  0.92372  0.24917  1.0000
  C   C458      1.0  0.61925  0.74053  0.39794  1.0000
  H   H795      1.0  0.49695  0.55397  0.35844  1.0000
  H   H796      1.0  0.45433  0.57976  0.01629  1.0000
  C   C459      1.0  0.53986  0.97287  0.29689  1.0000
  C   C460      1.0  0.53599  0.51321  0.03936  1.0000
  H   H797      1.0  0.35897  0.62157  0.10392  1.0000
  H   H798      1.0  0.47590  0.63235  0.00811  1.0000
  C   C461      1.0  0.52911  0.98220  0.24021  1.0000
  H   H799      1.0  0.52124  0.55701  0.42570  1.0000
  H   H800      1.0  0.41494  0.93813  0.03772  1.0000
  H   H801      1.0  0.34432  0.74070  0.20939  1.0000
  S   S128      1.0  0.38382  0.98941  0.17190  1.0000
  H   H802      1.0  0.44967  0.93869  0.03578  1.0000
  H   H803      1.0  0.43557  0.88201  0.01201  1.0000
  C   C462      1.0  0.65199  0.82013  0.34451  1.0000
  C   C463      1.0  0.55030  0.51058  0.42606  1.0000
  C   C464      1.0  0.65217  0.80601  0.42899  1.0000
  H   H804      1.0  0.63177  0.80494  0.32949  1.0000
  N   N35       1.0  0.65547  0.79323  0.39881  1.0000
  H   H805      1.0  0.32969  0.53705  0.13279  1.0000
  H   H806      1.0  0.45018  0.98412  0.07410  1.0000
  H   H807      1.0  0.37568  0.97340  0.99888  1.0000
  S   S129      1.0  0.41470  0.91303  0.70337  1.0000
  S   S130      1.0  0.43467  0.94921  0.64965  1.0000
  Fe  Fe66      1.0  0.42875  0.89207  0.66498  1.0000
  S   S131      1.0  0.46706  0.85248  0.68053  1.0000
  Fe  Fe67      1.0  0.41681  0.96950  0.68483  1.0000
  S   S132      1.0  0.60150  0.95964  0.89051  1.0000
  S   S133      1.0  0.62389  0.92268  0.83858  1.0000
  Fe  Fe68      1.0  0.61934  0.97975  0.85546  1.0000
  Fe  Fe69      1.0  0.60938  0.90241  0.87663  1.0000
  S   S134      1.0  0.57139  0.86093  0.86065  1.0000
  Fe  Fe70      1.0  0.56170  0.65746  0.62771  1.0000
  S   S135      1.0  0.51696  0.64197  0.59159  1.0000
  S   S136      1.0  0.58553  0.69930  0.60995  1.0000
  Fe  Fe71      1.0  0.55301  0.61426  0.68061  1.0000
  S   S137      1.0  0.50778  0.59627  0.64822  1.0000
  S   S138      1.0  0.57570  0.59984  0.73338  1.0000
  Fe  Fe72      1.0  0.52654  0.58450  0.61092  1.0000
  S   S139      1.0  0.51173  0.52986  0.58171  1.0000
  Fe  Fe73      1.0  0.50259  0.65521  0.63170  1.0000
  S   S140      1.0  0.46268  0.69066  0.62220  1.0000
  S   S141      1.0  0.57254  0.59929  0.64479  1.0000
  S   S142      1.0  0.54665  0.67372  0.66645  1.0000
  Fe  Fe74      1.0  0.47532  0.64176  0.89560  1.0000
  S   S143      1.0  0.51098  0.65253  0.94414  1.0000
  S   S144      1.0  0.42781  0.65767  0.87737  1.0000
  Fe  Fe75      1.0  0.51462  0.59751  0.87184  1.0000
  S   S145      1.0  0.55309  0.60377  0.91909  1.0000
  S   S146      1.0  0.51198  0.56657  0.82674  1.0000
  Fe  Fe76      1.0  0.52176  0.59210  0.94299  1.0000
  H   H808      1.0  0.45913  0.53797  0.94321  1.0000
  Fe  Fe77      1.0  0.53917  0.66310  0.91660  1.0000
  S   S147      1.0  0.57456  0.70737  0.92890  1.0000
  S   S148      1.0  0.48436  0.58114  0.89566  1.0000
  S   S149      1.0  0.50254  0.65712  0.86819  1.0000
  S   S150      1.0  0.38276  0.79654  0.92974  1.0000
  C   C465      1.0  0.55700  0.59484  0.75912  1.0000
  C   C466      1.0  0.57320  0.59302  0.79241  1.0000
  C   C467      1.0  0.55928  0.58740  0.81365  1.0000
  C   C468      1.0  0.52900  0.58297  0.80174  1.0000
  C   C469      1.0  0.51276  0.58529  0.76848  1.0000
  C   C470      1.0  0.52664  0.59163  0.74726  1.0000
  H   H809      1.0  0.59670  0.59543  0.80178  1.0000
  H   H810      1.0  0.57210  0.58475  0.83911  1.0000
  H   H811      1.0  0.48939  0.58110  0.75898  1.0000
  H   H812      1.0  0.51391  0.59291  0.72167  1.0000
  H   H813      1.0  0.65061  0.84420  0.80330  1.0000
  H   H814      1.0  0.37292  0.80257  0.84892  1.0000
  C   C471      1.0  0.47282  0.84143  0.58106  1.0000
  C   C472      1.0  0.57214  0.81939  0.88119  1.0000
  C   C473      1.0  0.54640  0.79821  0.87293  1.0000
  C   C474      1.0  0.54654  0.76417  0.88774  1.0000
  C   C475      1.0  0.57256  0.75085  0.91071  1.0000
  C   C476      1.0  0.59815  0.77221  0.91909  1.0000
  C   C477      1.0  0.59797  0.80631  0.90448  1.0000
  H   H815      1.0  0.52632  0.80818  0.85498  1.0000
  H   H816      1.0  0.52666  0.74814  0.88133  1.0000
  C   C478      1.0  0.36513  0.79321  0.79914  1.0000
  H   H817      1.0  0.61792  0.82228  0.91106  1.0000
  C   C479      1.0  0.46464  0.80663  0.66565  1.0000
  C   C480      1.0  0.43960  0.79305  0.64054  1.0000
  C   C481      1.0  0.43917  0.75722  0.62800  1.0000
  C   C482      1.0  0.46372  0.73461  0.64031  1.0000
  C   C483      1.0  0.48859  0.74794  0.66588  1.0000
  C   C484      1.0  0.48903  0.78378  0.67843  1.0000
  H   H818      1.0  0.42068  0.81032  0.63049  1.0000
  H   H819      1.0  0.41979  0.74713  0.60836  1.0000
  H   H820      1.0  0.50753  0.73079  0.67578  1.0000
  H   H821      1.0  0.50847  0.79403  0.69787  1.0000
  C   C485      1.0  0.63712  0.69934  0.66380  1.0000
  C   C486      1.0  0.62047  0.71620  0.63484  1.0000
  C   C487      1.0  0.63197  0.74687  0.62499  1.0000
  C   C488      1.0  0.43641  0.97525  0.98100  1.0000
  H   H822      1.0  0.62847  0.67561  0.67151  1.0000
  H   H823      1.0  0.61923  0.75993  0.60253  1.0000
  H   H824      1.0  0.45917  0.71743  0.52780  1.0000
  S   S151      1.0  0.38180  0.96334  0.56415  1.0000
  H   H825      1.0  0.35292  0.74325  0.87833  1.0000
  C   C489      1.0  0.39468  0.75724  0.91542  1.0000
  C   C490      1.0  0.42412  0.74747  0.92998  1.0000
  C   C491      1.0  0.43462  0.71696  0.91860  1.0000
  C   C492      1.0  0.41558  0.69571  0.89286  1.0000
  C   C493      1.0  0.38606  0.70518  0.87856  1.0000
  C   C494      1.0  0.37566  0.73604  0.88962  1.0000
  H   H826      1.0  0.43894  0.76382  0.94994  1.0000
  H   H827      1.0  0.45742  0.71001  0.92963  1.0000
  H   H828      1.0  0.37124  0.68879  0.85862  1.0000
  C   C495      1.0  0.35673  0.99196  0.53456  1.0000
  H   H829      1.0  0.46955  0.79458  0.85449  1.0000
  H   H830      1.0  0.39520  0.55341  0.89889  1.0000
  H   H831      1.0  0.61602  0.74168  0.70720  1.0000
  H   H832      1.0  0.50951  0.74176  0.61751  1.0000
  H   H833      1.0  0.48022  0.70669  0.56859  1.0000
  H   H834      1.0  0.61367  0.83955  0.73104  1.0000
  C   C496      1.0  0.53118  0.96788  0.74032  1.0000
  C   C497      1.0  0.40661  0.58288  0.96149  1.0000
  C   C498      1.0  0.51711  0.98802  0.78375  1.0000
  S   S152      1.0  0.34410  0.88374  0.90070  1.0000
  N   N36       1.0  0.41239  0.81910  0.84345  1.0000
  C   C499      1.0  0.42424  0.78043  0.84788  1.0000
  C   C500      1.0  0.37962  0.81566  0.83068  1.0000
  C   C501      1.0  0.42347  0.83763  0.87615  1.0000
  C   C502      1.0  0.42304  0.83903  0.82096  1.0000
  C   C503      1.0  0.45760  0.77691  0.86515  1.0000
  C   C504      1.0  0.41891  0.55290  0.90458  1.0000
  C   C505      1.0  0.41242  0.87666  0.87818  1.0000
  C   C506      1.0  0.40505  0.87222  0.80281  1.0000
  H   H835      1.0  0.41442  0.76375  0.86153  1.0000
  H   H836      1.0  0.41816  0.76585  0.82434  1.0000
  H   H837      1.0  0.36605  0.60350  0.92566  1.0000
  H   H838      1.0  0.55405  0.53967  0.55142  1.0000
  H   H839      1.0  0.41810  0.82035  0.89331  1.0000
  H   H840      1.0  0.44762  0.84041  0.88632  1.0000
  H   H841      1.0  0.44596  0.84877  0.83404  1.0000
  H   H842      1.0  0.42342  0.81963  0.80187  1.0000
  C   C507      1.0  0.55021  0.77192  0.63404  1.0000
  H   H843      1.0  0.55073  0.79309  0.80775  1.0000
  S   S153      1.0  0.33487  0.88326  0.67997  1.0000
  H   H844      1.0  0.57257  0.50899  0.61262  1.0000
  H   H845      1.0  0.56280  0.74852  0.64824  1.0000
  H   H846      1.0  0.50642  0.82265  0.54743  1.0000
  H   H847      1.0  0.42029  0.88513  0.90388  1.0000
  H   H848      1.0  0.38838  0.87817  0.86855  1.0000
  H   H849      1.0  0.42150  0.89703  0.86645  1.0000
  H   H850      1.0  0.41997  0.89313  0.79952  1.0000
  H   H851      1.0  0.39270  0.88654  0.81488  1.0000
  H   H852      1.0  0.39005  0.86385  0.77808  1.0000
  C   C508      1.0  0.65003  0.77781  0.74006  1.0000
  H   H853      1.0  0.46512  0.78292  0.89128  1.0000
  H   H854      1.0  0.35796  0.95940  0.93880  1.0000
  C   C509      1.0  0.33459  0.89094  0.71860  1.0000
  H   H855      1.0  0.34120  0.79704  0.78968  1.0000
  Fe  Fe78      1.0  0.64829  0.95993  0.92635  1.0000
  H   H856      1.0  0.56421  0.77495  0.77882  1.0000
  H   H857      1.0  0.45852  0.96419  0.99487  1.0000
  H   H858      1.0  0.46707  0.85953  0.59760  1.0000
  C   C510      1.0  0.66012  0.76041  0.64378  1.0000
  H   H859      1.0  0.51390  0.82885  0.61812  1.0000
  H   H860      1.0  0.55191  0.76085  0.56586  1.0000
  S   S154      1.0  0.53220  0.56080  0.99056  1.0000
  H   H861      1.0  0.61015  0.51965  0.86057  1.0000
  H   H862      1.0  0.35620  0.95321  0.78069  1.0000
  H   H863      1.0  0.62736  0.80338  0.67418  1.0000
  H   H864      1.0  0.53247  0.94458  0.72480  1.0000
  H   H865      1.0  0.54222  0.92283  0.81010  1.0000
  C   C511      1.0  0.47689  0.76575  0.55858  1.0000
  C   C512      1.0  0.52089  0.80396  0.56609  1.0000
  H   H866      1.0  0.57058  0.72244  0.75196  1.0000
  C   C513      1.0  0.47918  0.72533  0.54895  1.0000
  H   H867      1.0  0.35944  0.94155  0.72810  1.0000
  H   H868      1.0  0.45938  0.76483  0.56806  1.0000
  H   H869      1.0  0.64168  0.87135  0.75172  1.0000
  H   H870      1.0  0.40815  0.96225  0.92897  1.0000
  H   H871      1.0  0.46546  0.66415  0.97596  1.0000
  H   H872      1.0  0.36884  0.76325  0.80325  1.0000
  Fe  Fe79      1.0  0.33904  0.82247  0.90183  1.0000
  H   H873      1.0  0.61221  0.84678  0.78208  1.0000
  H   H874      1.0  0.46778  0.78187  0.53607  1.0000
  H   H875      1.0  0.37263  0.80224  0.78035  1.0000
  C   C514      1.0  0.34613  0.92866  0.76688  1.0000
  N   N37       1.0  0.55289  0.71093  0.81030  1.0000
  C   C515      1.0  0.55706  0.68511  0.83771  1.0000
  C   C516      1.0  0.52246  0.72585  0.79952  1.0000
  C   C517      1.0  0.55722  0.68911  0.78409  1.0000
  C   C518      1.0  0.58839  0.67177  0.85671  1.0000
  C   C519      1.0  0.49749  0.69731  0.78455  1.0000
  C   C520      1.0  0.55075  0.70847  0.75193  1.0000
  H   H876      1.0  0.54993  0.69825  0.85565  1.0000
  H   H877      1.0  0.54333  0.65981  0.82917  1.0000
  H   H878      1.0  0.51830  0.74770  0.78143  1.0000
  H   H879      1.0  0.51945  0.73964  0.82007  1.0000
  H   H880      1.0  0.58005  0.67954  0.79224  1.0000
  H   H881      1.0  0.54431  0.66300  0.77871  1.0000
  H   H882      1.0  0.60319  0.69462  0.87027  1.0000
  H   H883      1.0  0.59758  0.65730  0.84128  1.0000
  H   H884      1.0  0.49759  0.68468  0.76218  1.0000
  H   H885      1.0  0.49784  0.67538  0.80149  1.0000
  H   H886      1.0  0.47634  0.71149  0.77787  1.0000
  H   H887      1.0  0.37907  0.98572  0.50273  1.0000
  H   H888      1.0  0.53269  0.72820  0.74526  1.0000
  H   H889      1.0  0.54346  0.68738  0.73227  1.0000
  N   N38       1.0  0.52170  0.95453  0.76623  1.0000
  H   H890      1.0  0.55600  0.52386  0.65049  1.0000
  C   C521      1.0  0.54602  0.93140  0.78866  1.0000
  H   H891      1.0  0.55351  0.98037  0.75122  1.0000
  C   C522      1.0  0.49374  0.93274  0.75025  1.0000
  H   H892      1.0  0.49880  0.90170  0.79443  1.0000
  C   C523      1.0  0.55247  0.89577  0.77390  1.0000
  H   H893      1.0  0.61419  0.54523  0.63252  1.0000
  C   C524      1.0  0.48183  0.91254  0.77238  1.0000
  C   C525      1.0  0.54119  0.51505  0.54136  1.0000
  C   C526      1.0  0.61752  0.76690  0.72196  1.0000
  C   C527      1.0  0.38947  0.61157  0.93607  1.0000
  H   H894      1.0  0.60781  0.75909  0.73924  1.0000
  C   C528      1.0  0.34806  0.92208  0.73710  1.0000
  H   H895      1.0  0.42590  0.57870  0.89679  1.0000
  H   H896      1.0  0.47595  0.95098  0.73533  1.0000
  H   H897      1.0  0.49512  0.91247  0.73227  1.0000
  H   H898      1.0  0.39593  0.61451  0.91554  1.0000
  H   H899      1.0  0.54273  0.97862  0.83501  1.0000
  N   N39       1.0  0.43700  0.57412  0.96427  1.0000
  H   H900      1.0  0.53306  0.87739  0.76361  1.0000
  H   H901      1.0  0.56144  0.90168  0.75562  1.0000
  H   H902      1.0  0.56930  0.88013  0.79321  1.0000
  H   H903      1.0  0.54476  0.78951  0.65099  1.0000
  H   H904      1.0  0.44547  0.94778  0.94250  1.0000
  H   H905      1.0  0.54797  0.79763  0.53898  1.0000
  H   H906      1.0  0.56648  0.94810  0.79871  1.0000
  H   H907      1.0  0.44281  0.61938  0.93597  1.0000
  H   H908      1.0  0.46928  0.88775  0.75947  1.0000
  C   C529      1.0  0.49493  0.81270  0.60124  1.0000
  H   H909      1.0  0.50585  0.96030  0.82084  1.0000
  H   H910      1.0  0.48209  0.85953  0.56783  1.0000
  H   H911      1.0  0.36889  0.84277  0.82642  1.0000
  S   S155      1.0  0.38300  0.88606  0.62789  1.0000
  H   H912      1.0  0.53012  0.73450  0.59439  1.0000
  H   H913      1.0  0.56490  0.78677  0.62508  1.0000
  C   C530      1.0  0.56885  0.77836  0.80462  1.0000
  H   H914      1.0  0.46711  0.93070  0.77883  1.0000
  S   S156      1.0  0.37012  0.96938  0.64964  1.0000
  S   S157      1.0  0.65499  0.90078  0.91456  1.0000
  C   C531      1.0  0.63408  0.83205  0.68275  1.0000
  H   H915      1.0  0.39359  0.92030  0.95210  1.0000
  N   N40       1.0  0.50417  0.78424  0.58270  1.0000
  H   H916      1.0  0.53814  0.82209  0.58345  1.0000
  H   H917      1.0  0.58825  0.79685  0.81524  1.0000
  H   H918      1.0  0.61833  0.76224  0.93693  1.0000
  Fe  Fe80      1.0  0.38766  0.94521  0.61474  1.0000
  H   H919      1.0  0.63868  0.50715  0.64606  1.0000
  H   H920      1.0  0.48503  0.79892  0.61631  1.0000
  H   H921      1.0  0.46362  0.74788  0.86300  1.0000
  C   C532      1.0  0.52269  0.75652  0.60641  1.0000
  H   H922      1.0  0.58796  0.65181  0.87496  1.0000
  H   H923      1.0  0.34206  0.88553  0.99184  1.0000
  H   H924      1.0  0.47522  0.59916  0.96139  1.0000
  C   C533      1.0  0.57529  0.74170  0.82291  1.0000
  H   H925      1.0  0.57864  0.74938  0.84800  1.0000
  H   H926      1.0  0.45213  0.82866  0.56417  1.0000
  H   H927      1.0  0.39306  0.55722  0.95656  1.0000
  C   C534      1.0  0.42852  0.89092  0.98672  1.0000
  Fe  Fe81      1.0  0.36932  0.91078  0.66590  1.0000
  H   H928      1.0  0.60302  0.52176  0.81881  1.0000
  H   H929      1.0  0.59694  0.73239  0.82434  1.0000
  C   C535      1.0  0.43647  0.54465  0.94028  1.0000
  H   H930      1.0  0.60377  0.78760  0.70536  1.0000
  H   H931      1.0  0.51965  0.76393  0.52869  1.0000
  H   H932      1.0  0.49801  0.71996  0.54267  1.0000
  N   N41       1.0  0.41469  0.95823  0.99258  1.0000
  C   C536      1.0  0.53574  0.77963  0.54914  1.0000
  H   H933      1.0  0.62944  0.80304  0.78508  1.0000
  H   H934      1.0  0.42234  0.53035  0.88971  1.0000
  C   C537      1.0  0.45335  0.60737  0.96004  1.0000
  H   H935      1.0  0.63978  0.84526  0.66395  1.0000
  H   H936      1.0  0.42674  0.51856  0.94432  1.0000
  C   C538      1.0  0.45431  0.55973  0.99752  1.0000
  H   H937      1.0  0.39040  0.63907  0.94747  1.0000
  S   S158      1.0  0.65210  0.98198  0.97559  1.0000
  C   C539      1.0  0.51972  0.98296  0.81851  1.0000
  C   C540      1.0  0.63559  0.84153  0.75057  1.0000
  C   C541      1.0  0.40460  0.92023  0.97855  1.0000
  H   H938      1.0  0.48903  0.98632  0.70385  1.0000
  C   C542      1.0  0.63196  0.83294  0.78210  1.0000
  H   H939      1.0  0.61573  0.84779  0.68414  1.0000
  S   S159      1.0  0.32964  0.91397  0.81652  1.0000
  H   H940      1.0  0.41945  0.86598  0.97139  1.0000
  C   C543      1.0  0.33137  0.90378  0.77894  1.0000
  C   C544      1.0  0.43079  0.96922  0.94512  1.0000
  H   H941      1.0  0.55287  0.50935  0.68632  1.0000
  C   C545      1.0  0.51152  0.99679  0.71725  1.0000
  H   H942      1.0  0.44762  0.90057  0.98221  1.0000
  H   H943      1.0  0.43822  0.64601  0.98830  1.0000
  H   H944      1.0  0.40740  0.59398  0.98485  1.0000
  H   H945      1.0  0.53500  0.51408  0.77894  1.0000
  C   C546      1.0  0.45824  0.63902  0.98471  1.0000
  N   N42       1.0  0.65757  0.81843  0.74379  1.0000
  H   H946      1.0  0.65700  0.76497  0.76413  1.0000
  C   C547      1.0  0.51905  0.50479  0.55137  1.0000
  C   C548      1.0  0.60344  0.50292  0.83805  1.0000
  H   H947      1.0  0.38775  0.90950  0.98663  1.0000
  C   C549      1.0  0.38875  0.98284  0.98546  1.0000
  C   C550      1.0  0.36746  0.98622  0.95016  1.0000
  H   H948      1.0  0.55914  0.50766  0.83298  1.0000
  H   H949      1.0  0.56696  0.50952  0.77172  1.0000
  H   H950      1.0  0.61867  0.52474  0.66894  1.0000
  C   C551      1.0  0.61755  0.51817  0.64462  1.0000
  H   H951      1.0  0.43661  0.99492  0.93578  1.0000
  H   H952      1.0  0.56417  0.50153  0.51112  1.0000
  C   C552      1.0  0.36094  0.99840  0.50609  1.0000
  H   H953      1.0  0.52314  0.50272  0.72263  1.0000
  Fe  Fe82      1.0  0.77357  0.15959  0.18675  1.0000
  S   S160      1.0  0.77111  0.09760  0.18719  1.0000
  S   S161      1.0  0.81350  0.19605  0.21524  1.0000
  Fe  Fe83      1.0  0.70817  0.16506  0.14426  1.0000
  S   S162      1.0  0.70160  0.10379  0.14214  1.0000
  H   H954      1.0  0.79107  0.45581  0.47225  1.0000
  Fe  Fe84      1.0  0.72959  0.10607  0.19511  1.0000
  S   S163      1.0  0.71482  0.07122  0.22771  1.0000
  Fe  Fe85      1.0  0.74286  0.10114  0.13401  1.0000
  S   S164      1.0  0.74911  0.06915  0.09346  1.0000
  S   S165      1.0  0.73338  0.16767  0.19772  1.0000
  S   S166      1.0  0.74817  0.16276  0.13326  1.0000
  H   H955      1.0  0.92198  0.27374  0.22054  1.0000
  H   H956      1.0  0.82189  0.30612  0.16651  1.0000
  H   H957      1.0  0.91863  0.35634  0.17364  1.0000
  S   S167      1.0  0.95049  0.17409  0.25625  1.0000
  H   H958      1.0  0.69127  0.23779  0.17242  1.0000
  C   C553      1.0  0.79000  0.12840  0.28011  1.0000
  H   H959      1.0  0.91979  0.20379  0.01434  1.0000
  S   S168      1.0  0.69924  0.10913  0.35812  1.0000
  C   C554      1.0  0.90567  0.32186  0.25410  1.0000
  C   C555      1.0  0.98576  0.35446  0.20175  1.0000
  H   H960      1.0  0.88655  0.33919  0.00411  1.0000
  S   S169      1.0  0.94395  0.46068  0.21787  1.0000
  C   C556      1.0  0.92254  0.26980  0.17383  1.0000
  C   C557      1.0  0.68020  0.00441  0.00859  1.0000
  H   H961      1.0  0.68345  0.20019  0.25579  1.0000
  Fe  Fe86      1.0  0.67714  0.07177  0.38243  1.0000
  H   H962      1.0  0.84880  0.08807  0.33721  1.0000
  H   H963      1.0  0.79219  0.01838  0.28955  1.0000
  H   H964      1.0  0.77786  0.12340  0.25384  1.0000
  C   C558      1.0  0.70716  0.01416  0.00808  1.0000
  C   C559      1.0  0.96036  0.41176  0.18032  1.0000
  C   C560      1.0  0.96035  0.42072  0.21046  1.0000
  C   C561      1.0  0.90289  0.27012  0.05164  1.0000
  H   H965      1.0  0.98972  0.03013  0.25706  1.0000
  H   H966      1.0  0.97255  0.37126  0.15255  1.0000
  H   H967      1.0  0.95034  0.43006  0.16037  1.0000
  S   S170      1.0  0.68958  0.01486  0.40236  1.0000
  H   H968      1.0  0.67943  0.11713  0.06425  1.0000
  C   C562      1.0  0.72219  0.04409  0.06121  1.0000
  C   C563      1.0  0.72806  0.03369  0.03434  1.0000
  H   H969      1.0  0.90178  0.25464  0.16076  1.0000
  H   H970      1.0  0.68655  0.04272  0.31730  1.0000
  H   H971      1.0  0.74889  0.04092  0.03377  1.0000
  H   H972      1.0  0.76949  0.05718  0.28360  1.0000
  C   C564      1.0  0.85133  0.19033  0.22428  1.0000
  C   C565      1.0  0.86216  0.15918  0.21448  1.0000
  C   C566      1.0  0.89250  0.15510  0.22385  1.0000
  C   C567      1.0  0.91239  0.18234  0.24258  1.0000
  C   C568      1.0  0.90149  0.21383  0.25182  1.0000
  C   C569      1.0  0.87120  0.21759  0.24295  1.0000
  H   H973      1.0  0.84723  0.13793  0.20015  1.0000
  H   H974      1.0  0.90061  0.13048  0.21672  1.0000
  H   H975      1.0  0.91648  0.23461  0.26683  1.0000
  H   H976      1.0  0.86310  0.24153  0.25104  1.0000
  C   C570      1.0  0.70972  0.08307  0.26329  1.0000
  C   C571      1.0  0.71671  0.11806  0.27773  1.0000
  C   C572      1.0  0.71325  0.12567  0.30663  1.0000
  C   C573      1.0  0.70242  0.09858  0.32122  1.0000
  C   C574      1.0  0.69485  0.06387  0.30638  1.0000
  C   C575      1.0  0.69865  0.05615  0.27771  1.0000
  H   H977      1.0  0.72476  0.13924  0.26665  1.0000
  H   H978      1.0  0.71906  0.15266  0.31786  1.0000
  H   H979      1.0  0.89480  0.25669  0.06851  1.0000
  H   H980      1.0  0.92205  0.36026  0.22918  1.0000
  H   H981      1.0  0.67682  0.08208  0.00449  1.0000
  N   N43       1.0  0.81879  0.10894  0.29184  1.0000
  H   H982      1.0  0.93988  0.24895  0.18373  1.0000
  C   C576      1.0  0.86778  0.45382  0.04515  1.0000
  H   H983      1.0  0.69317  0.02897  0.26677  1.0000
  H   H984      1.0  0.88597  0.40868  0.02804  1.0000
  H   H985      1.0  0.84210  0.15348  0.27958  1.0000
  H   H986      1.0  0.80235  0.06561  0.25541  1.0000
  C   C577      1.0  0.67457  0.01426  0.03572  1.0000
  H   H987      1.0  0.92720  0.30844  0.26448  1.0000
  H   H988      1.0  0.74413  0.40257  0.49592  1.0000
  H   H989      1.0  0.79991  0.05106  0.32175  1.0000
  S   S171      1.0  0.70482  0.02381  0.49718  1.0000
  H   H990      1.0  0.81778  0.10960  0.33923  1.0000
  C   C578      1.0  0.68634  0.13703  0.05018  1.0000
  C   C579      1.0  0.79090  0.17030  0.28611  1.0000
  H   H991      1.0  0.85202  0.36529  0.14576  1.0000
  C   C580      1.0  0.86790  0.42733  0.02213  1.0000
  C   C581      1.0  0.86855  0.29706  0.18347  1.0000
  C   C582      1.0  0.97300  0.37854  0.17597  1.0000
  S   S172      1.0  0.66738  0.19469  0.11288  1.0000
  H   H992      1.0  0.79895  0.39391  0.49151  1.0000
  C   C583      1.0  0.83394  0.11181  0.32799  1.0000
  C   C584      1.0  0.84438  0.47784  0.03801  1.0000
  H   H993      1.0  0.87800  0.09862  0.30810  1.0000
  C   C585      1.0  0.85284  0.14680  0.34215  1.0000
  H   H994      1.0  0.86292  0.07815  0.26816  1.0000
  H   H995      1.0  0.84204  0.34579  0.18681  1.0000
  H   H996      1.0  0.87237  0.27137  0.19773  1.0000
  H   H997      1.0  0.86160  0.28763  0.15803  1.0000
  H   H998      1.0  0.87627  0.14092  0.34887  1.0000
  H   H999      1.0  0.92136  0.31877  0.02075  1.0000
  H   H1000     1.0  0.85090  0.15467  0.36500  1.0000
  C   C586      1.0  0.79239  0.04824  0.29531  1.0000
  H   H1001     1.0  0.97554  0.09445  0.25724  1.0000
  H   H1002     1.0  0.70350  0.12471  0.04357  1.0000
  H   H1003     1.0  0.91045  0.29822  0.06147  1.0000
  C   C587      1.0  0.81243  0.06879  0.28211  1.0000
  H   H1004     1.0  0.84691  0.17137  0.32688  1.0000
  Fe  Fe87      1.0  0.98878  0.21520  0.26934  1.0000
  C   C588      1.0  0.97349  0.39687  0.23609  1.0000
  H   H1005     1.0  0.88558  0.45533  0.06851  1.0000
  C   C589      1.0  0.69527  0.03425  0.06173  1.0000
  H   H1006     1.0  0.87779  0.39535  0.17695  1.0000
  H   H1007     1.0  0.83947  0.30549  0.20878  1.0000
  H   H1008     1.0  0.66934  0.17309  0.00980  1.0000
  C   C590      1.0  0.86624  0.10426  0.28223  1.0000
  H   H1009     1.0  0.87866  0.39180  0.13834  1.0000
  H   H1010     1.0  0.94270  0.30906  0.21218  1.0000
  Fe  Fe88      1.0  0.67795  0.03309  0.44364  1.0000
  C   C591      1.0  0.89661  0.34379  0.16707  1.0000
  H   H1011     1.0  0.82455  0.12203  0.24819  1.0000
  H   H1012     1.0  0.69671  0.16067  0.06663  1.0000
  H   H1013     1.0  0.97338  0.40328  0.25936  1.0000
  H   H1014     1.0  0.92161  0.25402  0.05160  1.0000
  H   H1015     1.0  0.89213  0.32732  0.14474  1.0000
  H   H1016     1.0  0.66908  0.28598  0.19468  1.0000
  H   H1017     1.0  0.76845  0.18099  0.27434  1.0000
  H   H1018     1.0  0.88466  0.36338  0.21986  1.0000
  H   H1019     1.0  0.92861  0.28655  0.15700  1.0000
  C   C592      1.0  0.66873  0.24513  0.15953  1.0000
  H   H1020     1.0  0.79814  0.17702  0.31206  1.0000
  C   C593      1.0  0.83700  0.12376  0.27472  1.0000
  C   C594      1.0  0.84205  0.31539  0.18691  1.0000
  H   H1021     1.0  0.83288  0.05274  0.29017  1.0000
  H   H1022     1.0  0.90487  0.34160  0.27264  1.0000
  H   H1023     1.0  0.88819  0.30101  0.24973  1.0000
  H   H1024     1.0  0.77596  0.11723  0.29182  1.0000
  H   H1025     1.0  0.88068  0.12212  0.27499  1.0000
  H   H1026     1.0  0.80418  0.18542  0.27549  1.0000
  H   H1027     1.0  0.69055  0.04159  0.08236  1.0000
  C   C595      1.0  0.87480  0.37561  0.15702  1.0000
  N   N44       1.0  0.89639  0.31961  0.19385  1.0000
  C   C596      1.0  0.92165  0.29357  0.20185  1.0000
  C   C597      1.0  0.90200  0.34308  0.22347  1.0000
  H   H1028     1.0  0.66758  0.35932  0.10523  1.0000
  C   C598      1.0  0.98480  0.10599  0.21566  1.0000
  S   S173      1.0  0.67001  0.09186  0.42619  1.0000
  H   H1029     1.0  0.97518  0.45735  0.29732  1.0000
  H   H1030     1.0  0.96555  0.12424  0.20695  1.0000
  H   H1031     1.0  0.99281  0.04632  0.48637  1.0000
  S   S174      1.0  0.98699  0.27685  0.26962  1.0000
  C   C599      1.0  0.98642  0.36430  0.23188  1.0000
  H   H1032     1.0  0.76748  0.45118  0.49308  1.0000
  H   H1033     1.0  0.93072  0.26187  0.00425  1.0000
  H   H1034     1.0  0.97770  0.07940  0.20255  1.0000
  C   C600      1.0  0.79050  0.45142  0.49624  1.0000
  H   H1035     1.0  0.86176  0.29180  0.01966  1.0000
  C   C601      1.0  0.87788  0.27161  0.01805  1.0000
  H   H1036     1.0  0.68029  0.19402  0.21547  1.0000
  H   H1037     1.0  0.66599  0.12600  0.19189  1.0000
  C   C602      1.0  0.66751  0.19699  0.23052  1.0000
  H   H1038     1.0  0.86624  0.24478  0.01389  1.0000
  C   C603      1.0  0.82146  0.47542  0.00743  1.0000
  H   H1039     1.0  0.66300  0.14054  0.24019  1.0000
  H   H1040     1.0  0.67010  0.13527  0.49025  1.0000
  H   H1041     1.0  0.80324  0.49383  0.00162  1.0000
  H   H1042     1.0  0.83129  0.31722  0.75498  1.0000
  Fe  Fe89      1.0  0.81052  0.31084  0.86560  1.0000
  S   S175      1.0  0.83993  0.36007  0.88106  1.0000
  S   S176      1.0  0.82665  0.25385  0.86063  1.0000
  Fe  Fe90      1.0  0.75628  0.35523  0.85734  1.0000
  S   S177      1.0  0.78261  0.40865  0.87207  1.0000
  S   S178      1.0  0.70877  0.35140  0.85286  1.0000
  Fe  Fe91      1.0  0.80513  0.38842  0.84032  1.0000
  S   S179      1.0  0.82381  0.42590  0.81278  1.0000
  Fe  Fe92      1.0  0.81570  0.37629  0.91170  1.0000
  S   S180      1.0  0.84575  0.38963  0.96415  1.0000
  S   S181      1.0  0.77653  0.33780  0.82277  1.0000
  S   S182      1.0  0.78850  0.32417  0.89896  1.0000
  Fe  Fe93      1.0  0.89462  0.45300  0.61863  1.0000
  S   S183      1.0  0.94124  0.46043  0.65372  1.0000
  Fe  Fe94      1.0  0.92163  0.48366  0.68656  1.0000
  Fe  Fe95      1.0  0.87517  0.42356  0.67044  1.0000
  S   S184      1.0  0.91998  0.42902  0.70865  1.0000
  S   S185      1.0  0.83818  0.39715  0.68049  1.0000
  C   C604      1.0  0.86174  0.49765  0.50795  1.0000
  Fe  Fe96      1.0  0.93597  0.40509  0.67278  1.0000
  H   H1043     1.0  0.80446  0.45116  0.60856  1.0000
  S   S186      1.0  0.87518  0.48025  0.65040  1.0000
  S   S187      1.0  0.89084  0.39557  0.63558  1.0000
  C   C605      1.0  0.66125  0.16858  0.85971  1.0000
  S   S188      1.0  0.97238  0.21890  0.61081  1.0000
  H   H1044     1.0  0.85247  0.39929  0.56737  1.0000
  S   S189      1.0  0.95945  0.21274  0.93075  1.0000
  H   H1045     1.0  0.82522  0.45251  0.56740  1.0000
  H   H1046     1.0  0.90706  0.34709  0.79069  1.0000
  H   H1047     1.0  0.92640  0.29238  0.85625  1.0000
  C   C606      1.0  0.89055  0.36319  0.83624  1.0000
  H   H1048     1.0  0.69117  0.32356  0.78634  1.0000
  C   C607      1.0  0.97279  0.32382  0.66919  1.0000
  C   C608      1.0  0.95050  0.31680  0.63909  1.0000
  C   C609      1.0  0.95076  0.28455  0.62165  1.0000
  C   C610      1.0  0.97975  0.01861  0.86205  1.0000
  H   H1049     1.0  0.93780  0.26120  0.83248  1.0000
  C   C611      1.0  0.86316  0.49643  0.53956  1.0000
  H   H1050     1.0  0.93310  0.33628  0.62913  1.0000
  H   H1051     1.0  0.93345  0.27945  0.59835  1.0000
  H   H1052     1.0  0.77985  0.35395  0.51834  1.0000
  H   H1053     1.0  0.90339  0.33378  0.73774  1.0000
  H   H1054     1.0  0.69118  0.22735  0.84776  1.0000
  H   H1055     1.0  0.84797  0.27490  0.75265  1.0000
  H   H1056     1.0  0.96425  0.23672  0.78051  1.0000
  H   H1057     1.0  0.83263  0.36802  0.58122  1.0000
  H   H1058     1.0  0.83650  0.24963  0.79793  1.0000
  H   H1059     1.0  0.82986  0.42177  0.51393  1.0000
  H   H1060     1.0  0.87149  0.35697  0.76410  1.0000
  H   H1061     1.0  0.80369  0.44730  0.96110  1.0000
  C   C612      1.0  0.82758  0.41681  0.77602  1.0000
  C   C613      1.0  0.81027  0.39056  0.75361  1.0000
  C   C614      1.0  0.81350  0.38514  0.72429  1.0000
  C   C615      1.0  0.83438  0.40536  0.71734  1.0000
  C   C616      1.0  0.85191  0.43126  0.73992  1.0000
  C   C617      1.0  0.84831  0.43716  0.76893  1.0000
  H   H1062     1.0  0.79402  0.37499  0.75861  1.0000
  H   H1063     1.0  0.79974  0.36516  0.70692  1.0000
  H   H1064     1.0  0.86799  0.44714  0.73488  1.0000
  H   H1065     1.0  0.86167  0.45768  0.78600  1.0000
  C   C618      1.0  0.86413  0.24369  0.87703  1.0000
  C   C619      1.0  0.87295  0.20753  0.87471  1.0000
  C   C620      1.0  0.90249  0.19798  0.88948  1.0000
  C   C621      1.0  0.92330  0.22459  0.90679  1.0000
  C   C622      1.0  0.91465  0.26108  0.90776  1.0000
  C   C623      1.0  0.88520  0.27063  0.89296  1.0000
  H   H1066     1.0  0.85679  0.18656  0.86222  1.0000
  H   H1067     1.0  0.90896  0.16973  0.88867  1.0000
  H   H1068     1.0  0.93075  0.28182  0.92089  1.0000
  H   H1069     1.0  0.87882  0.29863  0.89457  1.0000
  H   H1070     1.0  0.87155  0.30589  0.72749  1.0000
  C   C624      1.0  0.89210  0.31410  0.74775  1.0000
  C   C625      1.0  0.66884  0.11866  0.51011  1.0000
  C   C626      1.0  0.82164  0.44904  0.98436  1.0000
  C   C627      1.0  0.80575  0.43456  0.56288  1.0000
  H   H1071     1.0  0.84488  0.30554  0.96333  1.0000
  C   C628      1.0  0.90354  0.21342  0.99102  1.0000
  H   H1072     1.0  0.96603  0.41381  0.77646  1.0000
  S   S190      1.0  0.96848  0.11813  0.80689  1.0000
  H   H1073     1.0  0.86520  0.29397  0.94024  1.0000
  N   N45       1.0  0.88676  0.28151  0.99092  1.0000
  S   S191      1.0  0.96807  0.11015  0.89476  1.0000
  H   H1074     1.0  0.89048  0.34540  0.95155  1.0000
  H   H1075     1.0  0.68161  0.15340  0.86337  1.0000
  H   H1076     1.0  0.68033  0.17082  0.81072  1.0000
  H   H1077     1.0  0.91295  0.35277  0.84751  1.0000
  H   H1078     1.0  0.89257  0.25655  0.79088  1.0000
  H   H1079     1.0  0.85387  0.22865  0.93902  1.0000
  C   C629      1.0  0.98221  0.43660  0.78640  1.0000
  Fe  Fe97      1.0  0.98996  0.12472  0.86123  1.0000
  H   H1080     1.0  0.93486  0.30815  0.82310  1.0000
  C   C630      1.0  0.84479  0.29472  0.76986  1.0000
  N   N46       1.0  0.87363  0.30984  0.79355  1.0000
  H   H1081     1.0  0.88980  0.38625  0.82003  1.0000
  H   H1082     1.0  0.88503  0.37529  0.85570  1.0000
  C   C631      1.0  0.89262  0.27755  0.80900  1.0000
  H   H1083     1.0  0.99114  0.42409  0.74424  1.0000
  H   H1084     1.0  0.71188  0.00671  0.98747  1.0000
  H   H1085     1.0  0.78654  0.40804  0.59401  1.0000
  H   H1086     1.0  0.84689  0.34775  0.80711  1.0000
  H   H1087     1.0  0.98249  0.20145  0.80771  1.0000
  Fe  Fe98      1.0  0.98250  0.16686  0.91621  1.0000
  C   C632      1.0  0.82570  0.27426  0.78434  1.0000
  N   N47       1.0  0.80573  0.40223  0.54161  1.0000
  H   H1088     1.0  0.90641  0.28999  0.75641  1.0000
  H   H1089     1.0  0.78201  0.36274  0.55778  1.0000
  H   H1090     1.0  0.86505  0.31517  0.83680  1.0000
  H   H1091     1.0  0.81892  0.29257  0.79981  1.0000
  C   C633      1.0  0.92452  0.28593  0.83150  1.0000
  C   C634      1.0  0.88627  0.33362  0.77498  1.0000
  H   H1092     1.0  0.90875  0.25811  0.96279  1.0000
  C   C635      1.0  0.86786  0.33294  0.81834  1.0000
  H   H1093     1.0  0.80537  0.26440  0.76453  1.0000
  H   H1094     1.0  0.83406  0.23620  0.96490  1.0000
  H   H1095     1.0  0.88341  0.26207  0.82396  1.0000
  S   S192      1.0  0.88429  0.46190  0.56540  1.0000
  C   C636      1.0  0.83305  0.38068  0.55915  1.0000
  H   H1096     1.0  0.95373  0.12932  0.73970  1.0000
  H   H1097     1.0  0.82271  0.32657  0.53382  1.0000
  C   C637      1.0  0.67559  0.33274  0.82374  1.0000
  H   H1098     1.0  0.88150  0.20516  0.98867  1.0000
  C   C638      1.0  0.84180  0.24878  0.94753  1.0000
  H   H1099     1.0  0.92347  0.31834  0.96517  1.0000
  C   C639      1.0  0.83940  0.34885  0.54002  1.0000
  H   H1100     1.0  0.84188  0.35844  0.51807  1.0000
  C   C640      1.0  0.90971  0.33674  0.97277  1.0000
  H   H1101     1.0  0.66890  0.19531  0.87237  1.0000
  C   C641      1.0  0.74968  0.39367  0.52089  1.0000
  S   S193      1.0  0.99277  0.11354  0.62316  1.0000
  H   H1102     1.0  0.82596  0.41170  0.61169  1.0000
  C   C642      1.0  0.67267  0.32143  0.79297  1.0000
  H   H1103     1.0  0.66550  0.13805  0.52726  1.0000
  C   C643      1.0  0.98283  0.21753  0.78718  1.0000
  C   C644      1.0  0.97538  0.11795  0.74970  1.0000
  H   H1104     1.0  0.78675  0.45252  0.55110  1.0000
  C   C645      1.0  0.97324  0.25892  0.63405  1.0000
  H   H1105     1.0  0.69029  0.10515  0.52165  1.0000
  C   C646      1.0  0.80562  0.42517  0.59595  1.0000
  C   C647      1.0  0.90094  0.31932  0.99869  1.0000
  H   H1106     1.0  0.94499  0.01808  0.79175  1.0000
  H   H1107     1.0  0.97134  0.46015  0.79275  1.0000
  H   H1108     1.0  0.73300  0.01049  0.56484  1.0000
  S   S194      1.0  0.97314  0.36427  0.69171  1.0000
  H   H1109     1.0  0.82201  0.25545  0.92607  1.0000
  C   C648      1.0  0.85976  0.28441  0.96038  1.0000
  C   C649      1.0  0.98844  0.11060  0.78269  1.0000
  H   H1110     1.0  0.92259  0.36231  0.98288  1.0000
  H   H1111     1.0  0.73324  0.37231  0.51979  1.0000
  C   C650      1.0  0.78010  0.37655  0.53522  1.0000
  H   H1112     1.0  0.69006  0.23627  0.80882  1.0000
  H   H1113     1.0  0.67964  0.04491  0.54096  1.0000
  C   C651      1.0  0.67647  0.22770  0.82200  1.0000
  C   C652      1.0  0.90820  0.25496  0.98683  1.0000
  H   H1114     1.0  0.90793  0.19753  0.97229  1.0000
  H   H1115     1.0  0.96787  0.04241  0.84791  1.0000
  C   C653      1.0  0.66238  0.18990  0.80886  1.0000
  H   H1116     1.0  0.87391  0.47802  0.50019  1.0000
  H   H1117     1.0  0.99112  0.49386  0.70975  1.0000
  H   H1118     1.0  0.95525  0.04065  0.74642  1.0000
  C   C654      1.0  0.80688  0.41571  0.51059  1.0000
  H   H1119     1.0  0.74719  0.41670  0.53582  1.0000
  C   C655      1.0  0.84478  0.42459  0.99165  1.0000
  C   C656      1.0  0.96750  0.01473  0.79275  1.0000
  H   H1120     1.0  0.67514  0.08382  0.56157  1.0000
  H   H1121     1.0  0.97784  0.46783  0.74548  1.0000
  H   H1122     1.0  0.97953  0.11550  0.70392  1.0000
  H   H1123     1.0  0.66967  0.06370  0.95124  1.0000
  H   H1124     1.0  0.97867  0.19892  0.76623  1.0000
  C   C657      1.0  0.98996  0.11020  0.72938  1.0000
  H   H1125     1.0  0.86049  0.33636  0.55537  1.0000
  C   C658      1.0  0.96423  0.01390  0.75744  1.0000
  H   H1126     1.0  0.97213  0.01515  0.88184  1.0000
  C   C659      1.0  0.66446  0.10199  0.98577  1.0000
  H   H1127     1.0  0.68057  0.03296  0.59547  1.0000
  H   H1128     1.0  0.80141  0.47578  0.51118  1.0000
  H   H1129     1.0  0.98513  0.01074  0.75481  1.0000
  H   H1130     1.0  0.68118  0.12120  0.98378  1.0000
  H   H1131     1.0  0.97922  0.04077  0.80358  1.0000
  C   C660      1.0  0.66363  0.05859  0.54867  1.0000
  C   C661      1.0  0.99382  0.44794  0.76090  1.0000
  C   C662      1.0  0.93670  0.95031  0.42666  1.0000
  Fe  Fe99      1.0  0.80773  0.60462  0.42306  1.0000
  S   S195      1.0  0.80523  0.66645  0.42208  1.0000
  S   S196      1.0  0.80566  0.58193  0.46906  1.0000
  Fe  Fe100     1.0  0.81601  0.60252  0.35872  1.0000
  S   S197      1.0  0.81410  0.66408  0.35417  1.0000
  S   S198      1.0  0.83127  0.56402  0.32836  1.0000
  Fe  Fe101     1.0  0.84278  0.66519  0.40685  1.0000
  S   S199      1.0  0.88695  0.69220  0.43412  1.0000
  Fe  Fe102     1.0  0.77602  0.65961  0.36965  1.0000
  S   S200      1.0  0.73658  0.69783  0.34865  1.0000
  S   S201      1.0  0.84679  0.60396  0.41076  1.0000
  S   S202      1.0  0.77627  0.59746  0.37114  1.0000
  H   H1132     1.0  0.90545  0.58806  0.35333  1.0000
  Fe  Fe103     1.0  0.92697  0.57810  0.15246  1.0000
  S   S203      1.0  0.87882  0.58638  0.13150  1.0000
  S   S204      1.0  0.96104  0.61679  0.14713  1.0000
  Fe  Fe104     1.0  0.87963  0.56740  0.17919  1.0000
  S   S205      1.0  0.85653  0.60224  0.20417  1.0000
  Fe  Fe105     1.0  0.87532  0.52614  0.11702  1.0000
  H   H1133     1.0  0.92540  0.61431  0.39018  1.0000
  S   S206      1.0  0.92828  0.56297  0.20096  1.0000
  H   H1134     1.0  0.84325  0.63675  0.05983  1.0000
  H   H1135     1.0  0.96401  0.85685  0.00953  1.0000
  S   S207      1.0  0.92910  0.82911  0.37756  1.0000
  C   C663      1.0  0.84465  0.52401  0.48620  1.0000
  H   H1136     1.0  0.68163  0.71540  0.41278  1.0000
  S   S208      1.0  0.95361  0.78514  0.10467  1.0000
  N   N48       1.0  0.94125  0.89625  0.46484  1.0000
  N   N49       1.0  0.90148  0.60267  0.04291  1.0000
  H   H1137     1.0  0.94357  0.62234  0.07726  1.0000
  H   H1138     1.0  0.99141  0.92151  0.24730  1.0000
  H   H1139     1.0  0.84568  0.68396  0.30602  1.0000
  C   C664      1.0  0.98243  0.68127  0.13343  1.0000
  C   C665      1.0  0.95822  0.66383  0.13593  1.0000
  C   C666      1.0  0.93272  0.68397  0.12896  1.0000
  C   C667      1.0  0.93145  0.72093  0.11909  1.0000
  C   C668      1.0  0.95575  0.73833  0.11662  1.0000
  H   H1140     1.0  0.94151  0.89318  0.41732  1.0000
  H   H1141     1.0  0.85294  0.72495  0.28929  1.0000
  H   H1142     1.0  0.91399  0.67109  0.13112  1.0000
  H   H1143     1.0  0.91160  0.73619  0.11356  1.0000
  H   H1144     1.0  0.70285  0.79466  0.41533  1.0000
  H   H1145     1.0  0.89554  0.63418  0.08056  1.0000
  C   C669      1.0  0.93908  0.88610  0.04828  1.0000
  H   H1146     1.0  0.70189  0.63155  0.34837  1.0000
  H   H1147     1.0  0.95309  0.68765  0.22180  1.0000
  H   H1148     1.0  0.94616  0.73271  0.35880  1.0000
  C   C670      1.0  0.83770  0.57495  0.29351  1.0000
  C   C671      1.0  0.85455  0.55104  0.28338  1.0000
  C   C672      1.0  0.86028  0.55869  0.25593  1.0000
  C   C673      1.0  0.84898  0.59027  0.23809  1.0000
  C   C674      1.0  0.83194  0.61403  0.24809  1.0000
  C   C675      1.0  0.82642  0.60655  0.27569  1.0000
  H   H1149     1.0  0.94003  0.91151  0.09301  1.0000
  H   H1150     1.0  0.87335  0.54010  0.24852  1.0000
  H   H1151     1.0  0.82289  0.63836  0.23432  1.0000
  H   H1152     1.0  0.81307  0.62490  0.28288  1.0000
  C   C676      1.0  0.89851  0.72927  0.41717  1.0000
  C   C677      1.0  0.87856  0.75018  0.39282  1.0000
  C   C678      1.0  0.88835  0.78044  0.38055  1.0000
  C   C679      1.0  0.91810  0.78965  0.39226  1.0000
  C   C680      1.0  0.93812  0.76837  0.41626  1.0000
  C   C681      1.0  0.92828  0.73844  0.42888  1.0000
  H   H1153     1.0  0.85556  0.74338  0.38378  1.0000
  H   H1154     1.0  0.87276  0.79694  0.36205  1.0000
  H   H1155     1.0  0.96109  0.77532  0.42544  1.0000
  H   H1156     1.0  0.94378  0.72233  0.44777  1.0000
  H   H1157     1.0  0.68534  0.76503  0.38277  1.0000
  C   C682      1.0  0.89210  0.70105  0.32443  1.0000
  C   C683      1.0  0.95696  0.79118  0.19362  1.0000
  C   C684      1.0  0.93103  0.62044  0.05077  1.0000
  C   C685      1.0  0.93413  0.97092  0.04028  1.0000
  C   C686      1.0  0.91540  0.57877  0.48941  1.0000
  H   H1158     1.0  0.68772  0.74591  0.32529  1.0000
  H   H1159     1.0  0.93321  0.72886  0.20945  1.0000
  H   H1160     1.0  0.93777  0.59025  0.49721  1.0000
  H   H1161     1.0  0.88937  0.59771  0.38102  1.0000
  C   C687      1.0  0.86140  0.69706  0.29753  1.0000
  H   H1162     1.0  0.69781  0.82280  0.45786  1.0000
  C   C688      1.0  0.92710  0.91611  0.48430  1.0000
  H   H1163     1.0  0.86319  0.52638  0.29684  1.0000
  H   H1164     1.0  0.90384  0.89616  0.06679  1.0000
  H   H1165     1.0  0.90453  0.71936  0.31489  1.0000
  H   H1166     1.0  0.89527  0.94001  0.03272  1.0000
  C   C689      1.0  0.69867  0.68946  0.33826  1.0000
  H   H1167     1.0  0.96184  0.89707  0.05894  1.0000
  H   H1168     1.0  0.93055  0.96868  0.44256  1.0000
  H   H1169     1.0  0.88618  0.55330  0.05871  1.0000
  H   H1170     1.0  0.71533  0.73755  0.43840  1.0000
  H   H1171     1.0  0.90478  0.81038  0.45003  1.0000
  H   H1172     1.0  0.89294  0.62988  0.47858  1.0000
  C   C690      1.0  0.89447  0.92560  0.46685  1.0000
  H   H1173     1.0  0.94604  0.65378  0.29732  1.0000
  C   C691      1.0  0.82840  0.54906  0.49573  1.0000
  H   H1174     1.0  0.89220  0.84993  0.46369  1.0000
  H   H1175     1.0  0.88197  0.90833  0.44556  1.0000
  H   H1176     1.0  0.93822  0.78692  0.20039  1.0000
  H   H1177     1.0  0.97845  0.93373  0.48224  1.0000
  H   H1178     1.0  0.95954  0.72364  0.25082  1.0000
  H   H1179     1.0  0.94996  0.96007  0.06322  1.0000
  C   C692      1.0  0.92212  0.65761  0.28799  1.0000
  C   C693      1.0  0.67925  0.71895  0.32725  1.0000
  C   C694      1.0  0.68733  0.65459  0.34013  1.0000
  S   S209      1.0  0.84245  0.51107  0.06633  1.0000
  H   H1180     1.0  0.94100  0.85604  0.04433  1.0000
  H   H1181     1.0  0.84365  0.52453  0.46191  1.0000
  C   C695      1.0  0.90939  0.64091  0.31090  1.0000
  C   C696      1.0  0.89040  0.64529  0.35286  1.0000
  H   H1182     1.0  0.94995  0.77800  0.16937  1.0000
  H   H1183     1.0  0.67391  0.84495  0.39101  1.0000
  H   H1184     1.0  0.88777  0.62849  0.29600  1.0000
  C   C697      1.0  0.92629  0.53930  0.05511  1.0000
  C   C698      1.0  0.89420  0.60635  0.49459  1.0000
  C   C699      1.0  0.90665  0.56778  0.06198  1.0000
  H   H1185     1.0  0.93711  0.84396  0.17590  1.0000
  H   H1186     1.0  0.85220  0.55855  0.01153  1.0000
  C   C700      1.0  0.93088  0.90924  0.43065  1.0000
  H   H1187     1.0  0.92381  0.95826  0.40142  1.0000
  H   H1188     1.0  0.93079  0.86410  0.08847  1.0000
  H   H1189     1.0  0.98469  0.58518  0.26419  1.0000
  H   H1190     1.0  0.95150  0.64873  0.36731  1.0000
  H   H1191     1.0  0.90774  0.57244  0.46328  1.0000
  H   H1192     1.0  0.96822  0.51934  0.26229  1.0000
  H   H1193     1.0  0.88651  0.66345  0.37075  1.0000
  H   H1194     1.0  0.98462  0.89235  0.46494  1.0000
  H   H1195     1.0  0.92023  0.53436  0.02910  1.0000
  C   C701      1.0  0.93118  0.65944  0.03758  1.0000
  H   H1196     1.0  0.67184  0.83875  0.47291  1.0000
  C   C702      1.0  0.69131  0.74077  0.42714  1.0000
  H   H1197     1.0  0.95992  0.95522  0.43108  1.0000
  H   H1198     1.0  0.91200  0.64331  0.26421  1.0000
  H   H1199     1.0  0.91706  0.68696  0.28274  1.0000
  H   H1200     1.0  0.96722  0.82872  0.26258  1.0000
  C   C703      1.0  0.93766  0.67365  0.36268  1.0000
  S   S210      1.0  0.92384  0.51875  0.13538  1.0000
  H   H1201     1.0  0.89358  0.84850  0.42397  1.0000
  C   C704      1.0  0.95477  0.71811  0.22512  1.0000
  C   C705      1.0  0.95926  0.83299  0.18922  1.0000
  H   H1202     1.0  0.86843  0.63718  0.33504  1.0000
  H   H1203     1.0  0.94957  0.54778  0.06669  1.0000
  H   H1204     1.0  0.93619  0.68073  0.38603  1.0000
  H   H1205     1.0  0.97196  0.83900  0.17449  1.0000
  C   C706      1.0  0.98127  0.71824  0.12395  1.0000
  C   C707      1.0  0.91085  0.94191  0.02096  1.0000
  H   H1206     1.0  0.89008  0.71732  0.34434  1.0000
  C   C708      1.0  0.97072  0.79848  0.26325  1.0000
  C   C709      1.0  0.68419  0.77484  0.40557  1.0000
  H   H1207     1.0  0.67121  0.80571  0.34391  1.0000
  H   H1208     1.0  0.88150  0.65571  0.04245  1.0000
  H   H1209     1.0  0.92289  0.61644  0.32136  1.0000
  N   N50       1.0  0.90769  0.66557  0.33711  1.0000
  C   C710      1.0  0.92726  0.89027  0.07501  1.0000
  H   H1210     1.0  0.96197  0.92763  0.01511  1.0000
  C   C711      1.0  0.88397  0.62859  0.05430  1.0000
  Fe  Fe106     1.0  0.97654  0.84440  0.39162  1.0000
  C   C712      1.0  0.95538  0.70556  0.35661  1.0000
  H   H1211     1.0  0.86170  0.68182  0.27634  1.0000
  H   H1212     1.0  0.91677  0.57452  0.08815  1.0000
  S   S211      1.0  0.98616  0.90462  0.38880  1.0000
  H   H1213     1.0  0.67386  0.95243  0.48114  1.0000
  H   H1214     1.0  0.90737  0.90391  0.41688  1.0000
  H   H1215     1.0  0.94869  0.84083  0.45199  1.0000
  H   H1216     1.0  0.96891  0.84815  0.21245  1.0000
  H   H1217     1.0  0.93858  0.94292  0.49363  1.0000
  C   C713      1.0  0.90393  0.60946  0.37023  1.0000
  H   H1218     1.0  0.91691  0.66129  0.01174  1.0000
  C   C714      1.0  0.93650  0.85513  0.46466  1.0000
  H   H1219     1.0  0.94444  0.60326  0.04148  1.0000
  C   C715      1.0  0.90477  0.84099  0.44954  1.0000
  H   H1220     1.0  0.95717  0.70326  0.33315  1.0000
  H   H1221     1.0  0.94961  0.78399  0.25126  1.0000
  Fe  Fe107     1.0  0.92054  0.50454  0.18195  1.0000
  H   H1222     1.0  0.97536  0.72075  0.19156  1.0000
  H   H1223     1.0  0.97790  0.70541  0.37541  1.0000
  C   C716      1.0  0.98176  0.57274  0.28496  1.0000
  H   H1224     1.0  0.88142  0.85320  0.02808  1.0000
  H   H1225     1.0  0.92508  0.68051  0.05170  1.0000
  H   H1226     1.0  0.88362  0.92233  0.48387  1.0000
  N   N51       1.0  0.98429  0.77339  0.21670  1.0000
  C   C717      1.0  0.97369  0.90362  0.48021  1.0000
  H   H1227     1.0  0.86287  0.89612  0.01185  1.0000
  H   H1228     1.0  0.66661  0.66239  0.24826  1.0000
  H   H1229     1.0  0.85156  0.58948  0.05896  1.0000
  C   C718      1.0  0.85266  0.61638  0.04825  1.0000
  H   H1230     1.0  0.92412  0.51253  0.06569  1.0000
  C   C719      1.0  0.97956  0.73221  0.21596  1.0000
  C   C720      1.0  0.98480  0.53044  0.28528  1.0000
  H   H1231     1.0  0.97730  0.52042  0.30374  1.0000
  C   C721      1.0  0.67549  0.83364  0.45055  1.0000
  H   H1232     1.0  0.94513  0.84434  0.48949  1.0000
  H   H1233     1.0  0.95370  0.66668  0.04034  1.0000
  H   H1234     1.0  0.68460  0.74316  0.44755  1.0000
  H   H1235     1.0  0.95931  0.57946  0.28241  1.0000
  C   C722      1.0  0.88693  0.59582  0.00707  1.0000
  H   H1236     1.0  0.87222  0.59300  0.48454  1.0000
  N   N52       1.0  0.92236  0.90475  0.01677  1.0000
  H   H1237     1.0  0.67379  0.86077  0.43894  1.0000
  H   H1238     1.0  0.94606  0.98178  0.02604  1.0000
  H   H1239     1.0  0.89197  0.95509  0.46011  1.0000
  S   S212      1.0  0.87164  0.50801  0.16286  1.0000
  C   C723      1.0  0.87332  0.87136  0.00691  1.0000
  H   H1240     1.0  0.97882  0.79142  0.28909  1.0000
  H   H1241     1.0  0.85979  0.66750  0.48228  1.0000
  H   H1242     1.0  0.92331  0.99482  0.04620  1.0000
  H   H1243     1.0  0.83847  0.61602  0.02227  1.0000
  C   C724      1.0  0.94256  0.91117  0.99971  1.0000
  Fe  Fe108     1.0  0.73947  0.89064  0.70719  1.0000
  S   S213      1.0  0.76661  0.84014  0.72522  1.0000
  S   S214      1.0  0.72357  0.93118  0.73531  1.0000
  Fe  Fe109     1.0  0.72665  0.87291  0.63615  1.0000
  S   S215      1.0  0.75138  0.81978  0.64938  1.0000
  S   S216      1.0  0.70254  0.88536  0.58254  1.0000
  Fe  Fe110     1.0  0.73024  0.81161  0.68430  1.0000
  S   S217      1.0  0.71265  0.75866  0.69630  1.0000
  Fe  Fe111     1.0  0.78605  0.85243  0.68893  1.0000
  S   S218      1.0  0.83169  0.84582  0.68815  1.0000
  S   S219      1.0  0.70253  0.86137  0.66788  1.0000
  S   S220      1.0  0.76179  0.90620  0.67408  1.0000
  C   C725      1.0  0.86315  0.56505  0.99525  1.0000
  C   C726      1.0  0.93873  0.66358  0.57144  1.0000
  H   H1244     1.0  0.93783  0.86233  0.96850  1.0000
  S   S221      1.0  0.95650  0.79165  0.78727  1.0000
  H   H1245     1.0  0.99247  0.85826  0.51387  1.0000
  H   H1246     1.0  0.88933  0.66406  0.66758  1.0000
  H   H1247     1.0  0.87843  0.64865  0.55362  1.0000
  S   S222      1.0  0.70580  0.90139  0.86527  1.0000
  H   H1248     1.0  0.81850  0.92612  0.55858  1.0000
  C   C727      1.0  0.97848  0.58911  0.73948  1.0000
  H   H1249     1.0  0.78487  0.95544  0.60013  1.0000
  H   H1250     1.0  0.94736  0.62801  0.53878  1.0000
  C   C728      1.0  0.82978  0.54780  0.52734  1.0000
  H   H1251     1.0  0.68082  0.95595  0.75836  1.0000
  H   H1252     1.0  0.87707  0.62165  0.99462  1.0000
  H   H1253     1.0  0.92953  0.90001  0.50598  1.0000
  C   C729      1.0  0.93937  0.65094  0.78427  1.0000
  H   H1254     1.0  0.90551  0.85340  0.99083  1.0000
  C   C730      1.0  0.95891  0.56804  0.71387  1.0000
  C   C731      1.0  0.95236  0.57913  0.68230  1.0000
  C   C732      1.0  0.96451  0.61213  0.67661  1.0000
  H   H1255     1.0  0.90275  0.71109  0.67143  1.0000
  H   H1256     1.0  0.90466  0.68570  0.78107  1.0000
  H   H1257     1.0  0.93732  0.56291  0.66242  1.0000
  H   H1258     1.0  0.86968  0.71217  0.69556  1.0000
  C   C733      1.0  0.70286  0.92475  0.55961  1.0000
  C   C734      1.0  0.68639  0.92372  0.52621  1.0000
  H   H1259     1.0  0.66261  0.76347  0.72794  1.0000
  S   S223      1.0  0.66561  0.98437  0.89157  1.0000
  H   H1260     1.0  0.92087  0.67263  0.57821  1.0000
  C   C735      1.0  0.71946  0.95639  0.57342  1.0000
  H   H1261     1.0  0.98508  0.96062  0.85913  1.0000
  H   H1262     1.0  0.91513  0.60164  0.73759  1.0000
  H   H1263     1.0  0.73201  0.95776  0.59908  1.0000
  C   C736      1.0  0.86580  0.82930  0.71600  1.0000
  C   C737      1.0  0.87141  0.82339  0.74836  1.0000
  C   C738      1.0  0.89922  0.81190  0.76968  1.0000
  C   C739      1.0  0.92172  0.80555  0.75897  1.0000
  C   C740      1.0  0.91600  0.81096  0.72650  1.0000
  C   C741      1.0  0.88830  0.82292  0.70527  1.0000
  H   H1264     1.0  0.85447  0.82829  0.75710  1.0000
  H   H1265     1.0  0.90335  0.80795  0.79473  1.0000
  H   H1266     1.0  0.93305  0.80641  0.71786  1.0000
  H   H1267     1.0  0.88434  0.82747  0.68036  1.0000
  C   C742      1.0  0.71849  0.92145  0.77112  1.0000
  C   C743      1.0  0.73760  0.89904  0.79499  1.0000
  C   C744      1.0  0.73361  0.89348  0.82381  1.0000
  C   C745      1.0  0.71034  0.90987  0.82894  1.0000
  H   H1268     1.0  0.95878  0.62134  0.65231  1.0000
  H   H1269     1.0  0.75303  0.91357  0.54383  1.0000
  H   H1270     1.0  0.75569  0.88648  0.79147  1.0000
  H   H1271     1.0  0.74862  0.87636  0.84221  1.0000
  H   H1272     1.0  0.67332  0.94510  0.80868  1.0000
  H   H1273     1.0  0.89290  0.56295  0.53698  1.0000
  H   H1274     1.0  0.82084  0.96280  0.60257  1.0000
  H   H1275     1.0  0.80941  0.92518  0.65738  1.0000
  N   N53       1.0  0.80691  0.90524  0.59660  1.0000
  C   C746      1.0  0.67704  0.74301  0.67236  1.0000
  C   C747      1.0  0.80097  0.90923  0.56145  1.0000
  C   C748      1.0  0.83686  0.88951  0.61382  1.0000
  C   C749      1.0  0.78405  0.88232  0.60227  1.0000
  H   H1276     1.0  0.84221  0.94721  0.65836  1.0000
  H   H1277     1.0  0.94700  0.94436  0.78745  1.0000
  C   C750      1.0  0.84163  0.85004  0.60434  1.0000
  C   C751      1.0  0.77180  0.84795  0.58027  1.0000
  H   H1278     1.0  0.77187  0.95702  0.54623  1.0000
  H   H1279     1.0  0.68563  0.81195  0.79426  1.0000
  H   H1280     1.0  0.80161  0.88261  0.54970  1.0000
  H   H1281     1.0  0.92596  0.66529  0.51985  1.0000
  H   H1282     1.0  0.85364  0.90773  0.61079  1.0000
  H   H1283     1.0  0.84262  0.88831  0.64012  1.0000
  H   H1284     1.0  0.79237  0.87297  0.62755  1.0000
  H   H1285     1.0  0.76486  0.89946  0.59942  1.0000
  N   N54       1.0  0.90172  0.61953  0.52875  1.0000
  C   C752      1.0  0.84729  0.52187  0.54929  1.0000
  H   H1286     1.0  0.66891  0.78383  0.63584  1.0000
  H   H1287     1.0  0.67341  0.89943  0.51528  1.0000
  C   C753      1.0  0.70358  0.98513  0.52049  1.0000
  H   H1288     1.0  0.97595  0.88717  0.79674  1.0000
  H   H1289     1.0  0.86488  0.84304  0.61771  1.0000
  H   H1290     1.0  0.83709  0.84678  0.57848  1.0000
  H   H1291     1.0  0.82888  0.82976  0.61184  1.0000
  H   H1292     1.0  0.76953  0.82486  0.59502  1.0000
  H   H1293     1.0  0.78518  0.83747  0.56773  1.0000
  H   H1294     1.0  0.74936  0.85306  0.56247  1.0000
  H   H1295     1.0  0.93281  0.70889  0.77376  1.0000
  H   H1296     1.0  0.71977  0.82305  0.75167  1.0000
  H   H1297     1.0  0.84787  0.68707  0.51099  1.0000
  H   H1298     1.0  0.92492  0.67417  0.66856  1.0000
  C   C754      1.0  0.71325  0.80713  0.76860  1.0000
  C   C755      1.0  0.90394  0.58995  0.58202  1.0000
  C   C756      1.0  0.88378  0.71371  0.72166  1.0000
  C   C757      1.0  0.97108  0.94672  0.79516  1.0000
  H   H1299     1.0  0.67847  0.69893  0.70440  1.0000
  S   S224      1.0  0.94171  0.52972  0.72272  1.0000
  H   H1300     1.0  0.89812  0.60946  0.69521  1.0000
  H   H1301     1.0  0.73202  0.80885  0.79222  1.0000
  H   H1302     1.0  0.70991  0.77771  0.76108  1.0000
  H   H1303     1.0  0.81096  0.97404  0.65338  1.0000
  H   H1304     1.0  0.89801  0.73848  0.72496  1.0000
  Fe  Fe112     1.0  0.66885  0.92535  0.87683  1.0000
  C   C758      1.0  0.87558  0.63971  0.52911  1.0000
  C   C759      1.0  0.91926  0.68311  0.76798  1.0000
  H   H1305     1.0  0.95363  0.65947  0.80924  1.0000
  H   H1306     1.0  0.84994  0.69756  0.73941  1.0000
  C   C760      1.0  0.69542  0.93811  0.77642  1.0000
  C   C761      1.0  0.90772  0.58610  0.54993  1.0000
  H   H1307     1.0  0.81718  0.56701  0.53488  1.0000
  H   H1308     1.0  0.97443  0.94549  0.77243  1.0000
  H   H1309     1.0  0.86206  0.65064  0.70189  1.0000
  H   H1310     1.0  0.95060  0.68939  0.57082  1.0000
  C   C762      1.0  0.88203  0.64606  0.72395  1.0000
  C   C763      1.0  0.69117  0.93208  0.80498  1.0000
  H   H1311     1.0  0.92660  0.62666  0.78627  1.0000
  H   H1312     1.0  0.93879  0.70256  0.72445  1.0000
  H   H1313     1.0  0.97829  0.90652  0.83388  1.0000
  H   H1314     1.0  0.93630  0.65415  0.72113  1.0000
  C   C764      1.0  0.92285  0.67922  0.71555  1.0000
  C   C765      1.0  0.90878  0.68219  0.67862  1.0000
  N   N55       1.0  0.90199  0.67954  0.73219  1.0000
  C   C766      1.0  0.89457  0.60929  0.71785  1.0000
  H   H1315     1.0  0.98383  0.58063  0.76395  1.0000
  C   C767      1.0  0.80713  0.94367  0.61000  1.0000
  H   H1316     1.0  0.91150  0.56426  0.59585  1.0000
  H   H1317     1.0  0.91675  0.61297  0.59734  1.0000
  H   H1318     1.0  0.87515  0.73335  0.76326  1.0000
  H   H1319     1.0  0.84764  0.74376  0.72524  1.0000
  H   H1320     1.0  0.87393  0.64107  0.74324  1.0000
  H   H1321     1.0  0.67766  0.81669  0.70924  1.0000
  H   H1322     1.0  0.95403  0.64302  0.77237  1.0000
  H   H1323     1.0  0.97932  0.89626  0.53085  1.0000
  C   C768      1.0  0.86306  0.72201  0.73864  1.0000
  H   H1324     1.0  0.93173  0.92776  0.97768  1.0000
  C   C769      1.0  0.92837  0.64409  0.53831  1.0000
  H   H1325     1.0  0.97249  0.88486  0.98215  1.0000
  H   H1326     1.0  0.87868  0.58664  0.71530  1.0000
  C   C770      1.0  0.68632  0.82384  0.77203  1.0000
  H   H1327     1.0  0.94840  0.99237  0.74314  1.0000
  C   C771      1.0  0.97358  0.98251  0.84191  1.0000
  C   C772      1.0  0.68663  0.95374  0.50677  1.0000
  H   H1328     1.0  0.88459  0.69532  0.51544  1.0000
  H   H1329     1.0  0.76792  0.92450  0.51505  1.0000
  C   C773      1.0  0.98451  0.91129  0.81329  1.0000
  H   H1330     1.0  0.84572  0.57352  0.97225  1.0000
  H   H1331     1.0  0.93015  0.57588  0.55563  1.0000
  H   H1332     1.0  0.69092  0.85365  0.77736  1.0000
  H   H1333     1.0  0.85622  0.62085  0.52105  1.0000
  N   N56       1.0  0.98219  0.98247  0.81343  1.0000
  C   C774      1.0  0.98338  0.63383  0.70243  1.0000
  H   H1334     1.0  0.88065  0.59273  0.57795  1.0000
  H   H1335     1.0  0.88686  0.89340  0.97098  1.0000
  C   C775      1.0  0.89749  0.88063  0.99506  1.0000
  H   H1336     1.0  0.91576  0.55214  0.50134  1.0000
  H   H1337     1.0  0.95376  0.64584  0.59055  1.0000
  H   H1338     1.0  0.66978  0.86185  0.71888  1.0000
  C   C776      1.0  0.71993  0.98627  0.55393  1.0000
  C   C777      1.0  0.77172  0.92710  0.54085  1.0000
  H   H1339     1.0  0.87201  0.53929  0.98941  1.0000
  H   H1340     1.0  0.84816  0.52122  0.57352  1.0000
  H   H1341     1.0  0.90350  0.58795  0.99748  1.0000
  C   C778      1.0  0.81804  0.94731  0.64690  1.0000
  H   H1342     1.0  0.94986  0.97623  0.83402  1.0000
  C   C779      1.0  0.86686  0.67431  0.50816  1.0000
  C   C780      1.0  0.66543  0.71254  0.68234  1.0000
  C   C781      1.0  0.98991  0.88857  0.51434  1.0000
  C   C782      1.0  0.99103  0.62146  0.73376  1.0000
  C   C783      1.0  0.95466  0.87644  0.98960  1.0000
  H   H1343     1.0  0.85581  0.85547  0.98769  1.0000
  C   C784      1.0  0.66124  0.83288  0.71449  1.0000
  H   H1344     1.0  0.89798  0.95399  0.99706  1.0000
