data_image0
_chemical_formula_structural       HFeSH3CHCHC3HFeCH2CH2CHCHSCHCH3SHCSNSH2S2HSHCH4CHCHCH2SH3S2H3FeC4H4CFeSC3SC2H3C2HCH4CH2CH5CHNCH3FeSH5CHFeSHCHCH2CSHC2HFeHFeHNCHC6H2SHCH4CH2CH5SHCSCH4CHCH2FeCHNCHCH2CH3CHSHCH3CH3CH5C2FeH2C3H7C4H2CHSCHNC2HSHSCFeSCHNCHFeH3CH2C2HCSHC3H8C5H5C2HSCSH2SHFeHSC2H3SC2FeH3CH2CHCHNH2C2H3C2H2C2SH4FeH3CHCHNCH2CH2CH5CFeS2CHCSHNC6H2NFeHC2FeHNC3FeCH15CHCH3CSH2C2HCH4CSCHCH2CFeH9CHSH3C2HSHFeSHCHCH2C2SCFeCSC3H2CH2S2HCH2CHC2SCHFeHNCHSH7CH2CHCH4CFeH2FeSCHC3H5CHC2H9SHFeSCSH2FeH2SHCSH3CSHSCSCSHCFeNH2C3HC2FeCFeHC2H2C3H4C2H2C3HCH5CSH6C3H2CH3SCHSH4SH3C2HNHCH5FeS2H4C2HCH3C6H3CHC2H4C2NCH3CH9CHC3S2C2HCNC2H4CHSH3CHFe
_chemical_formula_sum              "H384 Fe32 S64 C224 N16"
_cell_length_a       29.4359
_cell_length_b       37.5023
_cell_length_c       23.5346
_cell_angle_alpha    90.0406
_cell_angle_beta     87.7054
_cell_angle_gamma    90.6086

_space_group_name_H-M_alt    "P 1"
_space_group_IT_number       1

loop_
  _space_group_symop_operation_xyz
  'x, y, z'

loop_
  _atom_site_type_symbol
  _atom_site_label
  _atom_site_symmetry_multiplicity
  _atom_site_fract_x
  _atom_site_fract_y
  _atom_site_fract_z
  _atom_site_occupancy
  H   H1        1.0  0.45992  0.24521  0.23126  1.0000
  Fe  Fe1       1.0  0.37631  0.25522  0.07004  1.0000
  S   S1        1.0  0.44584  0.23783  0.09609  1.0000
  H   H2        1.0  0.53646  0.20546  0.18930  1.0000
  H   H3        1.0  0.24814  0.07581  0.15098  1.0000
  H   H4        1.0  0.08922  0.04650  0.20501  1.0000
  C   C1        1.0  0.19069  0.02262  0.15900  1.0000
  H   H5        1.0  0.08576  0.02721  0.35342  1.0000
  C   C2        1.0  0.51787  0.24643  0.35435  1.0000
  H   H6        1.0  0.16153  0.00509  0.17256  1.0000
  C   C3        1.0  0.07211  0.06432  0.23671  1.0000
  C   C4        1.0  0.48202  0.25495  0.26361  1.0000
  C   C5        1.0  0.49013  0.23378  0.31137  1.0000
  H   H7        1.0  0.22902  0.19393  0.14119  1.0000
  Fe  Fe2       1.0  0.45478  0.29448  0.12471  1.0000
  C   C6        1.0  0.26854  0.20730  0.06495  1.0000
  H   H8        1.0  0.09149  0.06500  0.27574  1.0000
  H   H9        1.0  0.47458  0.20757  0.31530  1.0000
  C   C7        1.0  0.50208  0.28877  0.25832  1.0000
  H   H10       1.0  0.53830  0.15832  0.10285  1.0000
  H   H11       1.0  0.06288  0.07129  0.36752  1.0000
  C   C8        1.0  0.05644  0.04211  0.37146  1.0000
  H   H12       1.0  0.54145  0.21980  0.07359  1.0000
  C   C9        1.0  0.53033  0.30125  0.30086  1.0000
  H   H13       1.0  0.44614  0.31301  0.40458  1.0000
  S   S2        1.0  0.31543  0.22241  0.10353  1.0000
  C   C10       1.0  0.23006  0.19356  0.09518  1.0000
  H   H14       1.0  0.16369  0.16874  0.09026  1.0000
  C   C11       1.0  0.19307  0.17916  0.06642  1.0000
  H   H15       1.0  0.07381  0.09178  0.21930  1.0000
  H   H16       1.0  0.05526  0.03525  0.41736  1.0000
  H   H17       1.0  0.16943  0.09767  0.03815  1.0000
  S   S3        1.0  0.07760  0.11292  0.10378  1.0000
  H   H18       1.0  0.19496  0.04215  0.19388  1.0000
  C   C12       1.0  0.53788  0.28031  0.34904  1.0000
  S   S4        1.0  0.49181  0.31658  0.19999  1.0000
  N   N1        1.0  0.21771  0.06099  0.07169  1.0000
  S   S5        1.0  0.52840  0.21862  0.41260  1.0000
  H   H19       1.0  0.22096  0.00541  0.15427  1.0000
  H   H20       1.0  0.08001  0.00054  0.27262  1.0000
  S   S6        1.0  0.06559  0.00985  0.09205  1.0000
  S   S7        1.0  0.38435  0.31112  0.10412  1.0000
  H   H21       1.0  0.27408  0.02703  0.09056  1.0000
  S   S8        1.0  0.48453  0.31202  0.04042  1.0000
  H   H22       1.0  0.54212  0.26150  0.14721  1.0000
  C   C13       1.0  0.17924  0.04118  0.10289  1.0000
  H   H23       1.0  0.05543  0.15823  0.34275  1.0000
  H   H24       1.0  0.20870  0.10726  0.12588  1.0000
  H   H25       1.0  0.15028  0.05931  0.11303  1.0000
  H   H26       1.0  0.16524  0.01976  0.07569  1.0000
  C   C14       1.0  0.23612  0.08852  0.11179  1.0000
  H   H27       1.0  0.28505  0.13152  0.12210  1.0000
  C   C15       1.0  0.27700  0.11119  0.08948  1.0000
  H   H28       1.0  0.23744  0.00907  0.03972  1.0000
  C   C16       1.0  0.25370  0.03446  0.05358  1.0000
  H   H29       1.0  0.30802  0.09494  0.08320  1.0000
  H   H30       1.0  0.27013  0.12617  0.05030  1.0000
  S   S9        1.0  0.49492  0.22132  0.69018  1.0000
  H   H31       1.0  0.13486  0.14138  0.84869  1.0000
  H   H32       1.0  0.07057  0.16671  0.89517  1.0000
  H   H33       1.0  0.20121  0.03533  0.96007  1.0000
  S   S10       1.0  0.52716  0.23501  0.95406  1.0000
  S   S11       1.0  0.39946  0.27007  0.98044  1.0000
  H   H34       1.0  0.07964  0.08941  0.85134  1.0000
  H   H35       1.0  0.29904  0.21717  0.98180  1.0000
  H   H36       1.0  0.16677  0.07197  0.94058  1.0000
  Fe  Fe3       1.0  0.54412  0.24170  0.62107  1.0000
  C   C17       1.0  0.50474  0.22636  0.76312  1.0000
  C   C18       1.0  0.46909  0.21886  0.80278  1.0000
  C   C19       1.0  0.47531  0.22275  0.86130  1.0000
  C   C20       1.0  0.51770  0.23313  0.88067  1.0000
  H   H37       1.0  0.50451  0.30094  0.76245  1.0000
  H   H38       1.0  0.43645  0.20999  0.78818  1.0000
  H   H39       1.0  0.44768  0.21659  0.89153  1.0000
  H   H40       1.0  0.43534  0.29417  0.84464  1.0000
  C   C21       1.0  0.44083  0.30843  0.67223  1.0000
  Fe  Fe4       1.0  0.08713  0.13415  0.01471  1.0000
  S   S12       1.0  0.51615  0.27556  0.55219  1.0000
  C   C22       1.0  0.12094  0.21606  0.83634  1.0000
  C   C23       1.0  0.42342  0.30556  0.73481  1.0000
  C   C24       1.0  0.17673  0.05527  0.97695  1.0000
  S   S13       1.0  0.14952  0.15877  0.96929  1.0000
  C   C25       1.0  0.54683  0.23778  0.78235  1.0000
  C   C26       1.0  0.23257  0.19225  0.97667  1.0000
  H   H41       1.0  0.12296  0.19422  0.75211  1.0000
  H   H42       1.0  0.22134  0.09806  0.99977  1.0000
  H   H43       1.0  0.14535  0.04148  0.99330  1.0000
  C   C27       1.0  0.19711  0.07974  0.02235  1.0000
  C   C28       1.0  0.26954  0.20681  0.00548  1.0000
  H   H44       1.0  0.23379  0.19167  0.93069  1.0000
  C   C29       1.0  0.28772  0.04565  0.00462  1.0000
  H   H45       1.0  0.08854  0.08432  0.77535  1.0000
  H   H46       1.0  0.14866  0.20015  0.85387  1.0000
  H   H47       1.0  0.09372  0.99505  0.67874  1.0000
  H   H48       1.0  0.35451  0.30502  0.82041  1.0000
  C   C30       1.0  0.11615  0.13475  0.80983  1.0000
  H   H49       1.0  0.14188  0.13737  0.77407  1.0000
  H   H50       1.0  0.13650  0.24122  0.81951  1.0000
  C   C31       1.0  0.09721  0.19639  0.78788  1.0000
  H   H51       1.0  0.09813  0.12367  0.69748  1.0000
  H   H52       1.0  0.13448  0.07934  0.82167  1.0000
  H   H53       1.0  0.38584  0.30795  0.73394  1.0000
  H   H54       1.0  0.32298  0.04042  0.01737  1.0000
  H   H55       1.0  0.28253  0.02895  0.96635  1.0000
  C   C32       1.0  0.19430  0.17828  0.00702  1.0000
  H   H56       1.0  0.54872  0.11337  0.69010  1.0000
  N   N2        1.0  0.07736  0.16020  0.80294  1.0000
  C   C33       1.0  0.10326  0.09485  0.81467  1.0000
  H   H57       1.0  0.09654  0.22361  0.87136  1.0000
  H   H58       1.0  0.42986  0.27775  0.74878  1.0000
  H   H59       1.0  0.28684  0.07394  0.99188  1.0000
  Fe  Fe5       1.0  0.46933  0.25713  0.00906  1.0000
  S   S14       1.0  0.06113  0.08412  0.97386  1.0000
  H   H60       1.0  0.08326  0.16896  0.67945  1.0000
  H   H61       1.0  0.05465  0.99244  0.62351  1.0000
  H   H62       1.0  0.42587  0.28616  0.64772  1.0000
  H   H63       1.0  0.07103  0.21443  0.77141  1.0000
  H   H64       1.0  0.47824  0.30568  0.66733  1.0000
  C   C34       1.0  0.07027  0.14328  0.69728  1.0000
  H   H65       1.0  0.52776  0.42909  0.40156  1.0000
  Fe  Fe6       1.0  0.45619  0.55034  0.39492  1.0000
  S   S15       1.0  0.39244  0.51860  0.41381  1.0000
  H   H66       1.0  0.42318  0.49399  0.03503  1.0000
  C   C35       1.0  0.37597  0.42630  0.37846  1.0000
  H   H67       1.0  0.41339  0.50433  0.24641  1.0000
  C   C36       1.0  0.26826  0.62258  0.43748  1.0000
  H   H68       1.0  0.39652  0.42968  0.07011  1.0000
  H   H69       1.0  0.05468  0.63706  0.37535  1.0000
  C   C37       1.0  0.22144  0.62815  0.44649  1.0000
  S   S16       1.0  0.51056  0.62575  0.09481  1.0000
  H   H70       1.0  0.38477  0.48768  0.18778  1.0000
  C   C38       1.0  0.50795  0.56301  0.26109  1.0000
  C   C39       1.0  0.50278  0.44205  0.37450  1.0000
  H   H71       1.0  0.39627  0.42962  0.14702  1.0000
  Fe  Fe7       1.0  0.44924  0.58884  0.50878  1.0000
  H   H72       1.0  0.07592  0.64461  0.27641  1.0000
  Fe  Fe8       1.0  0.36363  0.56984  0.44805  1.0000
  H   H73       1.0  0.45057  0.59552  0.28547  1.0000
  N   N3        1.0  0.46014  0.48564  0.11137  1.0000
  C   C40       1.0  0.50270  0.50157  0.08311  1.0000
  H   H74       1.0  0.35385  0.43913  0.41180  1.0000
  C   C41       1.0  0.46227  0.44557  0.10445  1.0000
  C   C42       1.0  0.45935  0.49603  0.17325  1.0000
  C   C43       1.0  0.47671  0.59013  0.25304  1.0000
  C   C44       1.0  0.45871  0.33291  0.43525  1.0000
  C   C45       1.0  0.41696  0.42446  0.10782  1.0000
  C   C46       1.0  0.41693  0.48544  0.21006  1.0000
  H   H75       1.0  0.45375  0.63030  0.19564  1.0000
  H   H76       1.0  0.50521  0.53064  0.09142  1.0000
  S   S17       1.0  0.28892  0.57885  0.43579  1.0000
  H   H77       1.0  0.47814  0.43853  0.06219  1.0000
  C   C47       1.0  0.08967  0.64685  0.36419  1.0000
  H   H78       1.0  0.48465  0.43374  0.13638  1.0000
  H   H79       1.0  0.48859  0.48431  0.19486  1.0000
  H   H80       1.0  0.46467  0.52517  0.17830  1.0000
  H   H81       1.0  0.44507  0.38336  0.24264  1.0000
  C   C48       1.0  0.47674  0.41521  0.33771  1.0000
  H   H82       1.0  0.50343  0.47427  0.51844  1.0000
  H   H83       1.0  0.45609  0.43162  0.30957  1.0000
  C   C49       1.0  0.41343  0.54119  0.08652  1.0000
  H   H84       1.0  0.33380  0.64769  0.42317  1.0000
  H   H85       1.0  0.39293  0.38378  0.43314  1.0000
  H   H86       1.0  0.38320  0.54875  0.06262  1.0000
  H   H87       1.0  0.42021  0.45810  0.22716  1.0000
  H   H88       1.0  0.42805  0.42190  0.43908  1.0000
  S   S18       1.0  0.50303  0.53492  0.32063  1.0000
  H   H89       1.0  0.52281  0.46034  0.34584  1.0000
  C   C50       1.0  0.42020  0.50050  0.08119  1.0000
  S   S19       1.0  0.42547  0.60281  0.42167  1.0000
  C   C51       1.0  0.41207  0.40429  0.40763  1.0000
  H   H90       1.0  0.50182  0.49911  0.03611  1.0000
  H   H91       1.0  0.13034  0.60779  0.25561  1.0000
  H   H92       1.0  0.42448  0.39546  0.10697  1.0000
  H   H93       1.0  0.10728  0.64593  0.17964  1.0000
  C   C52       1.0  0.51088  0.60175  0.15882  1.0000
  H   H94       1.0  0.11235  0.62343  0.36443  1.0000
  C   C53       1.0  0.42699  0.36186  0.32780  1.0000
  H   H95       1.0  0.39227  0.40050  0.27243  1.0000
  H   H96       1.0  0.17682  0.62109  0.20725  1.0000
  Fe  Fe9       1.0  0.41870  0.51126  0.50077  1.0000
  C   C54       1.0  0.41417  0.37682  0.26940  1.0000
  H   H97       1.0  0.40675  0.54957  0.13126  1.0000
  N   N4        1.0  0.44803  0.38747  0.36929  1.0000
  C   C55       1.0  0.47921  0.36672  0.40626  1.0000
  H   H98       1.0  0.39116  0.44798  0.35178  1.0000
  C   C56       1.0  0.29772  0.65182  0.43049  1.0000
  H   H99       1.0  0.50244  0.40186  0.30905  1.0000
  H   H100      1.0  0.47954  0.45905  0.40075  1.0000
  C   C57       1.0  0.47841  0.60962  0.20208  1.0000
  H   H101      1.0  0.38757  0.48809  0.09610  1.0000
  H   H102      1.0  0.18615  0.59684  0.27206  1.0000
  H   H103      1.0  0.19861  0.60550  0.45215  1.0000
  C   C58       1.0  0.16568  0.61804  0.25266  1.0000
  H   H104      1.0  0.44246  0.55679  0.06773  1.0000
  S   S20       1.0  0.48474  0.53932  0.47985  1.0000
  H   H105      1.0  0.35361  0.40911  0.35309  1.0000
  C   C59       1.0  0.54834  0.48553  0.10016  1.0000
  H   H106      1.0  0.51016  0.35826  0.38120  1.0000
  H   H107      1.0  0.48601  0.31962  0.45826  1.0000
  H   H108      1.0  0.49163  0.38357  0.44144  1.0000
  C   C60       1.0  0.54306  0.57538  0.16755  1.0000
  H   H109      1.0  0.39544  0.35584  0.24616  1.0000
  H   H110      1.0  0.18100  0.64657  0.33000  1.0000
  H   H111      1.0  0.39616  0.34861  0.34747  1.0000
  C   C61       1.0  0.54167  0.55613  0.21875  1.0000
  H   H112      1.0  0.43151  0.33930  0.46744  1.0000
  H   H113      1.0  0.54631  0.32727  0.29660  1.0000
  H   H114      1.0  0.45074  0.33983  0.31686  1.0000
  H   H115      1.0  0.55175  0.45730  0.08665  1.0000
  H   H116      1.0  0.30760  0.62334  0.55108  1.0000
  C   C62       1.0  0.52890  0.41324  0.94826  1.0000
  C   C63       1.0  0.47751  0.61407  0.75542  1.0000
  Fe  Fe10      1.0  0.41378  0.32439  0.01697  1.0000
  H   H117      1.0  0.51284  0.36718  0.83883  1.0000
  H   H118      1.0  0.36124  0.63696  0.68987  1.0000
  C   C64       1.0  0.51688  0.62909  0.72980  1.0000
  C   C65       1.0  0.47912  0.46364  0.93996  1.0000
  C   C66       1.0  0.44118  0.44073  0.94774  1.0000
  H   H119      1.0  0.47595  0.40974  0.78916  1.0000
  H   H120      1.0  0.47430  0.49185  0.93345  1.0000
  H   H121      1.0  0.40719  0.45141  0.94747  1.0000
  H   H122      1.0  0.42001  0.59469  0.63622  1.0000
  H   H123      1.0  0.41223  0.59001  0.74117  1.0000
  H   H124      1.0  0.41867  0.49255  0.67078  1.0000
  H   H125      1.0  0.43596  0.39317  0.84335  1.0000
  C   C67       1.0  0.44701  0.60432  0.66198  1.0000
  C   C68       1.0  0.44270  0.60167  0.72140  1.0000
  C   C69       1.0  0.44718  0.40419  0.95749  1.0000
  C   C70       1.0  0.48546  0.62060  0.63632  1.0000
  H   H126      1.0  0.50900  0.34449  0.73410  1.0000
  H   H127      1.0  0.49868  0.53706  0.82659  1.0000
  C   C71       1.0  0.27673  0.60062  0.62754  1.0000
  H   H128      1.0  0.24159  0.60328  0.61287  1.0000
  S   S21       1.0  0.48985  0.62654  0.56215  1.0000
  C   C72       1.0  0.45500  0.39674  0.56549  1.0000
  H   H129      1.0  0.36123  0.35217  0.83735  1.0000
  N   N5        1.0  0.44329  0.33210  0.77556  1.0000
  C   C73       1.0  0.42549  0.32202  0.83453  1.0000
  C   C74       1.0  0.53989  0.42688  0.53611  1.0000
  H   H130      1.0  0.51643  0.54875  0.62279  1.0000
  S   S22       1.0  0.50210  0.56698  0.95930  1.0000
  H   H131      1.0  0.34437  0.61886  0.60754  1.0000
  S   S23       1.0  0.46897  0.61228  0.82963  1.0000
  C   C75       1.0  0.44070  0.39992  0.79793  1.0000
  Fe  Fe11      1.0  0.54259  0.60289  0.01439  1.0000
  S   S24       1.0  0.39958  0.37618  0.97154  1.0000
  C   C76       1.0  0.42888  0.36885  0.75815  1.0000
  H   H132      1.0  0.49621  0.36221  0.95895  1.0000
  N   N6        1.0  0.53383  0.49216  0.70164  1.0000
  C   C77       1.0  0.49111  0.39046  0.95559  1.0000
  H   H133      1.0  0.49222  0.34884  0.58237  1.0000
  Fe  Fe12      1.0  0.52684  0.60236  0.88744  1.0000
  H   H134      1.0  0.42210  0.38510  0.57691  1.0000
  H   H135      1.0  0.39180  0.36981  0.75049  1.0000
  H   H136      1.0  0.47153  0.46186  0.72118  1.0000
  C   C78       1.0  0.55265  0.54312  0.62861  1.0000
  H   H137      1.0  0.41672  0.42214  0.79166  1.0000
  H   H138      1.0  0.44486  0.37609  0.71599  1.0000
  C   C79       1.0  0.49445  0.37621  0.56848  1.0000
  C   C80       1.0  0.48824  0.47734  0.68577  1.0000
  H   H139      1.0  0.46775  0.50262  0.79289  1.0000
  C   C81       1.0  0.52313  0.44998  0.94194  1.0000
  S   S25       1.0  0.40881  0.45787  0.54415  1.0000
  H   H140      1.0  0.52079  0.49328  0.82703  1.0000
  C   C82       1.0  0.52131  0.34015  0.82337  1.0000
  C   C83       1.0  0.50257  0.51248  0.80061  1.0000
  C   C84       1.0  0.52965  0.52175  0.74496  1.0000
  H   H141      1.0  0.45279  0.52941  0.68693  1.0000
  H   H142      1.0  0.42995  0.33353  0.65232  1.0000
  H   H143      1.0  0.49258  0.45717  0.65150  1.0000
  H   H144      1.0  0.51599  0.32064  0.85863  1.0000
  H   H145      1.0  0.51345  0.54569  0.72764  1.0000
  H   H146      1.0  0.44096  0.33839  0.86802  1.0000
  H   H147      1.0  0.45922  0.50881  0.61750  1.0000
  H   H148      1.0  0.54370  0.63900  0.75590  1.0000
  C   C85       1.0  0.45347  0.50387  0.66375  1.0000
  C   C86       1.0  0.30972  0.62752  0.59785  1.0000
  C   C87       1.0  0.52045  0.63293  0.67031  1.0000
  C   C88       1.0  0.49454  0.32899  0.77107  1.0000
  C   C89       1.0  0.37359  0.32487  0.84524  1.0000
  H   H149      1.0  0.54061  0.41541  0.67715  1.0000
  H   H150      1.0  0.27710  0.60272  0.67450  1.0000
  H   H151      1.0  0.28766  0.57318  0.61596  1.0000
  H   H152      1.0  0.54100  0.45118  0.76600  1.0000
  H   H153      1.0  0.55030  0.64558  0.65059  1.0000
  C   C90       1.0  0.53690  0.39145  0.55414  1.0000
  C   C91       1.0  0.45810  0.43228  0.54735  1.0000
  H   H154      1.0  0.36518  0.31905  0.89073  1.0000
  S   S26       1.0  0.38515  0.55997  0.53704  1.0000
  C   C92       1.0  0.50055  0.44708  0.53220  1.0000
  S   S27       1.0  0.21431  0.73604  0.44907  1.0000
  H   H155      1.0  0.08549  0.94859  0.50372  1.0000
  H   H156      1.0  0.15234  0.70146  0.36579  1.0000
  S   S28       1.0  0.10467  0.78598  0.42087  1.0000
  H   H157      1.0  0.16540  0.69632  0.20161  1.0000
  Fe  Fe13      1.0  0.08799  0.81474  0.50211  1.0000
  H   H158      1.0  0.18948  0.74284  0.25991  1.0000
  S   S29       1.0  0.09963  0.87374  0.50728  1.0000
  C   C93       1.0  0.20423  0.66291  0.44986  1.0000
  C   C94       1.0  0.19005  0.73245  0.30391  1.0000
  H   H159      1.0  0.30326  0.70913  0.42677  1.0000
  H   H160      1.0  0.07186  0.77643  0.20425  1.0000
  H   H161      1.0  0.19237  0.75609  0.33219  1.0000
  S   S30       1.0  0.08103  0.71223  0.49283  1.0000
  C   C95       1.0  0.14693  0.71070  0.32180  1.0000
  C   C96       1.0  0.28036  0.68652  0.43238  1.0000
  Fe  Fe14      1.0  0.14163  0.74810  0.47603  1.0000
  H   H162      1.0  0.22139  0.71688  0.30960  1.0000
  H   H163      1.0  0.11831  0.72980  0.32560  1.0000
  H   H164      1.0  0.06080  0.77239  0.30945  1.0000
  C   C97       1.0  0.23378  0.69213  0.44288  1.0000
  H   H165      1.0  0.06452  0.93834  0.29226  1.0000
  H   H166      1.0  0.16836  0.66707  0.45875  1.0000
  C   C98       1.0  0.05601  0.93549  0.48680  1.0000
  H   H167      1.0  0.11856  0.72239  0.22499  1.0000
  C   C99       1.0  0.13129  0.69455  0.22378  1.0000
  H   H168      1.0  0.06372  0.68627  0.30739  1.0000
  N   N7        1.0  0.13498  0.67998  0.28342  1.0000
  H   H169      1.0  0.06334  0.67830  0.19680  1.0000
  H   H170      1.0  0.10384  0.68648  0.14021  1.0000
  C   C100      1.0  0.08980  0.66492  0.30535  1.0000
  C   C101      1.0  0.09965  0.67465  0.18345  1.0000
  H   H171      1.0  0.09876  0.66561  0.39816  1.0000
  H   H172      1.0  0.20501  0.66473  0.26755  1.0000
  H   H173      1.0  0.06628  0.93337  0.07892  1.0000
  C   C102      1.0  0.17258  0.65312  0.28546  1.0000
  C   C103      1.0  0.05469  0.89838  0.48192  1.0000
  H   H174      1.0  0.30066  0.70268  0.68362  1.0000
  H   H175      1.0  0.27427  0.66183  0.69941  1.0000
  C   C104      1.0  0.30406  0.67363  0.67520  1.0000
  C   C105      1.0  0.24261  0.71538  0.59535  1.0000
  S   S31       1.0  0.12967  0.77968  0.55591  1.0000
  H   H176      1.0  0.26404  0.73126  0.56464  1.0000
  H   H177      1.0  0.24407  0.72714  0.63842  1.0000
  H   H178      1.0  0.40698  0.69704  0.55146  1.0000
  H   H179      1.0  0.32455  0.69348  0.53471  1.0000
  Fe  Fe15      1.0  0.06566  0.74723  0.56913  1.0000
  H   H180      1.0  0.24961  0.66566  0.55054  1.0000
  H   H181      1.0  0.09662  0.95785  0.63146  1.0000
  H   H182      1.0  0.40033  0.66841  0.61156  1.0000
  C   C106      1.0  0.25493  0.67542  0.59437  1.0000
  H   H183      1.0  0.20701  0.71814  0.58200  1.0000
  C   C107      1.0  0.33592  0.68946  0.57880  1.0000
  H   H184      1.0  0.06186  0.94474  0.72915  1.0000
  N   N8        1.0  0.30212  0.66626  0.61232  1.0000
  C   C108      1.0  0.38507  0.67574  0.57115  1.0000
  H   H185      1.0  0.33792  0.71663  0.59778  1.0000
  H   H186      1.0  0.22839  0.66174  0.62171  1.0000
  C   C109      1.0  0.07278  0.97607  0.65437  1.0000
  H   H187      1.0  0.37416  0.68367  0.70098  1.0000
  H   H188      1.0  0.07004  0.89425  0.67177  1.0000
  C   C110      1.0  0.34742  0.66260  0.70496  1.0000
  H   H189      1.0  0.05656  0.90985  0.60430  1.0000
  H   H190      1.0  0.33910  0.65812  0.75090  1.0000
  H   H191      1.0  0.38693  0.65266  0.54154  1.0000
  H   H192      1.0  0.00871  0.04902  0.20296  1.0000
  H   H193      1.0  0.67249  0.17121  0.52807  1.0000
  C   C111      1.0  0.01071  0.03177  0.34595  1.0000
  Fe  Fe16      1.0  0.95087  0.09394  0.48216  1.0000
  S   S32       1.0  0.99491  0.13311  0.43229  1.0000
  S   S33       1.0  0.89402  0.06195  0.44690  1.0000
  C   C112      1.0  0.86585  0.20044  0.36531  1.0000
  H   H194      1.0  0.89334  0.02204  0.26398  1.0000
  C   C113      1.0  0.59410  0.28556  0.09273  1.0000
  S   S34       1.0  0.96578  0.16143  0.17239  1.0000
  H   H195      1.0  0.57925  0.31219  0.10187  1.0000
  N   N9        1.0  0.01129  0.02149  0.28390  1.0000
  C   C114      1.0  0.91100  0.22142  0.36070  1.0000
  C   C115      1.0  0.98819  0.13628  0.35857  1.0000
  C   C116      1.0  0.59346  0.21110  0.24403  1.0000
  C   C117      1.0  0.97624  0.14851  0.24224  1.0000
  C   C118      1.0  0.94089  0.13360  0.27649  1.0000
  C   C119      1.0  0.94718  0.12675  0.33430  1.0000
  H   H196      1.0  0.90843  0.12779  0.25833  1.0000
  H   H197      1.0  0.91965  0.11553  0.36036  1.0000
  N   N10       1.0  0.59430  0.22177  0.13532  1.0000
  Fe  Fe17      1.0  0.55829  0.24210  0.49166  1.0000
  H   H198      1.0  0.55968  0.29012  0.38167  1.0000
  C   C120      1.0  0.66779  0.18394  0.13193  1.0000
  C   C121      1.0  0.02173  0.05343  0.24638  1.0000
  Fe  Fe18      1.0  0.00701  0.13516  0.10163  1.0000
  H   H199      1.0  0.96770  0.01539  0.11003  1.0000
  N   N11       1.0  0.84498  0.19517  0.42434  1.0000
  C   C122      1.0  0.80186  0.17340  0.41904  1.0000
  C   C123      1.0  0.83214  0.23019  0.45205  1.0000
  C   C124      1.0  0.87672  0.17494  0.46147  1.0000
  Fe  Fe19      1.0  0.92768  0.01482  0.48444  1.0000
  C   C125      1.0  0.80775  0.13390  0.40166  1.0000
  H   H200      1.0  0.81924  0.22545  0.49667  1.0000
  H   H201      1.0  0.04509  0.16846  0.23988  1.0000
  H   H202      1.0  0.93860  0.20692  0.38119  1.0000
  H   H203      1.0  0.78161  0.17354  0.45995  1.0000
  H   H204      1.0  0.77961  0.18525  0.38705  1.0000
  H   H205      1.0  0.86206  0.24819  0.45537  1.0000
  H   H206      1.0  0.58099  0.27676  0.05140  1.0000
  H   H207      1.0  0.64907  0.16390  0.15838  1.0000
  H   H208      1.0  0.89723  0.15558  0.43579  1.0000
  H   H209      1.0  0.87306  0.17440  0.34470  1.0000
  H   H210      1.0  0.57606  0.19439  0.27749  1.0000
  H   H211      1.0  0.77357  0.12112  0.40023  1.0000
  H   H212      1.0  0.82429  0.13076  0.35887  1.0000
  H   H213      1.0  0.82648  0.11854  0.43315  1.0000
  H   H214      1.0  0.59800  0.15171  0.08395  1.0000
  C   C126      1.0  0.92600  0.03573  0.27264  1.0000
  H   H215      1.0  0.93535  0.17904  0.51489  1.0000
  C   C127      1.0  0.57529  0.20795  0.08061  1.0000
  H   H216      1.0  0.79120  0.27776  0.44609  1.0000
  H   H217      1.0  0.92158  0.04842  0.31498  1.0000
  H   H218      1.0  0.76162  0.23851  0.42623  1.0000
  C   C128      1.0  0.01799  0.15635  0.26589  1.0000
  S   S35       1.0  0.62007  0.27751  0.49389  1.0000
  H   H219      1.0  0.90790  0.24878  0.37808  1.0000
  H   H220      1.0  0.59718  0.21642  0.04319  1.0000
  C   C129      1.0  0.90978  0.19710  0.49722  1.0000
  C   C130      1.0  0.64550  0.22097  0.13246  1.0000
  H   H221      1.0  0.66016  0.23714  0.16714  1.0000
  C   C131      1.0  0.57983  0.26011  0.14203  1.0000
  H   H222      1.0  0.98822  0.05501  0.35408  1.0000
  H   H223      1.0  0.95292  0.98664  0.30144  1.0000
  H   H224      1.0  0.92175  0.22401  0.31502  1.0000
  H   H225      1.0  0.84162  0.21372  0.33739  1.0000
  C   C132      1.0  0.57400  0.20157  0.18591  1.0000
  S   S36       1.0  0.98723  0.04643  0.51346  1.0000
  C   C133      1.0  0.97596  0.98775  0.10306  1.0000
  H   H226      1.0  0.80488  0.25853  0.37831  1.0000
  C   C134      1.0  0.02371  0.15067  0.32412  1.0000
  H   H227      1.0  0.67237  0.17373  0.08776  1.0000
  H   H228      1.0  0.59332  0.27239  0.18098  1.0000
  C   C135      1.0  0.96431  0.00786  0.27087  1.0000
  Fe  Fe20      1.0  0.04593  0.06490  0.06308  1.0000
  H   H229      1.0  0.93131  0.05645  0.23932  1.0000
  H   H230      1.0  0.63027  0.20538  0.24536  1.0000
  H   H231      1.0  0.99469  0.01059  0.37328  1.0000
  H   H232      1.0  0.00379  0.07727  0.26349  1.0000
  H   H233      1.0  0.92880  0.21787  0.47264  1.0000
  H   H234      1.0  0.85718  0.15847  0.49341  1.0000
  H   H235      1.0  0.58724  0.23915  0.25639  1.0000
  H   H236      1.0  0.70174  0.18615  0.15075  1.0000
  H   H237      1.0  0.63146  0.28949  0.08888  1.0000
  C   C136      1.0  0.79538  0.25201  0.42314  1.0000
  H   H238      1.0  0.96434  0.99536  0.22782  1.0000
  S   S37       1.0  0.97496  0.08588  0.06657  1.0000
  H   H239      1.0  0.57811  0.17238  0.18146  1.0000
  H   H240      1.0  0.70079  0.10962  0.51268  1.0000
  H   H241      1.0  0.65907  0.23443  0.09311  1.0000
  C   C137      1.0  0.56756  0.16740  0.07509  1.0000
  C   C138      1.0  0.04411  0.99188  0.26954  1.0000
  H   H242      1.0  0.82542  0.13805  0.59094  1.0000
  S   S38       1.0  0.71361  0.23260  0.58155  1.0000
  H   H243      1.0  0.63292  0.13183  0.61337  1.0000
  Fe  Fe21      1.0  0.94696  0.05397  0.59521  1.0000
  S   S39       1.0  0.98760  0.04294  0.67260  1.0000
  H   H244      1.0  0.66962  0.19372  0.77859  1.0000
  C   C139      1.0  0.73304  0.18938  0.56814  1.0000
  H   H245      1.0  0.02235  0.03133  0.78250  1.0000
  C   C140      1.0  0.99613  0.05122  0.78683  1.0000
  H   H246      1.0  0.65315  0.12785  0.79164  1.0000
  H   H247      1.0  0.03429  0.13477  0.86781  1.0000
  C   C141      1.0  0.56648  0.12861  0.65533  1.0000
  C   C142      1.0  0.98636  0.06669  0.84021  1.0000
  S   S40       1.0  0.94182  0.11413  0.91170  1.0000
  C   C143      1.0  0.76526  0.11996  0.55011  1.0000
  Fe  Fe22      1.0  0.99259  0.10949  0.98088  1.0000
  C   C144      1.0  0.97234  0.06155  0.73914  1.0000
  S   S41       1.0  0.58155  0.20522  0.55999  1.0000
  C   C145      1.0  0.95289  0.09270  0.84612  1.0000
  C   C146      1.0  0.92864  0.10270  0.79860  1.0000
  C   C147      1.0  0.93834  0.08717  0.74513  1.0000
  H   H248      1.0  0.90255  0.12272  0.80311  1.0000
  H   H249      1.0  0.91981  0.09522  0.70857  1.0000
  C   C148      1.0  0.62568  0.12760  0.76038  1.0000
  H   H250      1.0  0.79725  0.19953  0.60635  1.0000
  H   H251      1.0  0.60383  0.18996  0.70403  1.0000
  S   S42       1.0  0.60426  0.27723  0.63428  1.0000
  S   S43       1.0  0.01917  0.16087  0.01613  1.0000
  H   H252      1.0  0.69638  0.08041  0.64970  1.0000
  C   C149      1.0  0.70424  0.09173  0.69187  1.0000
  H   H253      1.0  0.64795  0.18882  0.65152  1.0000
  H   H254      1.0  0.71265  0.14274  0.73073  1.0000
  C   C150      1.0  0.79234  0.14530  0.57664  1.0000
  H   H255      1.0  0.00081  0.19533  0.90420  1.0000
  C   C151      1.0  0.63923  0.18082  0.69625  1.0000
  C   C152      1.0  0.69288  0.13178  0.69522  1.0000
  S   S44       1.0  0.91527  0.10490  0.56674  1.0000
  C   C153      1.0  0.66991  0.20349  0.73416  1.0000
  H   H256      1.0  0.55660  0.15698  0.65738  1.0000
  Fe  Fe23      1.0  0.63988  0.24385  0.56735  1.0000
  H   H257      1.0  0.70546  0.20415  0.71635  1.0000
  N   N12       1.0  0.64312  0.14095  0.70284  1.0000
  C   C154      1.0  0.61824  0.12305  0.65556  1.0000
  H   H258      1.0  0.70796  0.14438  0.65614  1.0000
  S   S45       1.0  0.88973  0.01831  0.56871  1.0000
  H   H259      1.0  0.01909  0.16776  0.75097  1.0000
  H   H260      1.0  0.97827  0.17457  0.84193  1.0000
  H   H261      1.0  0.74147  0.08845  0.69603  1.0000
  H   H262      1.0  0.62234  0.09363  0.65669  1.0000
  H   H263      1.0  0.61497  0.09909  0.75764  1.0000
  H   H264      1.0  0.57425  0.24420  0.75209  1.0000
  H   H265      1.0  0.68670  0.07610  0.72633  1.0000
  C   C155      1.0  0.70579  0.16403  0.54183  1.0000
  H   H266      1.0  0.59711  0.17438  0.80533  1.0000
  H   H267      1.0  0.00452  0.05835  0.87685  1.0000
  C   C156      1.0  0.77631  0.18001  0.58543  1.0000
  H   H268      1.0  0.58634  0.24877  0.85588  1.0000
  C   C157      1.0  0.58582  0.14804  0.78957  1.0000
  H   H269      1.0  0.65801  0.23151  0.73469  1.0000
  H   H270      1.0  0.01604  0.21257  0.83650  1.0000
  H   H271      1.0  0.57295  0.13280  0.82746  1.0000
  H   H272      1.0  0.02893  0.12298  0.76829  1.0000
  C   C158      1.0  0.00889  0.18736  0.85952  1.0000
  Fe  Fe24      1.0  0.57991  0.30805  0.56025  1.0000
  H   H273      1.0  0.04476  0.13275  0.66775  1.0000
  H   H274      1.0  0.55663  0.15185  0.76215  1.0000
  Fe  Fe25      1.0  0.86071  0.06859  0.53379  1.0000
  S   S46       1.0  0.78483  0.07662  0.53758  1.0000
  C   C159      1.0  0.72181  0.12925  0.53319  1.0000
  H   H275      1.0  0.55361  0.11794  0.61487  1.0000
  C   C160      1.0  0.04686  0.14828  0.75650  1.0000
  C   C161      1.0  0.55349  0.24060  0.84108  1.0000
  C   C162      1.0  0.04938  0.16140  0.85791  1.0000
  H   H276      1.0  0.89140  0.20973  0.53399  1.0000
  H   H277      1.0  0.55843  0.16136  0.03067  1.0000
  H   H278      1.0  0.61737  0.62395  0.10321  1.0000
  H   H279      1.0  0.56861  0.56953  0.13467  1.0000
  H   H280      1.0  0.61968  0.61988  0.20562  1.0000
  C   C163      1.0  0.69033  0.62290  0.08992  1.0000
  H   H281      1.0  0.69815  0.60360  0.12362  1.0000
  C   C164      1.0  0.64616  0.64352  0.10291  1.0000
  C   C165      1.0  0.64659  0.64101  0.20721  1.0000
  H   H282      1.0  0.65055  0.63995  0.29936  1.0000
  H   H283      1.0  0.67873  0.62601  0.20700  1.0000
  H   H284      1.0  0.57652  0.50041  0.07766  1.0000
  H   H285      1.0  0.71946  0.64125  0.08066  1.0000
  H   H286      1.0  0.56601  0.53523  0.22508  1.0000
  H   H287      1.0  0.68642  0.60714  0.05040  1.0000
  H   H288      1.0  0.57276  0.43870  0.52493  1.0000
  H   H289      1.0  0.55381  0.48802  0.14625  1.0000
  H   H290      1.0  0.59194  0.43795  0.65059  1.0000
  S   S47       1.0  0.58940  0.57036  0.86732  1.0000
  H   H291      1.0  0.57049  0.54717  0.58657  1.0000
  Fe  Fe26      1.0  0.56667  0.53749  0.94284  1.0000
  S   S48       1.0  0.60559  0.57001  0.00524  1.0000
  C   C166      1.0  0.56099  0.50481  0.64938  1.0000
  S   S49       1.0  0.69744  0.62237  0.91569  1.0000
  H   H292      1.0  0.59273  0.47284  0.74442  1.0000
  H   H293      1.0  0.59236  0.41118  0.71297  1.0000
  Fe  Fe27      1.0  0.62342  0.60585  0.93087  1.0000
  H   H294      1.0  0.79032  0.63670  0.94077  1.0000
  H   H295      1.0  0.56282  0.40237  0.94833  1.0000
  S   S50       1.0  0.58700  0.36758  0.56043  1.0000
  H   H296      1.0  0.59819  0.50381  0.65655  1.0000
  C   C167      1.0  0.57150  0.43026  0.68936  1.0000
  S   S51       1.0  0.57189  0.47758  0.93812  1.0000
  H   H297      1.0  0.56407  0.53124  0.75667  1.0000
  H   H298      1.0  0.56692  0.56317  0.65791  1.0000
  H   H299      1.0  0.55537  0.48680  0.61267  1.0000
  C   C168      1.0  0.55999  0.46244  0.72826  1.0000
  S   S52       1.0  0.56254  0.64116  0.94408  1.0000
  H   H300      1.0  0.55827  0.34011  0.81172  1.0000
  S   S53       1.0  0.98984  0.73719  0.38062  1.0000
  C   C169      1.0  0.72860  0.68394  0.17260  1.0000
  S   S54       1.0  0.90171  0.79164  0.10592  1.0000
  C   C170      1.0  0.64119  0.65914  0.26592  1.0000
  S   S55       1.0  0.02012  0.74833  0.11279  1.0000
  H   H301      1.0  0.88890  0.85350  0.40218  1.0000
  C   C171      1.0  0.91631  0.88510  0.29798  1.0000
  Fe  Fe28      1.0  0.04281  0.75299  0.44364  1.0000
  N   N13       1.0  0.91984  0.84600  0.28357  1.0000
  H   H302      1.0  0.96338  0.83690  0.35425  1.0000
  H   H303      1.0  0.94989  0.88883  0.42784  1.0000
  C   C172      1.0  0.96528  0.72863  0.27062  1.0000
  C   C173      1.0  0.98037  0.93889  0.45032  1.0000
  C   C174      1.0  0.95094  0.92583  0.09508  1.0000
  H   H304      1.0  0.89638  0.78079  0.22706  1.0000
  C   C175      1.0  0.00971  0.74837  0.18707  1.0000
  C   C176      1.0  0.91046  0.91044  0.24725  1.0000
  Fe  Fe29      1.0  0.91599  0.84090  0.05442  1.0000
  C   C177      1.0  0.97093  0.73164  0.21123  1.0000
  Fe  Fe30      1.0  0.96393  0.77048  0.06051  1.0000
  H   H305      1.0  0.86940  0.84475  0.21892  1.0000
  C   C178      1.0  0.97968  0.90184  0.44352  1.0000
  C   C179      1.0  0.01681  0.88148  0.45945  1.0000
  H   H306      1.0  0.90823  0.81044  0.42156  1.0000
  H   H307      1.0  0.94655  0.85088  0.19634  1.0000
  C   C180      1.0  0.99810  0.74258  0.30637  1.0000
  C   C181      1.0  0.87501  0.83322  0.26168  1.0000
  C   C182      1.0  0.58514  0.70582  0.10927  1.0000
  H   H308      1.0  0.60528  0.66652  0.27564  1.0000
  H   H309      1.0  0.93932  0.79770  0.32633  1.0000
  H   H310      1.0  0.94592  0.72007  0.18400  1.0000
  H   H311      1.0  0.01864  0.84081  0.28737  1.0000
  C   C183      1.0  0.94106  0.96190  0.10455  1.0000
  C   C184      1.0  0.93167  0.82599  0.33641  1.0000
  H   H312      1.0  0.88675  0.88996  0.32781  1.0000
  H   H313      1.0  0.83657  0.78663  0.23502  1.0000
  C   C185      1.0  0.95633  0.83966  0.23791  1.0000
  C   C186      1.0  0.86939  0.79241  0.25505  1.0000
  C   C187      1.0  0.89543  0.82629  0.38575  1.0000
  H   H314      1.0  0.94650  0.89446  0.32103  1.0000
  C   C188      1.0  0.00420  0.85413  0.25023  1.0000
  H   H315      1.0  0.93561  0.71498  0.28891  1.0000
  H   H316      1.0  0.68378  0.70629  0.11186  1.0000
  H   H317      1.0  0.88024  0.90347  0.22276  1.0000
  H   H318      1.0  0.84604  0.84273  0.28933  1.0000
  H   H319      1.0  0.59538  0.70116  0.19822  1.0000
  C   C189      1.0  0.01890  0.95565  0.47105  1.0000
  S   S56       1.0  0.93269  0.96384  0.43365  1.0000
  H   H320      1.0  0.90527  0.93794  0.26349  1.0000
  H   H321      1.0  0.61210  0.72534  0.09623  1.0000
  H   H322      1.0  0.94101  0.91122  0.21817  1.0000
  H   H323      1.0  0.86857  0.77815  0.29627  1.0000
  H   H324      1.0  0.86280  0.81391  0.37410  1.0000
  H   H325      1.0  0.96052  0.81068  0.22992  1.0000
  C   C190      1.0  0.99627  0.91560  0.08620  1.0000
  C   C191      1.0  0.03135  0.94145  0.08596  1.0000
  C   C192      1.0  0.59804  0.68306  0.16078  1.0000
  H   H326      1.0  0.02731  0.84825  0.21297  1.0000
  H   H327      1.0  0.00494  0.94499  0.30248  1.0000
  C   C193      1.0  0.68033  0.69439  0.15506  1.0000
  H   H328      1.0  0.00486  0.88340  0.25619  1.0000
  H   H329      1.0  0.04131  0.98377  0.22413  1.0000
  H   H330      1.0  0.64198  0.66047  0.06493  1.0000
  S   S57       1.0  0.90597  0.89430  0.09768  1.0000
  C   C194      1.0  0.03607  0.76052  0.28232  1.0000
  H   H331      1.0  0.57052  0.66278  0.16799  1.0000
  S   S58       1.0  0.79093  0.75067  0.04532  1.0000
  H   H332      1.0  0.00432  0.88779  0.07984  1.0000
  H   H333      1.0  0.73615  0.65520  0.17165  1.0000
  H   H334      1.0  0.66989  0.71683  0.18361  1.0000
  H   H335      1.0  0.90613  0.96995  0.11199  1.0000
  S   S59       1.0  0.02245  0.78513  0.52143  1.0000
  H   H336      1.0  0.75413  0.69695  0.14300  1.0000
  H   H337      1.0  0.73556  0.69472  0.21540  1.0000
  H   H338      1.0  0.57636  0.68887  0.07251  1.0000
  C   C195      1.0  0.02121  0.97770  0.09328  1.0000
  C   C196      1.0  0.03855  0.95804  0.30654  1.0000
  H   H339      1.0  0.66345  0.68297  0.26951  1.0000
  N   N14       1.0  0.64409  0.66552  0.15663  1.0000
  H   H340      1.0  0.01581  0.85279  0.45527  1.0000
  C   C197      1.0  0.04206  0.76307  0.22279  1.0000
  H   H341      1.0  0.04429  0.96379  0.35191  1.0000
  H   H342      1.0  0.02046  0.98412  0.47471  1.0000
  H   H343      1.0  0.55399  0.72109  0.12091  1.0000
  H   H344      1.0  0.03885  0.71128  0.77686  1.0000
  H   H345      1.0  0.95309  0.89485  0.70508  1.0000
  Fe  Fe31      1.0  0.93667  0.79814  0.94514  1.0000
  S   S60       1.0  0.87288  0.82222  0.98372  1.0000
  S   S61       1.0  0.94503  0.81084  0.85063  1.0000
  H   H346      1.0  0.92751  0.93843  0.56894  1.0000
  H   H347      1.0  0.85569  0.80713  0.79334  1.0000
  H   H348      1.0  0.80501  0.81305  0.87653  1.0000
  H   H349      1.0  0.88700  0.70358  0.89167  1.0000
  C   C198      1.0  0.79052  0.78590  0.88402  1.0000
  C   C199      1.0  0.69710  0.68614  0.97477  1.0000
  H   H350      1.0  0.89951  0.74423  0.80350  1.0000
  C   C200      1.0  0.03989  0.95607  0.69651  1.0000
  H   H351      1.0  0.82820  0.68696  0.98996  1.0000
  H   H352      1.0  0.96181  0.90022  0.57294  1.0000
  H   H353      1.0  0.00316  0.95610  0.59246  1.0000
  C   C201      1.0  0.99771  0.77843  0.69770  1.0000
  C   C202      1.0  0.97531  0.79778  0.74146  1.0000
  C   C203      1.0  0.97582  0.78621  0.79817  1.0000
  C   C204      1.0  0.99866  0.75486  0.81083  1.0000
  C   C205      1.0  0.97970  0.91325  0.71979  1.0000
  C   C206      1.0  0.76597  0.71518  0.00778  1.0000
  H   H354      1.0  0.82562  0.73864  0.90991  1.0000
  H   H355      1.0  0.83223  0.80998  0.72453  1.0000
  H   H356      1.0  0.98386  0.85864  0.64665  1.0000
  C   C207      1.0  0.89108  0.69468  0.84691  1.0000
  H   H357      1.0  0.75935  0.78257  0.86002  1.0000
  C   C208      1.0  0.77021  0.65848  0.95794  1.0000
  C   C209      1.0  0.82751  0.75733  0.87326  1.0000
  H   H358      1.0  0.96296  0.96808  0.64740  1.0000
  H   H359      1.0  0.77959  0.78537  0.92978  1.0000
  H   H360      1.0  0.79712  0.68921  0.78259  1.0000
  H   H361      1.0  0.66073  0.68634  0.96972  1.0000
  C   C210      1.0  0.84786  0.79155  0.75487  1.0000
  C   C211      1.0  0.02113  0.73548  0.76691  1.0000
  N   N15       1.0  0.82679  0.73703  0.81780  1.0000
  C   C212      1.0  0.81494  0.76008  0.76811  1.0000
  H   H362      1.0  0.72391  0.68860  0.83250  1.0000
  H   H363      1.0  0.88001  0.78216  0.73399  1.0000
  H   H364      1.0  0.86063  0.77165  0.87661  1.0000
  C   C213      1.0  0.02112  0.74740  0.71025  1.0000
  H   H365      1.0  0.95690  0.82157  0.73127  1.0000
  H   H366      1.0  0.81351  0.74367  0.72867  1.0000
  H   H367      1.0  0.92803  0.69061  0.83791  1.0000
  H   H368      1.0  0.87583  0.71002  0.76156  1.0000
  H   H369      1.0  0.99630  0.78706  0.65403  1.0000
  H   H370      1.0  0.91963  0.91047  0.62930  1.0000
  H   H371      1.0  0.87420  0.66835  0.84172  1.0000
  H   H372      1.0  0.96010  0.93544  0.74029  1.0000
  H   H373      1.0  0.99894  0.74553  0.85430  1.0000
  C   C214      1.0  0.00393  0.89339  0.76720  1.0000
  H   H374      1.0  0.72964  0.73114  0.79958  1.0000
  C   C215      1.0  0.94588  0.92153  0.59910  1.0000
  C   C216      1.0  0.79177  0.68700  0.98542  1.0000
  C   C217      1.0  0.74361  0.71406  0.83287  1.0000
  S   S62       1.0  0.92533  0.74509  0.98910  1.0000
  S   S63       1.0  0.98049  0.82122  0.01260  1.0000
  C   C218      1.0  0.72283  0.65787  0.95268  1.0000
  C   C219      1.0  0.79428  0.70569  0.82202  1.0000
  H   H375      1.0  0.78057  0.77152  0.77344  1.0000
  C   C220      1.0  0.98149  0.94501  0.62801  1.0000
  N   N16       1.0  0.01012  0.92743  0.67159  1.0000
  C   C221      1.0  0.71863  0.71463  0.00225  1.0000
  C   C222      1.0  0.87373  0.72242  0.80467  1.0000
  H   H376      1.0  0.73725  0.72569  0.87571  1.0000
  H   H377      1.0  0.80300  0.68775  0.85735  1.0000
  H   H378      1.0  0.01871  0.97652  0.71910  1.0000
  H   H379      1.0  0.97784  0.88128  0.79695  1.0000
  C   C223      1.0  0.01922  0.86288  0.63086  1.0000
  H   H380      1.0  0.02451  0.91168  0.79308  1.0000
  S   S64       1.0  0.04944  0.72253  0.65589  1.0000
  H   H381      1.0  0.02530  0.87129  0.75046  1.0000
  H   H382      1.0  0.69855  0.73659  0.01882  1.0000
  H   H383      1.0  0.01986  0.85857  0.58420  1.0000
  C   C224      1.0  0.04062  0.89954  0.64469  1.0000
  H   H384      1.0  0.04006  0.84145  0.64885  1.0000
  Fe  Fe32      1.0  0.86388  0.77076  0.03145  1.0000
