data_image0
_chemical_formula_structural       FeHSCS4CHSFeS2FeSHFeH4SH4CHC2H2C2H2SCH4FeC6H4C6HCH2C6H4NC8H21FeH3CSH2NC8H20CHC2HSH2CH2C2HCH6CHSH4NHCSCH3SHC2NH4CHCFeS2FeS2CH2SFeHSCH2CSHFeS2FeSH2CH2SC3HC2H3C7H6FeCH4C2H2CH2C6HCH2C6H5CSH5NHCHCFeH3C2H5CH2CH6C2H6C2HC3HC2HCH8C2NHCH2SH3NH2CH10CH2SCH4C2H2NC5H4NH3CH2CHC2HC2SH4CHC2H3FeH4CHSH2CHCH3NHSCH3FeS2FeSFeCSCH2SFeS2FeCSFeCHS2FeS2FeS2CHSH2CS3HSCFeSC6H3FeH2CH2C6H4C6H3CSH2SH3C6H4C6H4C4SH2FeHSH6NCHSNC8H8CH3CH8CHC2H4CSH2NC2H2C2HSCH9C2HNC4HC3H10CH4SH3CNC3HC3FeCH3SHCH2CH4C2H2Fe2H5CHSCNC8H20SCHS2H5C2HCHCH4FeH4C2HCFeH7FeHNH4CSHS2HSFeSH2SHFeHCFeS2FeH2S2FeS2FeS2FeS2CHFeSHSC6H4C6H4CNHCH4CHC6H4C6H4C6H4CHC2HCHCSCFeH2CNC4HC2H14CH2CFeHCHCHCHCH2NC3HSH5CH2CH3SH3C2H3SHSHCH2FeHCHCHCH3CSH2CH3CH6CH2CHC3H2SHFeH2NH6CHCH2C2HCH4FeS2H2CHC2H2C2HNH2FeHCH3CHCH5CHC2H3CH3SC2H2CHCHCH3SHFeH3NHSHCSHSH2FeS2H2FeSCSCH3S2FeHSCH2SH2C2HSHC2H3C2NSCH3C6H5FeH2C6HSH2C6H5C2FeSCHCSH2CH3CH3SH2FeH2CH2NH5C3HCHCH2CH3CHCFeHFeH3CFeH3SCH2C2HC2HNH5SHCH2C2NHCH2C3H7CHNC4HC2H9FeH2CH3C2H2C2H3CH4FeHCSFeHSHCHSH2SCHCH2SHFeSFeS2CFeSHSFeSHS2C4H3CNC7H6CH3C7H3FeC6H4C2HNH5NCSCHCHCH3C2H3SH4CH3CHFeHNC8H20CH6FeH3SH2CH3CHCH2CHSHCH2NC2HC2SCH6CH7FeH2CHC3H2CH8CHCFeSCFeCH2FeS2FeSHSH2CSH4FeS2FeSFeSFeS4HCFeS2FeS4FeSC7H4CSH3C2H3C7H3C6H3C7H4C6H5SC2HCH6C2NC2HSHCH2C3HNH5CHCH3CH3SCHC2H2SC2NC8H20NHSHCSC4HCH3C2H2CH5C2H7CH3CH3FeHCH4NC2H2C2HFeH4CH3C2HCHFeH2FeCH7CH9CNCH3CH6CNH5NH2CH4CHCHCH2CH5C3SHS2HCHFeS4FeHSH3S2HSCFeSH2FeSFeS2FeSHS2FeS2FeS2FeSHSHC6H4SHCHSH2C6H4CHC2HCH3C6H4C6H4C6H5CH2CH3FeNCHSCH2CH4CH2CHC2H3CH2FeH3FeSHC2SC2HCH3CH3C2SH4C2FeCH2CH3SCHCH4CHCH2C2H2CH4CH5CNH5NC2FeCHCHCH2CH2CHCSH4FeH2CH3CH2CH3NH3CH2CH3CHC2HCH5NCH8C2H2C2H3CH4CHCNHCFeHCH2C3H6C4H3CHCH5CSCSHNS2FeSFeS2FeCHSFeS2HFeSFeS2FeSHFeSFeS2FeS2FeS2HC6H4CH2C4HC6H4C6H5SC2H2C6H4C6SH2FeHCHCHCH3CH5NH3CHCHCH3FeC2HCH6C2H4NHC3HCHCHSH2CH3C2NH2CHCH5C2H2CH5C3NCH7C2HCHCH2CHCSH5FeCH2CH6CSH3CH4CH8CH4CH2SHFeH2CNH3CH2NCH6C2HCHC3H2C2H3C2HSHFeH2CHCH5SHSH3CFeHSFeS2HFeSHSFeS2FeS2HC2FeS2FeSFe2S4H2SH2SHFeSC6H5CHCSNSC3H3C6H4C6H4C6H4C6HCH4CH3NH3CHCHCHFeC2NC8H20CH2CH3CHC2H3CSCH3CH2CH3CH2NCH2C2H2SHSHC2HSH4CH4CH3C2NHS2HCH3CH4CHNHC3HC3H6C2H2CSCHSH5C2HCH6CH2CHFeHC2SH2CH2FeCH3CHCH2NHCH9CH3CH2CHFeSH5CHSHNCHCHCH4C2NCH3CHCHFeS2FeS2HSFeCHFe2SCH2CHSH2SCHCS2HSHC2HC3H3C6H14CHC6H2NHC6H4NH2CHCH6CHCHC2H2CHSH3C3H2C2H2CH2SHSH2NH4CHC2Fe2H4CH3SH2CH5CNC4H2SHCHC2H3CH2CH5SH3CH6C2H2CH4C2HFeS2FeS3CS2HFeSH2SHCHCHCFeNSHCH2SH3C2H2C2HSC2H4C6H6C6H4C6H6SCHC2H2CH3CH2FeCFeH3NHFeNCH10FeHC4HC3H7C2H6SHSC2HFeN2H2CH6C2HCHC2HCHSHC2H3C3H2FeH3CH4C2H3CHSH2CFeH3CHFeH2FeHSFeS2FeSHSFeS2FeHSHFeSHSHCH2CFeCH2FeS2FeSFeSFeHS2FeHC3H4C6H4C6H4C6H4C3HC7H4C6H4CH4SNC4H7CSH2FeCSHSH4CHSH4C3HNC5H5CHCH3CH5CNC8H20NC8H9CH2SH5C3HCH4CHFeHSH2S2HFeCSCSCH2NCH3CHCNHCH5SHSHCH4C2H3SH2C2H2CH2CHCHCNH3CH3CHSCH3SFeS2H2FeSHSHCSHCFeSCFeS2FeSFeHS2C2HCSCHFeS2CSHSFeSC5H3CHC6H5C6H6C2HCH3C6H4C6H5CH4CH3CH8CHCH6CH5SC2NSH2CH6CH3NC3HCH4CH5FeHCHCH7CNC7H19FeHC2H2CHSH3CHCHC3H3CH2CNHSH3C3H2CNSNFeCHSHSC2H2CHCH3CH2CH2SHC2HCH2CH2CH2CH2CSH5FeCHNFeCHFeCHC2H3CH3CHSHFeSH3CH2CH3CH2CH6CH7SCN2SH2C2SCH4SHFeSH2SHSC2H2FeS2FeS2HC5H3CHC6H6NCHSH5C6H4C6H4CH10C2HC2SHFe2CHCHC2HSC2SCHNHSH3FeH5C3H4NHCH3CHCHCNHFeHCH2CH2CH7CH2CH8CH3CHSC2HCH3CHCH2CHCH4SH2Fe2CH2NHC2HC2H4SH4SFe2S2FeSCSCSNSH3FeHSHSH3SH3C2HCHCHC2HCSCHFeHC6H6SHC7H4C6H9C2H12C2H3CHC2H2CH2CH4CSCHSCH3CHNCHSH6CHCH3SH2CH2FeSHC2FeH2C3H4C3H2CHNCH
_chemical_formula_sum              "Fe192 H2304 S384 C1344 N96"
_cell_length_a       112.62
_cell_length_b       32.8071
_cell_length_c       57.5977
_cell_angle_alpha    87.1612
_cell_angle_beta     87.0581
_cell_angle_gamma    87.8256

_space_group_name_H-M_alt    "P 1"
_space_group_IT_number       1

loop_
  _space_group_symop_operation_xyz
  'x, y, z'

loop_
  _atom_site_type_symbol
  _atom_site_label
  _atom_site_symmetry_multiplicity
  _atom_site_fract_x
  _atom_site_fract_y
  _atom_site_fract_z
  _atom_site_occupancy
  Fe  Fe1       1.0  0.21709  0.26493  0.10216  1.0000
  H   H1        1.0  0.98688  0.04328  0.19636  1.0000
  S   S1        1.0  0.20144  0.31063  0.09603  1.0000
  C   C1        1.0  0.20818  0.45673  0.00919  1.0000
  S   S2        1.0  0.21546  0.15814  0.16983  1.0000
  S   S3        1.0  0.21594  0.19639  0.10202  1.0000
  S   S4        1.0  0.02592  0.04498  0.17137  1.0000
  S   S5        1.0  0.22299  0.26391  0.13905  1.0000
  C   C2        1.0  0.16411  0.99640  0.37563  1.0000
  H   H2        1.0  0.18649  0.04116  0.32353  1.0000
  S   S6        1.0  0.98866  0.29299  0.08963  1.0000
  Fe  Fe2       1.0  0.16403  0.01193  0.21685  1.0000
  S   S7        1.0  0.99462  0.28644  0.14515  1.0000
  S   S8        1.0  0.99525  0.18001  0.11298  1.0000
  Fe  Fe3       1.0  0.99452  0.33532  0.11611  1.0000
  S   S9        1.0  0.01125  0.37301  0.11176  1.0000
  H   H3        1.0  0.13388  0.01291  0.37601  1.0000
  Fe  Fe4       1.0  0.98776  0.24508  0.11948  1.0000
  H   H4        1.0  0.12582  0.03091  0.41658  1.0000
  H   H5        1.0  0.21067  0.42532  0.01564  1.0000
  H   H6        1.0  0.19990  0.01543  0.33248  1.0000
  H   H7        1.0  0.18124  0.45892  0.07764  1.0000
  S   S10       1.0  0.16728  0.06197  0.18826  1.0000
  H   H8        1.0  0.03613  0.47989  0.07400  1.0000
  H   H9        1.0  0.16465  0.01776  0.38923  1.0000
  H   H10       1.0  0.13142  0.01785  0.44467  1.0000
  H   H11       1.0  0.13103  0.01338  0.12003  1.0000
  C   C3        1.0  0.00689  0.00323  0.22895  1.0000
  H   H12       1.0  0.19991  0.43720  0.07854  1.0000
  C   C4        1.0  0.14603  0.04104  0.13403  1.0000
  C   C5        1.0  0.16208  0.01086  0.35256  1.0000
  H   H13       1.0  0.13262  0.07975  0.17378  1.0000
  H   H14       1.0  0.22474  0.44106  0.05410  1.0000
  C   C6        1.0  0.01396  0.41435  0.09131  1.0000
  C   C7        1.0  0.00536  0.42920  0.07608  1.0000
  H   H15       1.0  0.22010  0.43998  0.08476  1.0000
  H   H16       1.0  0.19902  0.45754  0.00299  1.0000
  S   S11       1.0  0.14767  0.00841  0.24131  1.0000
  C   C8        1.0  0.02505  0.43296  0.09047  1.0000
  H   H17       1.0  0.99680  0.41520  0.07652  1.0000
  H   H18       1.0  0.20194  0.41628  0.05139  1.0000
  H   H19       1.0  0.20080  0.33476  0.01055  1.0000
  H   H20       1.0  0.03177  0.42166  0.10217  1.0000
  Fe  Fe5       1.0  0.22281  0.19530  0.13793  1.0000
  C   C9        1.0  0.01713  0.08136  0.15485  1.0000
  C   C10       1.0  0.01278  0.11721  0.16539  1.0000
  C   C11       1.0  0.00591  0.14729  0.15312  1.0000
  C   C12       1.0  0.00330  0.14208  0.12997  1.0000
  C   C13       1.0  0.00757  0.10606  0.11948  1.0000
  C   C14       1.0  0.01442  0.07593  0.13178  1.0000
  H   H21       1.0  0.01478  0.12181  0.18323  1.0000
  H   H22       1.0  0.00266  0.17451  0.16159  1.0000
  H   H23       1.0  0.00564  0.10156  0.10159  1.0000
  H   H24       1.0  0.01768  0.04869  0.12333  1.0000
  C   C15       1.0  0.19575  0.33158  0.06951  1.0000
  C   C16       1.0  0.20116  0.32330  0.04777  1.0000
  C   C17       1.0  0.19653  0.34147  0.02726  1.0000
  C   C18       1.0  0.18649  0.36841  0.02813  1.0000
  C   C19       1.0  0.18100  0.37646  0.04988  1.0000
  C   C20       1.0  0.18561  0.35813  0.07042  1.0000
  H   H25       1.0  0.20893  0.30289  0.04673  1.0000
  C   C21       1.0  0.01893  0.48082  0.05931  1.0000
  H   H26       1.0  0.17320  0.39669  0.05084  1.0000
  H   H27       1.0  0.18131  0.36467  0.08711  1.0000
  C   C22       1.0  0.18134  0.08454  0.18264  1.0000
  C   C23       1.0  0.18916  0.08880  0.20040  1.0000
  C   C24       1.0  0.19965  0.11063  0.19597  1.0000
  C   C25       1.0  0.20258  0.12812  0.17371  1.0000
  C   C26       1.0  0.19497  0.12270  0.15571  1.0000
  C   C27       1.0  0.18435  0.10137  0.16023  1.0000
  H   H28       1.0  0.18695  0.07627  0.21774  1.0000
  H   H29       1.0  0.20548  0.11450  0.21001  1.0000
  H   H30       1.0  0.19717  0.13547  0.13842  1.0000
  H   H31       1.0  0.17842  0.09800  0.14633  1.0000
  N   N1        1.0  0.02977  0.23502  0.11031  1.0000
  C   C28       1.0  0.02958  0.19247  0.10139  1.0000
  C   C29       1.0  0.02054  0.26065  0.09760  1.0000
  C   C30       1.0  0.02612  0.23246  0.13590  1.0000
  C   C31       1.0  0.04219  0.25063  0.10626  1.0000
  C   C32       1.0  0.03714  0.15904  0.11420  1.0000
  C   C33       1.0  0.02231  0.26351  0.07085  1.0000
  C   C34       1.0  0.02619  0.27237  0.14888  1.0000
  C   C35       1.0  0.04346  0.29762  0.10470  1.0000
  H   H32       1.0  0.02033  0.18165  0.10178  1.0000
  H   H33       1.0  0.03276  0.19228  0.08278  1.0000
  H   H34       1.0  0.01977  0.29223  0.10341  1.0000
  H   H35       1.0  0.01153  0.24851  0.10174  1.0000
  H   H36       1.0  0.01702  0.22026  0.13852  1.0000
  H   H37       1.0  0.03208  0.21092  0.14571  1.0000
  H   H38       1.0  0.04802  0.23776  0.12007  1.0000
  H   H39       1.0  0.04626  0.23959  0.08956  1.0000
  H   H40       1.0  0.03771  0.13124  0.10387  1.0000
  H   H41       1.0  0.04634  0.16841  0.11643  1.0000
  H   H42       1.0  0.03286  0.14957  0.13132  1.0000
  H   H43       1.0  0.01640  0.28855  0.06381  1.0000
  H   H44       1.0  0.03156  0.27038  0.06493  1.0000
  H   H45       1.0  0.01969  0.23498  0.06319  1.0000
  H   H46       1.0  0.02063  0.29731  0.14094  1.0000
  H   H47       1.0  0.03539  0.28249  0.15045  1.0000
  H   H48       1.0  0.02241  0.26663  0.16689  1.0000
  H   H49       1.0  0.05181  0.30504  0.11279  1.0000
  H   H50       1.0  0.03625  0.31564  0.11356  1.0000
  H   H51       1.0  0.04454  0.30907  0.08626  1.0000
  H   H52       1.0  0.21939  0.39575  0.06759  1.0000
  Fe  Fe6       1.0  0.17155  0.00777  0.48934  1.0000
  H   H53       1.0  0.11291  0.99641  0.17963  1.0000
  H   H54       1.0  0.23065  0.00401  0.06453  1.0000
  H   H55       1.0  0.16110  0.04339  0.34870  1.0000
  C   C36       1.0  0.21811  0.42957  0.06738  1.0000
  S   S12       1.0  0.15746  0.00960  0.46248  1.0000
  H   H56       1.0  0.01425  0.02496  0.22851  1.0000
  H   H57       1.0  0.20630  0.99658  0.26872  1.0000
  N   N2        1.0  0.17752  0.23254  0.15751  1.0000
  C   C37       1.0  0.17461  0.20528  0.17885  1.0000
  C   C38       1.0  0.19066  0.24028  0.15703  1.0000
  C   C39       1.0  0.17455  0.21047  0.13618  1.0000
  C   C40       1.0  0.17008  0.27154  0.15956  1.0000
  C   C41       1.0  0.16218  0.18650  0.18040  1.0000
  C   C42       1.0  0.19520  0.25846  0.17901  1.0000
  C   C43       1.0  0.18186  0.22037  0.11331  1.0000
  C   C44       1.0  0.17214  0.30504  0.14025  1.0000
  H   H58       1.0  0.18124  0.17941  0.18031  1.0000
  H   H59       1.0  0.17519  0.22205  0.19506  1.0000
  H   H60       1.0  0.19347  0.26087  0.14204  1.0000
  H   H61       1.0  0.19588  0.21127  0.15436  1.0000
  H   H62       1.0  0.17598  0.17690  0.13912  1.0000
  H   H63       1.0  0.16496  0.21521  0.13259  1.0000
  H   H64       1.0  0.16045  0.26526  0.15979  1.0000
  H   H65       1.0  0.17142  0.28541  0.17642  1.0000
  H   H66       1.0  0.16104  0.16520  0.16638  1.0000
  H   H67       1.0  0.16122  0.16791  0.19703  1.0000
  H   H68       1.0  0.15488  0.21005  0.18055  1.0000
  H   H69       1.0  0.19455  0.23667  0.19434  1.0000
  H   H70       1.0  0.20481  0.26436  0.17610  1.0000
  H   H71       1.0  0.19067  0.28805  0.18292  1.0000
  H   H72       1.0  0.18251  0.25331  0.10882  1.0000
  H   H73       1.0  0.17769  0.20649  0.09866  1.0000
  H   H74       1.0  0.19098  0.20664  0.11412  1.0000
  H   H75       1.0  0.18149  0.31470  0.13861  1.0000
  H   H76       1.0  0.16659  0.33258  0.14460  1.0000
  H   H77       1.0  0.16929  0.29560  0.12327  1.0000
  C   C45       1.0  0.20514  0.44089  0.06172  1.0000
  H   H78       1.0  0.14799  0.06359  0.14692  1.0000
  C   C46       1.0  0.13542  0.01267  0.17877  1.0000
  C   C47       1.0  0.13284  0.02903  0.13614  1.0000
  H   H79       1.0  0.99262  0.01450  0.15975  1.0000
  S   S13       1.0  0.15957  0.00435  0.30537  1.0000
  H   H80       1.0  0.11392  0.04515  0.16517  1.0000
  H   H81       1.0  0.99880  0.01949  0.23604  1.0000
  C   C48       1.0  0.13286  0.05570  0.18796  1.0000
  H   H82       1.0  0.13997  0.06304  0.19962  1.0000
  H   H83       1.0  0.14521  0.00893  0.17586  1.0000
  C   C49       1.0  0.02755  0.46599  0.07453  1.0000
  C   C50       1.0  0.00785  0.46219  0.06018  1.0000
  H   H84       1.0  0.18717  0.45883  0.03484  1.0000
  C   C51       1.0  0.00544  0.98988  0.20400  1.0000
  H   H85       1.0  0.19973  0.04627  0.30545  1.0000
  H   H86       1.0  0.12432  0.05677  0.19848  1.0000
  H   H87       1.0  0.13317  0.99044  0.19342  1.0000
  H   H88       1.0  0.12755  0.05840  0.13492  1.0000
  H   H89       1.0  0.14793  0.05586  0.11654  1.0000
  H   H90       1.0  0.18691  0.99949  0.28785  1.0000
  C   C52       1.0  0.13358  0.01774  0.42565  1.0000
  H   H91       1.0  0.15238  0.01473  0.13591  1.0000
  S   S14       1.0  0.18136  0.39129  0.00159  1.0000
  H   H92       1.0  0.14090  0.03897  0.42121  1.0000
  H   H93       1.0  0.09826  0.01337  0.14867  1.0000
  H   H94       1.0  0.21459  0.00182  0.29381  1.0000
  H   H95       1.0  0.11009  0.01025  0.12668  1.0000
  N   N3        1.0  0.12892  0.00337  0.15749  1.0000
  H   H96       1.0  0.00114  0.47339  0.04844  1.0000
  C   C53       1.0  0.99780  0.98575  0.15695  1.0000
  S   S15       1.0  0.17639  0.98900  0.24427  1.0000
  C   C54       1.0  0.19470  0.02443  0.31714  1.0000
  H   H97       1.0  0.98933  0.03194  0.49025  1.0000
  H   H98       1.0  0.00462  0.01848  0.19311  1.0000
  H   H99       1.0  0.00743  0.99201  0.15597  1.0000
  S   S16       1.0  0.15716  0.48224  0.01864  1.0000
  H   H100      1.0  0.09419  0.00196  0.22626  1.0000
  C   C55       1.0  0.11581  0.01201  0.16286  1.0000
  C   C56       1.0  0.10725  0.99954  0.14459  1.0000
  N   N4        1.0  0.20263  0.48239  0.05025  1.0000
  H   H101      1.0  0.11484  0.99228  0.39747  1.0000
  H   H102      1.0  0.09881  0.47317  0.99727  1.0000
  H   H103      1.0  0.12321  0.99743  0.35671  1.0000
  H   H104      1.0  0.23444  0.00338  0.09469  1.0000
  C   C57       1.0  0.19109  0.98736  0.30398  1.0000
  H   H105      1.0  0.23263  0.48388  0.16670  1.0000
  C   C58       1.0  0.12900  0.98626  0.37089  1.0000
  Fe  Fe7       1.0  0.21777  0.25566  0.62214  1.0000
  S   S17       1.0  0.21664  0.24783  0.58363  1.0000
  S   S18       1.0  0.20180  0.29636  0.63456  1.0000
  Fe  Fe8       1.0  0.22018  0.18088  0.59105  1.0000
  S   S19       1.0  0.20997  0.12517  0.58118  1.0000
  S   S20       1.0  0.22037  0.18768  0.62987  1.0000
  C   C59       1.0  0.05759  0.38855  0.73260  1.0000
  H   H106      1.0  0.18419  0.13814  0.58845  1.0000
  H   H107      1.0  0.08188  0.43464  0.72623  1.0000
  S   S21       1.0  0.15556  0.45047  0.96589  1.0000
  Fe  Fe9       1.0  0.17035  0.43609  0.73382  1.0000
  H   H108      1.0  0.19060  0.16427  0.62125  1.0000
  S   S22       1.0  0.18420  0.38415  0.72784  1.0000
  C   C60       1.0  0.02855  0.98638  0.59438  1.0000
  H   H109      1.0  0.08458  0.05437  0.52868  1.0000
  H   H110      1.0  0.18294  0.20237  0.55154  1.0000
  C   C61       1.0  0.00344  0.99250  0.52363  1.0000
  S   S23       1.0  0.15197  0.43314  0.75125  1.0000
  H   H111      1.0  0.00456  0.24564  0.55205  1.0000
  Fe  Fe10      1.0  0.99868  0.12856  0.62759  1.0000
  S   S24       1.0  0.00018  0.17247  0.59657  1.0000
  S   S25       1.0  0.00997  0.07019  0.63296  1.0000
  Fe  Fe11      1.0  0.99500  0.22184  0.62170  1.0000
  S   S26       1.0  0.00158  0.28774  0.61594  1.0000
  H   H112      1.0  0.06919  0.99179  0.60060  1.0000
  H   H113      1.0  0.19448  0.26314  0.55499  1.0000
  C   C62       1.0  0.07378  0.40437  0.65863  1.0000
  H   H114      1.0  0.99333  0.32880  0.56972  1.0000
  H   H115      1.0  0.17136  0.09866  0.56744  1.0000
  S   S27       1.0  0.03756  0.40031  0.66565  1.0000
  C   C63       1.0  0.01900  0.04772  0.61064  1.0000
  C   C64       1.0  0.02446  0.07146  0.59260  1.0000
  C   C65       1.0  0.03215  0.05284  0.57588  1.0000
  H   H116      1.0  0.10079  0.41757  0.70592  1.0000
  C   C66       1.0  0.18906  0.19787  0.62046  1.0000
  C   C67       1.0  0.15780  0.48224  0.84201  1.0000
  H   H117      1.0  0.02305  0.10429  0.59201  1.0000
  H   H118      1.0  0.03655  0.07158  0.56231  1.0000
  H   H119      1.0  0.13602  0.45017  0.91583  1.0000
  C   C68       1.0  0.09689  0.39428  0.71839  1.0000
  C   C69       1.0  0.01125  0.31866  0.63094  1.0000
  C   C70       1.0  0.01894  0.30236  0.64765  1.0000
  C   C71       1.0  0.02681  0.32783  0.65811  1.0000
  C   C72       1.0  0.02702  0.37014  0.65240  1.0000
  C   C73       1.0  0.01920  0.38655  0.63594  1.0000
  C   C74       1.0  0.01147  0.36096  0.62520  1.0000
  H   H120      1.0  0.01897  0.27000  0.65228  1.0000
  H   H121      1.0  0.03279  0.31459  0.67075  1.0000
  H   H122      1.0  0.01923  0.41887  0.63123  1.0000
  H   H123      1.0  0.00561  0.37411  0.61232  1.0000
  H   H124      1.0  0.16966  0.34688  0.84457  1.0000
  H   H125      1.0  0.08957  0.40539  0.67680  1.0000
  Fe  Fe12      1.0  0.15773  0.47962  0.77591  1.0000
  C   C75       1.0  0.18269  0.46088  0.64774  1.0000
  H   H126      1.0  0.19608  0.34044  0.76501  1.0000
  H   H127      1.0  0.00840  0.01866  0.56855  1.0000
  H   H128      1.0  0.16000  0.13788  0.56578  1.0000
  H   H129      1.0  0.18942  0.45314  0.69214  1.0000
  C   C76       1.0  0.00968  0.06161  0.52941  1.0000
  C   C77       1.0  0.06622  0.32472  0.68959  1.0000
  H   H130      1.0  0.06073  0.34507  0.67827  1.0000
  H   H131      1.0  0.06990  0.29997  0.67854  1.0000
  C   C78       1.0  0.18686  0.25747  0.56761  1.0000
  H   H132      1.0  0.07729  0.42501  0.64421  1.0000
  H   H133      1.0  0.17811  0.33879  0.77980  1.0000
  C   C79       1.0  0.20240  0.10920  0.55680  1.0000
  C   C80       1.0  0.20074  0.13444  0.53683  1.0000
  C   C81       1.0  0.19405  0.12110  0.51868  1.0000
  C   C82       1.0  0.18901  0.08229  0.52006  1.0000
  C   C83       1.0  0.19083  0.05685  0.53990  1.0000
  C   C84       1.0  0.19743  0.07031  0.55813  1.0000
  H   H134      1.0  0.20454  0.16429  0.53537  1.0000
  C   C85       1.0  0.00747  0.10571  0.53720  1.0000
  H   H135      1.0  0.18704  0.02696  0.54130  1.0000
  H   H136      1.0  0.19863  0.05042  0.57344  1.0000
  C   C86       1.0  0.19727  0.32084  0.66069  1.0000
  C   C87       1.0  0.20390  0.31748  0.68063  1.0000
  C   C88       1.0  0.19978  0.33713  0.70096  1.0000
  C   C89       1.0  0.18906  0.36070  0.70158  1.0000
  C   C90       1.0  0.18248  0.36439  0.68158  1.0000
  C   C91       1.0  0.18656  0.34448  0.66133  1.0000
  H   H137      1.0  0.21214  0.29940  0.68047  1.0000
  H   H138      1.0  0.20493  0.33390  0.71632  1.0000
  H   H139      1.0  0.17417  0.38204  0.68182  1.0000
  H   H140      1.0  0.18132  0.34724  0.64606  1.0000
  H   H141      1.0  0.09921  0.36320  0.71253  1.0000
  C   C92       1.0  0.15214  0.20373  0.59416  1.0000
  S   S28       1.0  0.99487  0.17822  0.65333  1.0000
  H   H142      1.0  0.15014  0.22595  0.60790  1.0000
  H   H143      1.0  0.17004  0.19878  0.62340  1.0000
  H   H144      1.0  0.10125  0.39769  0.73503  1.0000
  H   H145      1.0  0.14965  0.43252  0.86203  1.0000
  H   H146      1.0  0.19276  0.14103  0.50342  1.0000
  N   N5        1.0  0.18429  0.37488  0.80716  1.0000
  H   H147      1.0  0.99377  0.08307  0.49603  1.0000
  C   C93       1.0  0.99197  0.05081  0.57719  1.0000
  H   H148      1.0  0.06655  0.04456  0.60502  1.0000
  C   C94       1.0  0.18704  0.33885  0.82359  1.0000
  Fe  Fe13      1.0  0.04034  0.46939  0.66860  1.0000
  H   H149      1.0  0.21515  0.43209  0.67463  1.0000
  H   H150      1.0  0.15846  0.37694  0.81183  1.0000
  H   H151      1.0  0.17174  0.40803  0.83003  1.0000
  C   C95       1.0  0.03418  0.01025  0.57661  1.0000
  C   C96       1.0  0.22876  0.06586  0.61575  1.0000
  H   H152      1.0  0.16323  0.32324  0.81086  1.0000
  H   H153      1.0  0.15676  0.34940  0.78657  1.0000
  H   H154      1.0  0.01222  0.12701  0.52468  1.0000
  H   H155      1.0  0.19616  0.34124  0.82996  1.0000
  H   H156      1.0  0.06314  0.04156  0.52708  1.0000
  C   C97       1.0  0.19545  0.38542  0.79274  1.0000
  H   H157      1.0  0.17020  0.13859  0.60319  1.0000
  H   H158      1.0  0.00468  0.99831  0.50449  1.0000
  C   C98       1.0  0.06980  0.01877  0.52030  1.0000
  H   H159      1.0  0.21784  0.06568  0.64862  1.0000
  H   H160      1.0  0.18289  0.34479  0.86110  1.0000
  H   H161      1.0  0.20961  0.06660  0.62305  1.0000
  H   H162      1.0  0.99318  0.04121  0.59573  1.0000
  H   H163      1.0  0.20685  0.43685  0.62430  1.0000
  H   H164      1.0  0.12940  0.45010  0.94477  1.0000
  C   C99       1.0  0.16276  0.35309  0.80100  1.0000
  C   C100      1.0  0.02113  0.00516  0.61151  1.0000
  H   H165      1.0  0.01819  0.05088  0.53704  1.0000
  H   H166      1.0  0.99572  0.24544  0.52674  1.0000
  H   H167      1.0  0.09648  0.00658  0.58172  1.0000
  H   H168      1.0  0.18621  0.43027  0.64295  1.0000
  H   H169      1.0  0.15297  0.17287  0.60268  1.0000
  H   H170      1.0  0.19361  0.41147  0.78006  1.0000
  C   C101      1.0  0.18896  0.42913  0.83626  1.0000
  C   C102      1.0  0.98881  0.33180  0.55289  1.0000
  H   H171      1.0  0.21683  0.01966  0.63252  1.0000
  C   C103      1.0  0.20790  0.43888  0.66247  1.0000
  C   C104      1.0  0.16976  0.13231  0.56615  1.0000
  C   C105      1.0  0.17695  0.21096  0.61067  1.0000
  H   H172      1.0  0.20145  0.41440  0.66638  1.0000
  C   C106      1.0  0.07296  0.02231  0.59682  1.0000
  C   C107      1.0  0.21343  0.43229  0.63792  1.0000
  H   H173      1.0  0.17591  0.24477  0.61146  1.0000
  C   C108      1.0  0.15468  0.45982  0.86282  1.0000
  H   H174      1.0  0.08082  0.38469  0.73896  1.0000
  H   H175      1.0  0.18410  0.45076  0.84795  1.0000
  H   H176      1.0  0.17797  0.43803  0.80687  1.0000
  H   H177      1.0  0.06031  0.30945  0.70311  1.0000
  H   H178      1.0  0.17768  0.30004  0.84977  1.0000
  H   H179      1.0  0.05859  0.35488  0.73446  1.0000
  H   H180      1.0  0.16185  0.21024  0.56043  1.0000
  H   H181      1.0  0.04790  0.39662  0.73338  1.0000
  C   C109      1.0  0.16329  0.21599  0.57898  1.0000
  C   C110      1.0  0.18015  0.41261  0.81965  1.0000
  N   N6        1.0  0.00011  0.03150  0.53571  1.0000
  H   H182      1.0  0.07730  0.32925  0.71838  1.0000
  C   C111      1.0  0.10532  0.99248  0.54906  1.0000
  H   H183      1.0  0.00430  0.30836  0.53141  1.0000
  H   H184      1.0  0.17356  0.39110  0.77774  1.0000
  S   S29       1.0  0.12416  0.48186  0.99339  1.0000
  H   H185      1.0  0.14439  0.20307  0.58301  1.0000
  H   H186      1.0  0.07602  0.06568  0.56794  1.0000
  H   H187      1.0  0.06480  0.03014  0.56465  1.0000
  N   N7        1.0  0.08274  0.00701  0.55625  1.0000
  H   H188      1.0  0.06406  0.41062  0.66010  1.0000
  H   H189      1.0  0.18929  0.26931  0.58437  1.0000
  C   C112      1.0  0.17498  0.15127  0.58723  1.0000
  H   H190      1.0  0.00470  0.36043  0.53812  1.0000
  H   H191      1.0  0.17673  0.47210  0.63384  1.0000
  H   H192      1.0  0.06137  0.40248  0.74763  1.0000
  H   H193      1.0  0.20242  0.39574  0.80387  1.0000
  H   H194      1.0  0.08500  0.33629  0.69086  1.0000
  H   H195      1.0  0.07936  0.44653  0.68306  1.0000
  H   H196      1.0  0.06298  0.43978  0.71044  1.0000
  H   H197      1.0  0.22114  0.45177  0.63392  1.0000
  H   H198      1.0  0.99519  0.20405  0.54714  1.0000
  H   H199      1.0  0.16334  0.24986  0.57919  1.0000
  C   C113      1.0  0.20157  0.35055  0.77891  1.0000
  H   H200      1.0  0.18934  0.20830  0.63848  1.0000
  H   H201      1.0  0.01702  0.98665  0.62554  1.0000
  S   S30       1.0  0.17633  0.47831  0.76010  1.0000
  C   C114      1.0  0.17873  0.33322  0.84574  1.0000
  H   H202      1.0  0.19337  0.19540  0.57327  1.0000
  H   H203      1.0  0.20984  0.36204  0.76993  1.0000
  H   H204      1.0  0.17916  0.27543  0.56076  1.0000
  H   H205      1.0  0.05691  0.40077  0.69579  1.0000
  C   C115      1.0  0.17505  0.36487  0.79042  1.0000
  C   C116      1.0  0.07398  0.03271  0.57046  1.0000
  H   H206      1.0  0.21681  0.40005  0.63717  1.0000
  H   H207      1.0  0.18717  0.30995  0.81417  1.0000
  N   N8        1.0  0.07565  0.39058  0.70308  1.0000
  C   C117      1.0  0.08334  0.40185  0.72241  1.0000
  C   C118      1.0  0.06317  0.40599  0.70937  1.0000
  C   C119      1.0  0.08003  0.41293  0.68094  1.0000
  C   C120      1.0  0.07662  0.34488  0.70085  1.0000
  C   C121      1.0  0.19584  0.47812  0.69045  1.0000
  H   H208      1.0  0.20421  0.32395  0.79035  1.0000
  H   H209      1.0  0.19647  0.21246  0.61029  1.0000
  H   H210      1.0  0.07574  0.37272  0.65328  1.0000
  H   H211      1.0  0.21413  0.46387  0.99367  1.0000
  N   N9        1.0  0.17497  0.19736  0.58659  1.0000
  H   H212      1.0  0.20821  0.43943  0.71132  1.0000
  H   H213      1.0  0.01200  0.06303  0.51036  1.0000
  H   H214      1.0  0.17403  0.14343  0.54940  1.0000
  C   C122      1.0  0.18473  0.21119  0.56940  1.0000
  H   H215      1.0  0.02297  0.98787  0.52621  1.0000
  H   H216      1.0  0.19314  0.40479  0.84742  1.0000
  C   C123      1.0  0.20398  0.47052  0.71112  1.0000
  H   H217      1.0  0.99500  0.34678  0.51658  1.0000
  C   C124      1.0  0.99584  0.23780  0.54558  1.0000
  C   C125      1.0  0.99868  0.33635  0.53346  1.0000
  H   H218      1.0  0.01090  0.10917  0.55470  1.0000
  C   C126      1.0  0.09519  0.01465  0.56314  1.0000
  C   C127      1.0  0.08198  0.02191  0.53110  1.0000
  S   S31       1.0  0.15309  0.46511  0.81499  1.0000
  H   H219      1.0  0.15568  0.45438  0.90039  1.0000
  H   H220      1.0  0.12830  0.47866  0.88216  1.0000
  H   H221      1.0  0.19596  0.44680  0.82646  1.0000
  H   H222      1.0  0.09692  0.04794  0.56137  1.0000
  C   C128      1.0  0.99936  0.02130  0.56163  1.0000
  H   H223      1.0  0.11371  0.99317  0.55835  1.0000
  C   C129      1.0  0.15799  0.47231  0.88468  1.0000
  C   C130      1.0  0.21773  0.05323  0.63107  1.0000
  H   H224      1.0  0.98904  0.26074  0.57776  1.0000
  H   H225      1.0  0.08148  0.02471  0.60534  1.0000
  H   H226      1.0  0.06626  0.98772  0.52277  1.0000
  Fe  Fe14      1.0  0.16915  0.44738  0.99369  1.0000
  H   H227      1.0  0.99808  0.11656  0.53724  1.0000
  H   H228      1.0  0.17701  0.45832  0.66397  1.0000
  H   H229      1.0  0.99478  0.08268  0.57497  1.0000
  H   H230      1.0  0.07085  0.02547  0.50123  1.0000
  C   C131      1.0  0.98761  0.05835  0.50137  1.0000
  H   H231      1.0  0.12042  0.46160  0.92110  1.0000
  S   S32       1.0  0.04395  0.98861  0.55515  1.0000
  H   H232      1.0  0.08836  0.00435  0.51978  1.0000
  H   H233      1.0  0.22641  0.06166  0.59750  1.0000
  C   C132      1.0  0.98809  0.04619  0.52755  1.0000
  H   H234      1.0  0.10707  0.00822  0.53177  1.0000
  C   C133      1.0  0.12935  0.46613  0.92730  1.0000
  H   H235      1.0  0.22964  0.09942  0.61714  1.0000
  H   H236      1.0  0.99545  0.99083  0.56544  1.0000
  H   H237      1.0  0.19842  0.47233  0.72755  1.0000
  N   N10       1.0  0.20202  0.48018  0.66654  1.0000
  H   H238      1.0  0.23305  0.99516  0.60162  1.0000
  S   S33       1.0  0.18013  0.06813  0.49706  1.0000
  C   C134      1.0  0.98554  0.25757  0.56031  1.0000
  H   H239      1.0  0.23468  0.41321  0.54790  1.0000
  H   H240      1.0  0.11547  0.94557  0.38379  1.0000
  H   H241      1.0  0.18143  0.51444  0.07597  1.0000
  Fe  Fe15      1.0  0.04619  0.90317  0.14716  1.0000
  S   S34       1.0  0.05371  0.87754  0.18056  1.0000
  S   S35       1.0  0.04870  0.87227  0.11210  1.0000
  Fe  Fe16      1.0  0.03582  0.89692  0.19687  1.0000
  S   S36       1.0  0.02543  0.84985  0.21952  1.0000
  Fe  Fe17      1.0  0.05932  0.94166  0.18605  1.0000
  C   C135      1.0  0.99500  0.95153  0.17558  1.0000
  S   S37       1.0  0.02805  0.91990  0.16313  1.0000
  C   C136      1.0  0.14330  0.94218  0.14772  1.0000
  H   H242      1.0  0.14282  0.85169  0.41354  1.0000
  H   H243      1.0  0.03573  0.54969  0.11670  1.0000
  S   S38       1.0  0.17012  0.58521  0.02825  1.0000
  Fe  Fe18      1.0  0.04147  0.65520  0.05152  1.0000
  S   S39       1.0  0.05269  0.67020  0.01915  1.0000
  S   S40       1.0  0.03861  0.68939  0.08540  1.0000
  Fe  Fe19      1.0  0.03542  0.57132  0.03383  1.0000
  C   C137      1.0  0.10369  0.95247  0.49344  1.0000
  S   S41       1.0  0.02132  0.52278  0.03915  1.0000
  Fe  Fe20      1.0  0.06043  0.60579  0.02300  1.0000
  C   C138      1.0  0.98967  0.88727  0.21191  1.0000
  H   H244      1.0  0.99277  0.86045  0.22283  1.0000
  S   S42       1.0  0.04964  0.59165  0.05638  1.0000
  S   S43       1.0  0.02651  0.63391  0.03116  1.0000
  Fe  Fe21      1.0  0.22256  0.68504  0.08916  1.0000
  S   S44       1.0  0.21261  0.68219  0.12399  1.0000
  S   S45       1.0  0.21996  0.64756  0.05749  1.0000
  Fe  Fe22      1.0  0.21444  0.75049  0.12345  1.0000
  S   S46       1.0  0.19855  0.79275  0.13221  1.0000
  S   S47       1.0  0.22300  0.75376  0.08713  1.0000
  C   C139      1.0  0.20651  0.93743  0.31971  1.0000
  H   H245      1.0  0.11162  0.87509  0.19369  1.0000
  S   S48       1.0  0.15610  0.91098  0.47180  1.0000
  H   H246      1.0  0.19434  0.93757  0.26596  1.0000
  H   H247      1.0  0.00722  0.91113  0.21056  1.0000
  C   C140      1.0  0.13348  0.90821  0.40305  1.0000
  S   S49       1.0  0.23344  0.63456  0.17049  1.0000
  S   S50       1.0  0.98892  0.76623  0.35025  1.0000
  S   S51       1.0  0.04187  0.95880  0.20489  1.0000
  H   H248      1.0  0.06242  0.64025  0.08731  1.0000
  S   S52       1.0  0.15752  0.91581  0.25804  1.0000
  C   C141      1.0  0.99799  0.92280  0.21490  1.0000
  Fe  Fe23      1.0  0.17305  0.92626  0.23238  1.0000
  S   S53       1.0  0.18884  0.88146  0.22763  1.0000
  C   C142      1.0  0.01849  0.84532  0.46266  1.0000
  C   C143      1.0  0.01154  0.86521  0.44557  1.0000
  C   C144      1.0  0.00459  0.84292  0.43132  1.0000
  C   C145      1.0  0.00459  0.80034  0.43382  1.0000
  C   C146      1.0  0.01147  0.78042  0.45098  1.0000
  C   C147      1.0  0.01838  0.80272  0.46535  1.0000
  H   H249      1.0  0.01154  0.89816  0.44335  1.0000
  H   H250      1.0  0.99928  0.85866  0.41836  1.0000
  H   H251      1.0  0.01148  0.74746  0.45318  1.0000
  Fe  Fe24      1.0  0.03542  0.98121  0.16981  1.0000
  H   H252      1.0  0.14645  0.95221  0.12986  1.0000
  H   H253      1.0  0.21797  0.55325  0.08070  1.0000
  C   C148      1.0  0.19804  0.92725  0.34113  1.0000
  H   H254      1.0  0.12542  0.94995  0.13836  1.0000
  H   H255      1.0  0.99527  0.64601  0.08685  1.0000
  C   C149      1.0  0.19659  0.82038  0.15791  1.0000
  C   C150      1.0  0.20532  0.82037  0.17435  1.0000
  C   C151      1.0  0.20296  0.83996  0.19545  1.0000
  C   C152      1.0  0.19190  0.85999  0.20020  1.0000
  C   C153      1.0  0.18327  0.86060  0.18355  1.0000
  C   C154      1.0  0.18561  0.84088  0.16256  1.0000
  H   H256      1.0  0.21384  0.80492  0.17093  1.0000
  H   H257      1.0  0.20970  0.83934  0.20820  1.0000
  H   H258      1.0  0.17469  0.87550  0.18702  1.0000
  H   H259      1.0  0.17879  0.84100  0.14998  1.0000
  C   C155      1.0  0.18406  0.60304  0.03557  1.0000
  C   C156      1.0  0.18466  0.62436  0.05605  1.0000
  C   C157      1.0  0.19555  0.63855  0.06286  1.0000
  C   C158      1.0  0.20597  0.63176  0.04915  1.0000
  C   C159      1.0  0.20537  0.61084  0.02850  1.0000
  C   C160      1.0  0.19447  0.59651  0.02173  1.0000
  H   H260      1.0  0.17664  0.62982  0.06676  1.0000
  H   H261      1.0  0.19587  0.65469  0.07873  1.0000
  H   H262      1.0  0.21787  0.71364  0.02073  1.0000
  C   C161      1.0  0.18061  0.48671  0.06599  1.0000
  S   S54       1.0  0.07584  0.96713  0.20165  1.0000
  H   H263      1.0  0.07365  0.62270  0.10737  1.0000
  H   H264      1.0  0.10615  0.96598  0.14544  1.0000
  S   S55       1.0  0.12692  0.97632  0.48976  1.0000
  H   H265      1.0  0.00847  0.63826  0.06794  1.0000
  H   H266      1.0  0.13545  0.96349  0.36341  1.0000
  H   H267      1.0  0.01484  0.51497  0.10329  1.0000
  C   C162      1.0  0.04548  0.82155  0.10503  1.0000
  C   C163      1.0  0.04676  0.81065  0.08164  1.0000
  C   C164      1.0  0.04460  0.77064  0.07523  1.0000
  C   C165      1.0  0.04113  0.74083  0.09219  1.0000
  C   C166      1.0  0.03980  0.75172  0.11556  1.0000
  C   C167      1.0  0.04196  0.79174  0.12196  1.0000
  H   H268      1.0  0.04944  0.83343  0.06836  1.0000
  H   H269      1.0  0.04557  0.76302  0.05716  1.0000
  H   H270      1.0  0.03712  0.72906  0.12888  1.0000
  H   H271      1.0  0.04094  0.79951  0.14001  1.0000
  C   C168      1.0  0.01723  0.85640  0.24627  1.0000
  C   C169      1.0  0.01730  0.89272  0.25795  1.0000
  C   C170      1.0  0.01017  0.89738  0.27854  1.0000
  C   C171      1.0  0.00301  0.86568  0.28780  1.0000
  C   C172      1.0  0.00312  0.82905  0.27639  1.0000
  C   C173      1.0  0.01020  0.82451  0.25570  1.0000
  H   H272      1.0  0.02281  0.91722  0.25103  1.0000
  H   H273      1.0  0.01020  0.92574  0.28736  1.0000
  H   H274      1.0  0.99769  0.80438  0.28335  1.0000
  H   H275      1.0  0.01012  0.79625  0.24679  1.0000
  C   C174      1.0  0.09081  0.95013  0.20628  1.0000
  C   C175      1.0  0.09584  0.91429  0.19719  1.0000
  C   C176      1.0  0.10785  0.90286  0.20085  1.0000
  C   C177      1.0  0.11503  0.92704  0.21357  1.0000
  S   S56       1.0  0.99595  0.77075  0.41641  1.0000
  H   H276      1.0  0.01881  0.65739  0.13245  1.0000
  H   H277      1.0  0.09048  0.89542  0.18732  1.0000
  Fe  Fe25      1.0  0.16003  0.98029  0.26824  1.0000
  H   H278      1.0  0.05992  0.64586  0.11777  1.0000
  S   S57       1.0  0.23166  0.74710  0.14143  1.0000
  H   H279      1.0  0.02377  0.61862  0.08789  1.0000
  H   H280      1.0  0.07094  0.78025  0.07061  1.0000
  H   H281      1.0  0.13311  0.87065  0.43628  1.0000
  H   H282      1.0  0.23315  0.53337  0.15385  1.0000
  H   H283      1.0  0.12688  0.88991  0.39477  1.0000
  H   H284      1.0  0.99756  0.92801  0.23387  1.0000
  N   N11       1.0  0.12789  0.94788  0.41120  1.0000
  C   C178      1.0  0.13936  0.88004  0.42169  1.0000
  H   H285      1.0  0.16217  0.92043  0.32631  1.0000
  S   S58       1.0  0.05309  0.96655  0.15133  1.0000
  N   N12       1.0  0.02569  0.82196  0.35586  1.0000
  C   C179      1.0  0.02182  0.82462  0.33112  1.0000
  C   C180      1.0  0.01549  0.83692  0.37154  1.0000
  C   C181      1.0  0.02906  0.77862  0.36353  1.0000
  C   C182      1.0  0.03639  0.84785  0.35727  1.0000
  C   C183      1.0  0.03048  0.80503  0.31288  1.0000
  C   C184      1.0  0.01199  0.88281  0.36852  1.0000
  C   C185      1.0  0.01949  0.74687  0.36125  1.0000
  C   C186      1.0  0.04078  0.85262  0.38196  1.0000
  H   H286      1.0  0.01298  0.81098  0.32986  1.0000
  H   H287      1.0  0.02048  0.85705  0.32492  1.0000
  H   H288      1.0  0.01735  0.83016  0.39013  1.0000
  H   H289      1.0  0.00731  0.82018  0.36879  1.0000
  H   H290      1.0  0.03735  0.76780  0.35402  1.0000
  H   H291      1.0  0.03113  0.77663  0.38224  1.0000
  H   H292      1.0  0.04412  0.83500  0.34689  1.0000
  H   H293      1.0  0.03466  0.87904  0.34935  1.0000
  C   C187      1.0  0.01079  0.65270  0.12256  1.0000
  H   H294      1.0  0.12325  0.56761  0.00645  1.0000
  H   H295      1.0  0.03171  0.77161  0.31614  1.0000
  H   H296      1.0  0.19839  0.95080  0.35428  1.0000
  C   C188      1.0  0.11228  0.51696  0.00120  1.0000
  H   H297      1.0  0.01912  0.90271  0.37332  1.0000
  H   H298      1.0  0.02326  0.71605  0.36615  1.0000
  H   H299      1.0  0.01652  0.74565  0.34327  1.0000
  H   H300      1.0  0.01173  0.75233  0.37347  1.0000
  H   H301      1.0  0.03400  0.86762  0.39362  1.0000
  H   H302      1.0  0.04862  0.87230  0.38067  1.0000
  H   H303      1.0  0.04368  0.82301  0.39033  1.0000
  H   H304      1.0  0.07804  0.70163  0.02201  1.0000
  C   C189      1.0  0.11940  0.94098  0.43198  1.0000
  H   H305      1.0  0.18375  0.97346  0.31456  1.0000
  C   C190      1.0  0.18520  0.90201  0.29293  1.0000
  C   C191      1.0  0.00692  0.60780  0.12569  1.0000
  H   H306      1.0  0.01407  0.97528  0.19791  1.0000
  H   H307      1.0  0.98616  0.93982  0.17196  1.0000
  H   H308      1.0  0.20739  0.51922  0.01927  1.0000
  H   H309      1.0  0.21767  0.93357  0.25907  1.0000
  C   C192      1.0  0.16491  0.92738  0.36286  1.0000
  S   S59       1.0  0.08092  0.60579  0.02186  1.0000
  H   H310      1.0  0.18273  0.88065  0.27973  1.0000
  H   H311      1.0  0.16600  0.89488  0.36671  1.0000
  N   N13       1.0  0.20094  0.95651  0.29826  1.0000
  C   C193      1.0  0.09273  0.57088  0.01327  1.0000
  C   C194      1.0  0.99907  0.51894  0.12567  1.0000
  H   H312      1.0  0.21894  0.76782  0.01644  1.0000
  H   H313      1.0  0.01238  0.66446  0.10442  1.0000
  C   C195      1.0  0.12120  0.96787  0.39137  1.0000
  C   C196      1.0  0.20485  0.51589  0.06645  1.0000
  H   H314      1.0  0.14057  0.91416  0.38923  1.0000
  S   S60       1.0  0.99419  0.87358  0.31368  1.0000
  C   C197      1.0  0.21767  0.53069  0.06697  1.0000
  H   H315      1.0  0.12693  0.93993  0.16862  1.0000
  H   H316      1.0  0.14714  0.89423  0.42845  1.0000
  H   H317      1.0  0.21336  0.60555  0.01772  1.0000
  H   H318      1.0  0.19936  0.54385  0.06192  1.0000
  H   H319      1.0  0.19408  0.58070  0.00576  1.0000
  H   H320      1.0  0.21939  0.48929  0.02995  1.0000
  H   H321      1.0  0.23406  0.72156  0.04220  1.0000
  H   H322      1.0  0.10338  0.92340  0.41490  1.0000
  H   H323      1.0  0.99317  0.57336  0.09384  1.0000
  C   C198      1.0  0.21736  0.81085  0.49340  1.0000
  C   C199      1.0  0.21036  0.97890  0.28357  1.0000
  H   H324      1.0  0.00412  0.88967  0.38024  1.0000
  N   N14       1.0  0.08016  0.69954  0.08030  1.0000
  C   C200      1.0  0.07216  0.68975  0.10161  1.0000
  C   C201      1.0  0.08552  0.74004  0.08405  1.0000
  C   C202      1.0  0.08983  0.66650  0.07903  1.0000
  C   C203      1.0  0.07278  0.70030  0.05913  1.0000
  H   H325      1.0  0.17740  0.92316  0.29546  1.0000
  C   C204      1.0  0.07658  0.77676  0.08583  1.0000
  C   C205      1.0  0.09964  0.67158  0.05957  1.0000
  C   C206      1.0  0.07779  0.72267  0.03659  1.0000
  H   H326      1.0  0.07695  0.69291  0.11786  1.0000
  H   H327      1.0  0.06442  0.71175  0.10265  1.0000
  H   H328      1.0  0.09226  0.74866  0.07026  1.0000
  H   H329      1.0  0.09055  0.73809  0.10026  1.0000
  H   H330      1.0  0.09432  0.66293  0.09585  1.0000
  H   H331      1.0  0.08601  0.63643  0.07616  1.0000
  H   H332      1.0  0.07099  0.66858  0.05462  1.0000
  H   H333      1.0  0.06380  0.71447  0.06305  1.0000
  H   H334      1.0  0.02668  0.80968  0.29548  1.0000
  H   H335      1.0  0.18867  0.92306  0.33745  1.0000
  C   C207      1.0  0.11424  0.55716  0.00667  1.0000
  H   H336      1.0  0.12424  0.92952  0.44751  1.0000
  H   H337      1.0  0.10616  0.64540  0.06120  1.0000
  H   H338      1.0  0.99354  0.51139  0.11115  1.0000
  H   H339      1.0  0.09606  0.67000  0.04210  1.0000
  S   S61       1.0  0.02708  0.87541  0.47990  1.0000
  H   H340      1.0  0.10474  0.69954  0.06075  1.0000
  H   H341      1.0  0.99450  0.62145  0.06006  1.0000
  H   H342      1.0  0.08686  0.73398  0.03718  1.0000
  C   C208      1.0  0.10999  0.96277  0.22280  1.0000
  N   N15       1.0  0.01081  0.57962  0.10654  1.0000
  C   C209      1.0  0.01109  0.53609  0.11649  1.0000
  C   C210      1.0  0.02314  0.58770  0.09629  1.0000
  C   C211      1.0  0.00218  0.58238  0.08728  1.0000
  H   H343      1.0  0.01707  0.53242  0.13129  1.0000
  C   C212      1.0  0.03322  0.58247  0.11352  1.0000
  C   C213      1.0  0.00015  0.62468  0.07509  1.0000
  C   C214      1.0  0.22363  0.73811  0.01308  1.0000
  Fe  Fe26      1.0  0.14614  0.94426  0.22980  1.0000
  C   C215      1.0  0.13755  0.97439  0.41834  1.0000
  H   H344      1.0  0.02547  0.56700  0.08183  1.0000
  H   H345      1.0  0.00501  0.56060  0.07362  1.0000
  H   H346      1.0  0.07085  0.77486  0.10208  1.0000
  S   S62       1.0  0.18169  0.95470  0.47287  1.0000
  H   H347      1.0  0.03922  0.81960  0.31157  1.0000
  C   C216      1.0  0.09798  0.97422  0.21910  1.0000
  H   H348      1.0  0.20329  0.89970  0.28037  1.0000
  H   H349      1.0  0.14334  0.90827  0.14820  1.0000
  C   C217      1.0  0.06685  0.64699  0.10331  1.0000
  H   H350      1.0  0.21744  0.84136  0.48411  1.0000
  H   H351      1.0  0.14966  0.95038  0.16054  1.0000
  H   H352      1.0  0.99572  0.97542  0.13958  1.0000
  H   H353      1.0  0.00938  0.89150  0.35063  1.0000
  C   C218      1.0  0.16279  0.94182  0.33984  1.0000
  C   C219      1.0  0.10046  0.50413  0.00153  1.0000
  H   H354      1.0  0.07174  0.74882  0.03157  1.0000
  H   H355      1.0  0.22496  0.93203  0.28656  1.0000
  Fe  Fe27      1.0  0.23066  0.67900  0.13942  1.0000
  Fe  Fe28      1.0  0.16677  0.95393  0.44787  1.0000
  H   H356      1.0  0.22759  0.97225  0.26502  1.0000
  H   H357      1.0  0.03089  0.59651  0.13030  1.0000
  H   H358      1.0  0.10623  0.61466  0.01707  1.0000
  H   H359      1.0  0.08155  0.80530  0.08634  1.0000
  H   H360      1.0  0.18687  0.88288  0.30886  1.0000
  C   C220      1.0  0.23333  0.73408  0.48641  1.0000
  H   H361      1.0  0.00078  0.48963  0.13569  1.0000
  S   S63       1.0  0.04682  0.58034  0.00053  1.0000
  C   C221      1.0  0.16561  0.95446  0.38096  1.0000
  N   N16       1.0  0.18355  0.70955  0.19746  1.0000
  C   C222      1.0  0.18367  0.74742  0.21137  1.0000
  C   C223      1.0  0.19583  0.68946  0.19819  1.0000
  C   C224      1.0  0.17443  0.68170  0.20915  1.0000
  C   C225      1.0  0.18017  0.72257  0.17312  1.0000
  C   C226      1.0  0.17166  0.77123  0.21479  1.0000
  C   C227      1.0  0.20607  0.71489  0.18714  1.0000
  C   C228      1.0  0.17562  0.63610  0.20374  1.0000
  C   C229      1.0  0.18161  0.69074  0.15424  1.0000
  H   H362      1.0  0.18703  0.73991  0.22901  1.0000
  H   H363      1.0  0.18988  0.76981  0.20298  1.0000
  H   H364      1.0  0.19644  0.65998  0.18957  1.0000
  H   H365      1.0  0.19800  0.68130  0.21654  1.0000
  H   H366      1.0  0.17466  0.68250  0.22847  1.0000
  H   H367      1.0  0.16527  0.69241  0.20482  1.0000
  H   H368      1.0  0.17070  0.73353  0.17309  1.0000
  H   H369      1.0  0.18498  0.74993  0.16654  1.0000
  H   H370      1.0  0.16828  0.78368  0.19804  1.0000
  H   H371      1.0  0.16482  0.75275  0.22444  1.0000
  H   H372      1.0  0.17303  0.79805  0.22531  1.0000
  H   H373      1.0  0.20798  0.74074  0.19790  1.0000
  H   H374      1.0  0.21434  0.69535  0.18616  1.0000
  H   H375      1.0  0.20437  0.72623  0.16915  1.0000
  H   H376      1.0  0.17622  0.63101  0.18491  1.0000
  H   H377      1.0  0.16762  0.62042  0.21119  1.0000
  H   H378      1.0  0.18340  0.62095  0.21212  1.0000
  H   H379      1.0  0.17323  0.67445  0.15282  1.0000
  H   H380      1.0  0.18906  0.66836  0.15648  1.0000
  H   H381      1.0  0.18374  0.70686  0.13716  1.0000
  S   S64       1.0  0.13026  0.91172  0.21666  1.0000
  C   C230      1.0  0.09075  0.53086  0.00745  1.0000
  H   H382      1.0  0.01054  0.59594  0.14248  1.0000
  S   S65       1.0  0.16835  0.93397  0.40969  1.0000
  S   S66       1.0  0.16166  0.94962  0.20368  1.0000
  H   H383      1.0  0.23148  0.93724  0.08400  1.0000
  H   H384      1.0  0.04126  0.59761  0.10585  1.0000
  H   H385      1.0  0.99706  0.60830  0.12853  1.0000
  H   H386      1.0  0.10377  0.90889  0.44519  1.0000
  H   H387      1.0  0.00157  0.92624  0.17149  1.0000
  C   C231      1.0  0.10931  0.91165  0.42868  1.0000
  C   C232      1.0  0.10454  0.58380  0.01273  1.0000
  H   H388      1.0  0.14212  0.95977  0.43343  1.0000
  C   C233      1.0  0.18961  0.48518  0.04482  1.0000
  H   H389      1.0  0.18765  0.51278  0.03341  1.0000
  C   C234      1.0  0.13054  0.95839  0.15329  1.0000
  H   H390      1.0  0.22044  0.54714  0.05038  1.0000
  H   H391      1.0  0.20122  0.89829  0.34996  1.0000
  H   H392      1.0  0.14480  0.97716  0.40466  1.0000
  H   H393      1.0  0.21525  0.78955  0.48009  1.0000
  Fe  Fe29      1.0  0.03837  0.64365  0.99907  1.0000
  H   H394      1.0  0.21165  0.90886  0.31546  1.0000
  H   H395      1.0  0.21312  0.95828  0.32597  1.0000
  H   H396      1.0  0.11275  0.88047  0.42487  1.0000
  H   H397      1.0  0.99403  0.53978  0.13746  1.0000
  C   C235      1.0  0.20972  0.48870  0.02749  1.0000
  C   C236      1.0  0.22067  0.95210  0.27315  1.0000
  H   H398      1.0  0.17147  0.48838  0.05960  1.0000
  C   C237      1.0  0.19637  0.92420  0.28353  1.0000
  Fe  Fe30      1.0  0.14730  0.96629  0.48722  1.0000
  H   H399      1.0  0.22424  0.50591  0.07106  1.0000
  H   H400      1.0  0.00370  0.67295  0.13039  1.0000
  H   H401      1.0  0.00948  0.97732  0.24092  1.0000
  H   H402      1.0  0.22419  0.73099  0.48062  1.0000
  H   H403      1.0  0.11506  0.97040  0.43728  1.0000
  H   H404      1.0  0.20195  0.50674  0.08468  1.0000
  H   H405      1.0  0.02366  0.78695  0.47841  1.0000
  Fe  Fe31      1.0  0.16594  0.53801  0.00226  1.0000
  H   H406      1.0  0.08176  0.52033  0.00778  1.0000
  N   N17       1.0  0.99539  0.96188  0.20084  1.0000
  H   H407      1.0  0.98993  0.87736  0.19376  1.0000
  H   H408      1.0  0.22747  0.66402  0.99915  1.0000
  H   H409      1.0  0.11534  0.98164  0.23270  1.0000
  H   H410      1.0  0.10167  0.98244  0.48564  1.0000
  C   C238      1.0  0.16149  0.98380  0.33442  1.0000
  S   S67       1.0  0.15230  0.54889  0.97498  1.0000
  H   H411      1.0  0.02051  0.61766  0.66851  1.0000
  S   S68       1.0  0.05289  0.91187  0.51073  1.0000
  S   S69       1.0  0.00241  0.60949  0.81826  1.0000
  H   H412      1.0  0.00405  0.65334  0.68518  1.0000
  S   S70       1.0  0.15192  0.53404  0.75294  1.0000
  Fe  Fe32      1.0  0.17037  0.52915  0.73536  1.0000
  S   S71       1.0  0.18471  0.57644  0.72943  1.0000
  H   H413      1.0  0.00480  0.60936  0.64177  1.0000
  H   H414      1.0  0.17869  0.71493  0.71223  1.0000
  S   S72       1.0  0.17571  0.85710  0.51742  1.0000
  H   H415      1.0  0.01277  0.63763  0.61834  1.0000
  Fe  Fe33      1.0  0.04591  0.92121  0.54739  1.0000
  H   H416      1.0  0.02741  0.75906  0.64165  1.0000
  C   C239      1.0  0.07969  0.96249  0.55852  1.0000
  Fe  Fe34      1.0  0.04574  0.82834  0.55893  1.0000
  S   S73       1.0  0.05241  0.81328  0.52259  1.0000
  S   S74       1.0  0.04374  0.78699  0.59211  1.0000
  Fe  Fe35      1.0  0.06533  0.86384  0.52566  1.0000
  H   H417      1.0  0.08698  0.95412  0.59434  1.0000
  H   H418      1.0  0.18833  0.52163  0.65318  1.0000
  S   S75       1.0  0.05927  0.87626  0.56240  1.0000
  S   S76       1.0  0.03176  0.87500  0.54675  1.0000
  Fe  Fe36      1.0  0.22027  0.69776  0.62634  1.0000
  S   S77       1.0  0.04189  0.48996  0.70516  1.0000
  S   S78       1.0  0.20444  0.65654  0.63286  1.0000
  Fe  Fe37      1.0  0.22800  0.77161  0.59515  1.0000
  S   S79       1.0  0.22381  0.82554  0.57017  1.0000
  S   S80       1.0  0.21913  0.76561  0.63073  1.0000
  Fe  Fe38      1.0  0.04600  0.55636  0.64793  1.0000
  S   S81       1.0  0.04809  0.58144  0.68305  1.0000
  S   S82       1.0  0.04703  0.59359  0.61304  1.0000
  C   C240      1.0  0.10961  0.50213  0.72900  1.0000
  H   H419      1.0  0.22792  0.73708  0.70914  1.0000
  Fe  Fe39      1.0  0.03161  0.54698  0.69419  1.0000
  S   S83       1.0  0.01481  0.57660  0.71113  1.0000
  H   H420      1.0  0.98899  0.62533  0.77617  1.0000
  S   S84       1.0  0.02898  0.52458  0.65846  1.0000
  C   C241      1.0  0.04529  0.73311  0.59699  1.0000
  C   C242      1.0  0.04333  0.70588  0.57976  1.0000
  C   C243      1.0  0.04400  0.66334  0.58494  1.0000
  C   C244      1.0  0.04664  0.64748  0.60733  1.0000
  C   C245      1.0  0.04892  0.67476  0.62436  1.0000
  C   C246      1.0  0.04817  0.71726  0.61924  1.0000
  H   H421      1.0  0.04105  0.71754  0.56261  1.0000
  H   H422      1.0  0.04230  0.64254  0.57158  1.0000
  H   H423      1.0  0.05123  0.66306  0.64150  1.0000
  H   H424      1.0  0.04982  0.73801  0.63264  1.0000
  C   C247      1.0  0.18889  0.84979  0.53289  1.0000
  C   C248      1.0  0.19085  0.81277  0.54577  1.0000
  C   C249      1.0  0.20135  0.80530  0.55782  1.0000
  C   C250      1.0  0.21005  0.83471  0.55690  1.0000
  C   C251      1.0  0.20810  0.87170  0.54403  1.0000
  C   C252      1.0  0.19755  0.87933  0.53217  1.0000
  H   H425      1.0  0.18419  0.78976  0.54639  1.0000
  H   H426      1.0  0.20275  0.77668  0.56761  1.0000
  H   H427      1.0  0.21480  0.89457  0.54315  1.0000
  H   H428      1.0  0.19616  0.90789  0.52229  1.0000
  C   C253      1.0  0.98965  0.80800  0.85090  1.0000
  N   N18       1.0  0.01710  0.58221  0.88638  1.0000
  H   H429      1.0  0.00269  0.54348  0.87882  1.0000
  C   C254      1.0  0.02066  0.63912  0.65302  1.0000
  H   H430      1.0  0.99617  0.97034  0.52629  1.0000
  H   H431      1.0  0.19054  0.50691  0.69355  1.0000
  H   H432      1.0  0.21667  0.51624  0.62843  1.0000
  H   H433      1.0  0.01839  0.56134  0.85122  1.0000
  C   C255      1.0  0.21115  0.51302  0.66619  1.0000
  H   H434      1.0  0.01778  0.67138  0.70924  1.0000
  C   C256      1.0  0.19045  0.59539  0.70197  1.0000
  C   C257      1.0  0.20178  0.61221  0.70031  1.0000
  C   C258      1.0  0.20639  0.62973  0.67906  1.0000
  C   C259      1.0  0.19954  0.63170  0.65945  1.0000
  C   C260      1.0  0.18836  0.61381  0.66094  1.0000
  C   C261      1.0  0.18385  0.59549  0.68205  1.0000
  H   H435      1.0  0.20700  0.61170  0.71558  1.0000
  H   H436      1.0  0.21515  0.64223  0.67791  1.0000
  H   H437      1.0  0.18303  0.61492  0.64579  1.0000
  H   H438      1.0  0.17511  0.58275  0.68312  1.0000
  C   C262      1.0  0.00566  0.60081  0.78834  1.0000
  C   C263      1.0  0.99755  0.61140  0.77126  1.0000
  C   C264      1.0  0.00052  0.60379  0.74773  1.0000
  C   C265      1.0  0.01159  0.58546  0.74102  1.0000
  C   C266      1.0  0.01972  0.57504  0.75808  1.0000
  C   C267      1.0  0.01676  0.58271  0.78160  1.0000
  H   H439      1.0  0.01095  0.63450  0.98106  1.0000
  H   H440      1.0  0.99417  0.61192  0.73468  1.0000
  H   H441      1.0  0.02827  0.56100  0.75316  1.0000
  H   H442      1.0  0.02310  0.57445  0.79465  1.0000
  C   C268      1.0  0.01856  0.67282  0.95322  1.0000
  C   C269      1.0  0.01638  0.69388  0.93189  1.0000
  C   C270      1.0  0.00523  0.69268  0.92196  1.0000
  C   C271      1.0  0.99612  0.67019  0.93323  1.0000
  C   C272      1.0  0.99823  0.64976  0.95474  1.0000
  C   C273      1.0  0.00942  0.65073  0.96461  1.0000
  H   H443      1.0  0.02339  0.71124  0.92304  1.0000
  H   H444      1.0  0.00366  0.70925  0.90565  1.0000
  H   H445      1.0  0.09105  0.51085  0.67368  1.0000
  H   H446      1.0  0.02546  0.49921  0.87194  1.0000
  C   C274      1.0  0.03674  0.60858  0.90170  1.0000
  H   H447      1.0  0.14226  0.62780  0.92917  1.0000
  C   C275      1.0  0.21406  0.53639  0.64275  1.0000
  C   C276      1.0  0.20902  0.78803  0.69598  1.0000
  H   H448      1.0  0.20909  0.71056  0.53782  1.0000
  C   C277      1.0  0.09025  0.51146  0.71105  1.0000
  H   H449      1.0  0.22410  0.75799  0.54198  1.0000
  C   C278      1.0  0.16434  0.50787  0.88617  1.0000
  S   S85       1.0  0.17849  0.50291  0.97846  1.0000
  C   C279      1.0  0.16759  0.53000  0.86534  1.0000
  Fe  Fe40      1.0  0.17020  0.91627  0.49774  1.0000
  H   H450      1.0  0.12827  0.57290  0.88045  1.0000
  H   H451      1.0  0.98943  0.70873  0.68955  1.0000
  C   C280      1.0  0.16441  0.51725  0.84344  1.0000
  N   N19       1.0  0.20160  0.75145  0.70272  1.0000
  C   C281      1.0  0.20922  0.72075  0.71632  1.0000
  C   C282      1.0  0.19109  0.76352  0.71853  1.0000
  C   C283      1.0  0.11549  0.49888  0.70711  1.0000
  C   C284      1.0  0.19781  0.73111  0.68151  1.0000
  H   H452      1.0  0.01630  0.76953  0.62115  1.0000
  C   C285      1.0  0.18284  0.72865  0.72692  1.0000
  C   C286      1.0  0.98998  0.80974  0.87758  1.0000
  H   H453      1.0  0.21027  0.73075  0.73430  1.0000
  H   H454      1.0  0.20490  0.69075  0.71853  1.0000
  H   H455      1.0  0.18532  0.78756  0.71027  1.0000
  H   H456      1.0  0.19422  0.77750  0.73428  1.0000
  H   H457      1.0  0.22416  0.73627  0.99400  1.0000
  H   H458      1.0  0.13145  0.51759  0.94833  1.0000
  H   H459      1.0  0.20567  0.72263  0.67010  1.0000
  H   H460      1.0  0.19380  0.70121  0.68622  1.0000
  H   H461      1.0  0.18236  0.77389  0.67499  1.0000
  H   H462      1.0  0.21004  0.81156  0.50703  1.0000
  H   H463      1.0  0.14374  0.60615  0.90131  1.0000
  H   H464      1.0  0.17545  0.74127  0.73826  1.0000
  H   H465      1.0  0.01250  0.52140  0.89963  1.0000
  H   H466      1.0  0.99761  0.66682  0.65839  1.0000
  C   C287      1.0  0.13073  0.54338  0.88974  1.0000
  H   H467      1.0  0.02315  0.64946  0.85303  1.0000
  H   H468      1.0  0.09370  0.71026  0.59172  1.0000
  C   C288      1.0  0.08462  0.93676  0.57943  1.0000
  Fe  Fe41      1.0  0.14432  0.49100  0.98983  1.0000
  H   H469      1.0  0.22225  0.70739  0.68700  1.0000
  C   C289      1.0  0.07559  0.77049  0.57422  1.0000
  H   H470      1.0  0.99701  0.78613  0.92186  1.0000
  C   C290      1.0  0.20240  0.82909  0.69042  1.0000
  H   H471      1.0  0.21082  0.49383  0.71165  1.0000
  C   C291      1.0  0.09434  0.92613  0.50004  1.0000
  H   H472      1.0  0.21529  0.69320  0.51083  1.0000
  C   C292      1.0  0.02629  0.67384  0.69879  1.0000
  H   H473      1.0  0.03242  0.69016  0.70932  1.0000
  H   H474      1.0  0.03040  0.64308  0.69649  1.0000
  N   N20       1.0  0.12610  0.54341  0.91484  1.0000
  C   C293      1.0  0.12853  0.58461  0.92397  1.0000
  C   C294      1.0  0.09684  0.88732  0.51019  1.0000
  C   C295      1.0  0.01502  0.96981  0.53099  1.0000
  H   H475      1.0  0.19419  0.77499  0.65241  1.0000
  S   S86       1.0  0.16520  0.48696  0.70847  1.0000
  H   H476      1.0  0.11471  0.49985  0.74446  1.0000
  H   H477      1.0  0.01619  0.94126  0.52137  1.0000
  H   H478      1.0  0.01935  0.60928  0.91930  1.0000
  H   H479      1.0  0.12265  0.60902  0.91602  1.0000
  H   H480      1.0  0.12649  0.58500  0.94309  1.0000
  C   C296      1.0  0.01580  0.70782  0.63691  1.0000
  H   H481      1.0  0.99379  0.53464  0.91922  1.0000
  H   H482      1.0  0.03075  0.58815  0.85819  1.0000
  C   C297      1.0  0.11814  0.90144  0.50667  1.0000
  H   H483      1.0  0.00364  0.56996  0.92978  1.0000
  H   H484      1.0  0.03834  0.62224  0.88399  1.0000
  H   H485      1.0  0.98732  0.83830  0.84258  1.0000
  S   S87       1.0  0.05740  0.49916  0.65538  1.0000
  H   H486      1.0  0.09725  0.53334  0.94027  1.0000
  H   H487      1.0  0.01142  0.68205  0.86346  1.0000
  H   H488      1.0  0.22158  0.55671  0.64485  1.0000
  C   C298      1.0  0.01798  0.75387  0.63829  1.0000
  C   C299      1.0  0.14139  0.59915  0.91999  1.0000
  H   H489      1.0  0.20823  0.74360  0.51254  1.0000
  H   H490      1.0  0.99587  0.83519  0.88087  1.0000
  H   H491      1.0  0.08428  0.80951  0.59783  1.0000
  S   S88       1.0  0.03289  0.67430  0.96455  1.0000
  H   H492      1.0  0.00464  0.63248  0.89323  1.0000
  S   S89       1.0  0.07441  0.51750  0.71488  1.0000
  H   H493      1.0  0.12728  0.89173  0.50944  1.0000
  C   C300      1.0  0.99818  0.71633  0.68092  1.0000
  H   H494      1.0  0.22576  0.68385  0.71457  1.0000
  H   H495      1.0  0.04401  0.58568  0.90538  1.0000
  Fe  Fe42      1.0  0.05840  0.52232  0.69135  1.0000
  H   H496      1.0  0.07584  0.68932  0.60748  1.0000
  C   C301      1.0  0.08788  0.70479  0.57719  1.0000
  H   H497      1.0  0.03774  0.52024  0.85542  1.0000
  C   C302      1.0  0.18924  0.75539  0.66554  1.0000
  H   H498      1.0  0.14797  0.57673  0.92711  1.0000
  C   C303      1.0  0.02485  0.69780  0.67533  1.0000
  H   H499      1.0  0.03011  0.63946  0.64663  1.0000
  H   H500      1.0  0.03386  0.69936  0.66643  1.0000
  H   H501      1.0  0.20903  0.85157  0.68367  1.0000
  C   C304      1.0  0.10880  0.87501  0.51317  1.0000
  S   S90       1.0  0.08543  0.85284  0.51912  1.0000
  H   H502      1.0  0.18419  0.73346  0.65611  1.0000
  H   H503      1.0  0.11000  0.51190  0.90790  1.0000
  C   C305      1.0  0.01031  0.62056  0.87870  1.0000
  H   H504      1.0  0.10944  0.71852  0.55356  1.0000
  H   H505      1.0  0.10630  0.75428  0.52927  1.0000
  H   H506      1.0  0.08073  0.75953  0.61067  1.0000
  C   C306      1.0  0.07699  0.68288  0.58873  1.0000
  H   H507      1.0  0.00402  0.61372  0.86533  1.0000
  H   H508      1.0  0.18747  0.70443  0.73753  1.0000
  H   H509      1.0  0.20818  0.53747  0.67818  1.0000
  H   H510      1.0  0.09294  0.68250  0.56616  1.0000
  H   H511      1.0  0.21512  0.78161  0.68068  1.0000
  H   H512      1.0  0.09959  0.77356  0.57989  1.0000
  C   C307      1.0  0.99915  0.56166  0.91409  1.0000
  H   H513      1.0  0.00717  0.70514  0.62860  1.0000
  H   H514      1.0  0.06969  0.71260  0.51658  1.0000
  C   C308      1.0  0.22195  0.71203  0.70590  1.0000
  H   H515      1.0  0.01216  0.76898  0.65156  1.0000
  C   C309      1.0  0.00394  0.67740  0.67081  1.0000
  C   C310      1.0  0.00803  0.55066  0.89381  1.0000
  C   C311      1.0  0.07776  0.78490  0.59869  1.0000
  H   H516      1.0  0.06851  0.68947  0.58036  1.0000
  H   H517      1.0  0.02235  0.72956  0.67987  1.0000
  S   S91       1.0  0.16059  0.96909  0.51520  1.0000
  H   H518      1.0  0.11303  0.49950  0.67022  1.0000
  Fe  Fe43      1.0  0.98525  0.63712  0.83492  1.0000
  H   H519      1.0  0.19587  0.82735  0.67690  1.0000
  H   H520      1.0  0.10805  0.56529  0.95063  1.0000
  N   N21       1.0  0.08546  0.74432  0.56333  1.0000
  H   H521      1.0  0.09234  0.91703  0.57361  1.0000
  H   H522      1.0  0.07776  0.91536  0.58639  1.0000
  H   H523      1.0  0.17255  0.55746  0.86616  1.0000
  H   H524      1.0  0.06929  0.79810  0.60634  1.0000
  H   H525      1.0  0.06300  0.72892  0.54323  1.0000
  H   H526      1.0  0.06985  0.95951  0.55923  1.0000
  C   C312      1.0  0.02430  0.56605  0.86578  1.0000
  H   H527      1.0  0.10354  0.96004  0.54661  1.0000
  C   C313      1.0  0.22948  0.80197  0.50426  1.0000
  H   H528      1.0  0.08185  0.76578  0.52817  1.0000
  H   H529      1.0  0.07864  0.64930  0.58832  1.0000
  C   C314      1.0  0.01764  0.65673  0.86888  1.0000
  C   C315      1.0  0.02446  0.58949  0.90688  1.0000
  H   H530      1.0  0.16692  0.53489  0.82770  1.0000
  C   C316      1.0  0.10746  0.75093  0.54831  1.0000
  H   H531      1.0  0.03776  0.63335  0.91390  1.0000
  H   H532      1.0  0.06705  0.75503  0.57564  1.0000
  H   H533      1.0  0.11045  0.51032  0.95159  1.0000
  H   H534      1.0  0.19800  0.84166  0.70635  1.0000
  Fe  Fe44      1.0  0.16411  0.50814  0.95221  1.0000
  S   S92       1.0  0.16820  0.52658  0.91340  1.0000
  S   S93       1.0  0.22779  0.70427  0.58926  1.0000
  H   H535      1.0  0.08304  0.94662  0.54270  1.0000
  H   H536      1.0  0.99639  0.74005  0.66709  1.0000
  C   C317      1.0  0.09656  0.76900  0.56214  1.0000
  H   H537      1.0  0.99119  0.63282  0.96378  1.0000
  C   C318      1.0  0.01368  0.61857  0.63460  1.0000
  C   C319      1.0  0.11563  0.94057  0.49699  1.0000
  H   H538      1.0  0.03010  0.95360  0.59524  1.0000
  H   H539      1.0  0.08974  0.71779  0.52999  1.0000
  C   C320      1.0  0.10862  0.50189  0.68725  1.0000
  C   C321      1.0  0.03138  0.52556  0.87047  1.0000
  H   H540      1.0  0.11541  0.76844  0.55165  1.0000
  N   N22       1.0  0.01619  0.68138  0.65925  1.0000
  H   H541      1.0  0.02306  0.66895  0.88228  1.0000
  H   H542      1.0  0.99483  0.78122  0.88359  1.0000
  Fe  Fe45      1.0  0.03926  0.86320  0.51047  1.0000
  H   H543      1.0  0.00353  0.72859  0.69443  1.0000
  C   C322      1.0  0.21402  0.72053  0.52142  1.0000
  H   H544      1.0  0.02620  0.56021  0.91700  1.0000
  H   H545      1.0  0.99270  0.58640  0.90895  1.0000
  H   H546      1.0  0.07187  0.68128  0.54216  1.0000
  C   C323      1.0  0.08253  0.73641  0.53870  1.0000
  H   H547      1.0  0.21493  0.79444  0.71024  1.0000
  C   C324      1.0  0.07107  0.71352  0.53551  1.0000
  H   H548      1.0  0.09475  0.80028  0.55443  1.0000
  H   H549      1.0  0.07383  0.79829  0.56283  1.0000
  H   H550      1.0  0.02273  0.69720  0.62380  1.0000
  H   H551      1.0  0.14063  0.54107  0.88867  1.0000
  H   H552      1.0  0.01863  0.59023  0.62949  1.0000
  C   C325      1.0  0.09612  0.50828  0.68916  1.0000
  H   H553      1.0  0.09271  0.51062  0.74796  1.0000
  C   C326      1.0  0.13255  0.51115  0.92953  1.0000
  C   C327      1.0  0.19267  0.49146  0.64923  1.0000
  H   H554      1.0  0.14232  0.51233  0.92588  1.0000
  H   H555      1.0  0.20644  0.55663  0.63750  1.0000
  H   H556      1.0  0.11694  0.51418  0.87101  1.0000
  C   C328      1.0  0.12649  0.50974  0.87468  1.0000
  H   H557      1.0  0.99863  0.79875  0.84362  1.0000
  H   H558      1.0  0.10837  0.56526  0.90651  1.0000
  H   H559      1.0  0.03663  0.52603  0.88620  1.0000
  S   S94       1.0  0.13124  0.49012  0.70346  1.0000
  C   C329      1.0  0.10697  0.53710  0.94122  1.0000
  C   C330      1.0  0.09711  0.50828  0.73091  1.0000
  H   H560      1.0  0.13148  0.51168  0.85751  1.0000
  H   H561      1.0  0.11088  0.84494  0.52077  1.0000
  C   C331      1.0  0.11278  0.53930  0.91636  1.0000
  H   H562      1.0  0.19665  0.49539  0.63128  1.0000
  C   C332      1.0  0.98772  0.79008  0.92898  1.0000
  H   H563      1.0  0.98585  0.85242  0.91538  1.0000
  C   C333      1.0  0.22604  0.73711  0.52756  1.0000
  H   H564      1.0  0.08522  0.93575  0.49718  1.0000
  H   H565      1.0  0.21971  0.50042  0.67288  1.0000
  H   H566      1.0  0.98827  0.79868  0.94730  1.0000
  S   S95       1.0  0.98594  0.69694  0.85237  1.0000
  H   H567      1.0  0.01483  0.96072  0.54980  1.0000
  Fe  Fe46      1.0  0.14703  0.48750  0.72757  1.0000
  H   H568      1.0  0.23254  0.54970  0.55204  1.0000
  H   H569      1.0  0.23107  0.71030  0.53533  1.0000
  H   H570      1.0  0.22885  0.81749  0.52101  1.0000
  N   N23       1.0  0.23348  0.75783  0.50814  1.0000
  H   H571      1.0  0.26648  0.46354  0.12839  1.0000
  S   S96       1.0  0.24222  0.19008  0.12569  1.0000
  H   H572      1.0  0.25030  0.42026  0.20722  1.0000
  C   C334      1.0  0.26860  0.46224  0.14706  1.0000
  S   S97       1.0  0.25768  0.29795  0.13125  1.0000
  H   H573      1.0  0.48352  0.37864  0.17822  1.0000
  S   S98       1.0  0.42785  0.42726  0.14533  1.0000
  H   H574      1.0  0.45004  0.47712  0.19216  1.0000
  H   H575      1.0  0.24221  0.42717  0.17109  1.0000
  Fe  Fe47      1.0  0.46252  0.20080  0.13930  1.0000
  S   S99       1.0  0.45924  0.13367  0.14792  1.0000
  S   S100      1.0  0.45243  0.24861  0.16198  1.0000
  H   H576      1.0  0.29090  0.20664  0.03835  1.0000
  H   H577      1.0  0.47467  0.40098  0.15530  1.0000
  Fe  Fe48      1.0  0.46018  0.12602  0.10912  1.0000
  S   S101      1.0  0.44760  0.09487  0.08604  1.0000
  C   C335      1.0  0.25034  0.42825  0.15945  1.0000
  S   S102      1.0  0.46232  0.19352  0.10061  1.0000
  C   C336      1.0  0.36938  0.47899  0.22204  1.0000
  H   H578      1.0  0.35996  0.33898  0.18559  1.0000
  H   H579      1.0  0.26772  0.07463  0.00679  1.0000
  H   H580      1.0  0.26101  0.27693  0.05831  1.0000
  S   S103      1.0  0.48253  0.19130  0.13980  1.0000
  S   S104      1.0  0.30670  0.44924  0.47226  1.0000
  Fe  Fe49      1.0  0.28741  0.42400  0.23012  1.0000
  H   H581      1.0  0.26280  0.24274  0.09331  1.0000
  S   S105      1.0  0.27395  0.37495  0.22438  1.0000
  C   C337      1.0  0.47487  0.37779  0.16986  1.0000
  H   H582      1.0  0.48310  0.16594  0.99867  1.0000
  H   H583      1.0  0.35132  0.47008  0.17690  1.0000
  S   S106      1.0  0.30305  0.41945  0.25377  1.0000
  H   H584      1.0  0.46617  0.03438  0.04273  1.0000
  H   H585      1.0  0.28742  0.32462  0.07681  1.0000
  C   C338      1.0  0.47322  0.44659  0.19888  1.0000
  C   C339      1.0  0.32702  0.40018  0.41695  1.0000
  H   H586      1.0  0.33464  0.39767  0.49374  1.0000
  S   S107      1.0  0.23593  0.26444  0.08707  1.0000
  H   H587      1.0  0.40685  0.39126  0.17322  1.0000
  C   C340      1.0  0.26776  0.22467  0.07986  1.0000
  C   C341      1.0  0.26448  0.24514  0.05610  1.0000
  H   H588      1.0  0.27337  0.30399  0.08595  1.0000
  H   H589      1.0  0.25624  0.99808  0.01117  1.0000
  H   H590      1.0  0.26792  0.17148  0.11795  1.0000
  C   C342      1.0  0.43357  0.03368  0.07337  1.0000
  C   C343      1.0  0.44254  0.04406  0.08794  1.0000
  N   N24       1.0  0.25741  0.46553  0.16261  1.0000
  S   S108      1.0  0.29339  0.45420  0.41182  1.0000
  C   C344      1.0  0.45657  0.41822  0.22222  1.0000
  H   H591      1.0  0.42969  0.05698  0.06184  1.0000
  H   H592      1.0  0.45433  0.02122  0.11418  1.0000
  H   H593      1.0  0.44301  0.38772  0.24420  1.0000
  C   C345      1.0  0.43434  0.37712  0.15031  1.0000
  C   C346      1.0  0.43311  0.35536  0.17179  1.0000
  C   C347      1.0  0.43857  0.31601  0.17488  1.0000
  C   C348      1.0  0.44530  0.29766  0.15659  1.0000
  C   C349      1.0  0.44639  0.31927  0.13506  1.0000
  C   C350      1.0  0.44094  0.35860  0.13198  1.0000
  H   H594      1.0  0.42798  0.36877  0.18601  1.0000
  H   H595      1.0  0.43762  0.29960  0.19159  1.0000
  H   H596      1.0  0.45149  0.30574  0.12078  1.0000
  H   H597      1.0  0.44189  0.37486  0.11521  1.0000
  H   H598      1.0  0.47258  0.10256  0.01317  1.0000
  Fe  Fe50      1.0  0.29124  0.99938  0.00532  1.0000
  H   H599      1.0  0.48140  0.03762  0.22232  1.0000
  H   H600      1.0  0.29617  0.18035  0.07948  1.0000
  C   C351      1.0  0.25425  0.12423  0.05276  1.0000
  C   C352      1.0  0.25619  0.10984  0.03020  1.0000
  C   C353      1.0  0.26624  0.08467  0.02435  1.0000
  C   C354      1.0  0.27457  0.07386  0.04098  1.0000
  C   C355      1.0  0.27247  0.08731  0.06371  1.0000
  C   C356      1.0  0.26232  0.11198  0.06966  1.0000
  H   H601      1.0  0.24997  0.11877  0.01702  1.0000
  S   S109      1.0  0.24167  0.15744  0.05863  1.0000
  H   H602      1.0  0.27877  0.07862  0.07679  1.0000
  H   H603      1.0  0.26077  0.12163  0.08727  1.0000
  C   C357      1.0  0.26989  0.35256  0.19841  1.0000
  C   C358      1.0  0.25951  0.32976  0.19899  1.0000
  C   C359      1.0  0.25572  0.31241  0.17876  1.0000
  C   C360      1.0  0.26231  0.31739  0.15762  1.0000
  C   C361      1.0  0.27279  0.33972  0.15708  1.0000
  C   C362      1.0  0.27654  0.35728  0.17729  1.0000
  H   H604      1.0  0.25433  0.32565  0.21522  1.0000
  H   H605      1.0  0.24767  0.29528  0.17956  1.0000
  H   H606      1.0  0.27799  0.34380  0.14088  1.0000
  H   H607      1.0  0.28460  0.37434  0.17657  1.0000
  H   H608      1.0  0.39966  0.42476  0.15272  1.0000
  C   C363      1.0  0.28754  0.25820  0.07632  1.0000
  C   C364      1.0  0.27691  0.17787  0.12339  1.0000
  Fe  Fe51      1.0  0.47928  0.12440  0.14590  1.0000
  S   S110      1.0  0.33111  0.44681  0.20640  1.0000
  C   C365      1.0  0.28658  0.18077  0.04803  1.0000
  H   H609      1.0  0.48148  0.06128  0.30366  1.0000
  C   C366      1.0  0.46437  0.38241  0.18799  1.0000
  S   S111      1.0  0.41811  0.46669  0.20847  1.0000
  H   H610      1.0  0.29140  0.21807  0.11552  1.0000
  H   H611      1.0  0.28297  0.15089  0.12061  1.0000
  C   C367      1.0  0.28671  0.18361  0.07461  1.0000
  H   H612      1.0  0.25537  0.45955  0.22398  1.0000
  H   H613      1.0  0.27722  0.24278  0.11973  1.0000
  H   H614      1.0  0.47413  0.00181  0.29088  1.0000
  C   C368      1.0  0.34542  0.46314  0.21302  1.0000
  H   H615      1.0  0.27618  0.18197  0.14246  1.0000
  H   H616      1.0  0.28757  0.26303  0.05717  1.0000
  H   H617      1.0  0.27742  0.17729  0.04234  1.0000
  S   S112      1.0  0.28792  0.04523  0.03404  1.0000
  H   H618      1.0  0.26825  0.99015  0.03979  1.0000
  H   H619      1.0  0.34705  0.44432  0.40751  1.0000
  Fe  Fe52      1.0  0.29604  0.48015  0.26724  1.0000
  H   H620      1.0  0.44738  0.35994  0.21913  1.0000
  H   H621      1.0  0.44453  0.43144  0.18285  1.0000
  C   C369      1.0  0.36579  0.47924  0.19912  1.0000
  H   H622      1.0  0.43782  0.40541  0.21677  1.0000
  H   H623      1.0  0.26375  0.19416  0.08129  1.0000
  N   N25       1.0  0.33081  0.46705  0.39209  1.0000
  H   H624      1.0  0.39908  0.37166  0.14937  1.0000
  H   H625      1.0  0.26894  0.44430  0.19013  1.0000
  H   H626      1.0  0.40232  0.31152  0.16522  1.0000
  H   H627      1.0  0.39885  0.41072  0.21787  1.0000
  H   H628      1.0  0.45363  0.44797  0.22950  1.0000
  C   C370      1.0  0.24643  0.42246  0.13460  1.0000
  C   C371      1.0  0.29409  0.44123  0.36469  1.0000
  C   C372      1.0  0.29468  0.45250  0.34063  1.0000
  H   H629      1.0  0.32349  0.43951  0.34690  1.0000
  C   C373      1.0  0.44561  0.39113  0.22536  1.0000
  H   H630      1.0  0.35424  0.37532  0.20565  1.0000
  C   C374      1.0  0.32532  0.42562  0.39397  1.0000
  H   H631      1.0  0.23552  0.04879  0.07587  1.0000
  H   H632      1.0  0.34257  0.45765  0.25022  1.0000
  C   C375      1.0  0.42950  0.99348  0.07371  1.0000
  H   H633      1.0  0.47930  0.06526  0.26154  1.0000
  H   H634      1.0  0.46645  0.35921  0.20215  1.0000
  H   H635      1.0  0.39250  0.27264  0.15878  1.0000
  C   C376      1.0  0.48306  0.01775  0.23813  1.0000
  H   H636      1.0  0.45845  0.03393  0.01661  1.0000
  C   C377      1.0  0.45666  0.45981  0.15818  1.0000
  Fe  Fe53      1.0  0.31278  0.45685  0.22509  1.0000
  H   H637      1.0  0.46341  0.40463  0.23394  1.0000
  Fe  Fe54      1.0  0.48200  0.17872  0.10169  1.0000
  H   H638      1.0  0.25555  0.40034  0.16486  1.0000
  H   H639      1.0  0.36201  0.39298  0.17970  1.0000
  H   H640      1.0  0.34703  0.43972  0.37700  1.0000
  C   C378      1.0  0.35392  0.47097  0.19469  1.0000
  Fe  Fe55      1.0  0.23537  0.19550  0.08966  1.0000
  H   H641      1.0  0.46184  0.46658  0.49317  1.0000
  H   H642      1.0  0.47454  0.34739  0.16220  1.0000
  H   H643      1.0  0.42252  0.98610  0.06258  1.0000
  S   S113      1.0  0.47983  0.11157  0.10768  1.0000
  C   C379      1.0  0.23693  0.01500  0.07672  1.0000
  H   H644      1.0  0.47771  0.45144  0.18142  1.0000
  H   H645      1.0  0.31559  0.42873  0.39161  1.0000
  C   C380      1.0  0.29340  0.47084  0.38169  1.0000
  C   C381      1.0  0.25184  0.45354  0.20686  1.0000
  H   H646      1.0  0.47312  0.00931  0.01852  1.0000
  C   C382      1.0  0.48334  0.98917  0.28735  1.0000
  C   C383      1.0  0.36190  0.36808  0.19338  1.0000
  H   H647      1.0  0.47870  0.12979  0.03548  1.0000
  N   N26       1.0  0.46182  0.42417  0.19766  1.0000
  H   H648      1.0  0.38886  0.38598  0.23935  1.0000
  H   H649      1.0  0.29167  0.15258  0.04299  1.0000
  H   H650      1.0  0.25477  0.00573  0.08679  1.0000
  H   H651      1.0  0.43834  0.01414  0.02200  1.0000
  H   H652      1.0  0.25373  0.03055  0.05948  1.0000
  S   S114      1.0  0.29756  0.45684  0.20096  1.0000
  H   H653      1.0  0.39734  0.27519  0.18767  1.0000
  C   C384      1.0  0.36085  0.47165  0.24037  1.0000
  H   H654      1.0  0.32209  0.37157  0.41638  1.0000
  H   H655      1.0  0.29714  0.25382  0.08006  1.0000
  C   C385      1.0  0.34414  0.46025  0.39118  1.0000
  C   C386      1.0  0.28192  0.21684  0.11100  1.0000
  N   N27       1.0  0.28080  0.22109  0.08491  1.0000
  H   H656      1.0  0.27158  0.24488  0.04221  1.0000
  C   C387      1.0  0.28312  0.29883  0.08676  1.0000
  H   H657      1.0  0.28241  0.15554  0.08178  1.0000
  H   H658      1.0  0.45780  0.43234  0.14775  1.0000
  C   C388      1.0  0.48106  0.11133  0.02010  1.0000
  C   C389      1.0  0.34893  0.46415  0.23593  1.0000
  C   C390      1.0  0.39892  0.39498  0.16261  1.0000
  H   H659      1.0  0.24163  0.44990  0.12732  1.0000
  H   H660      1.0  0.27397  0.99108  0.08116  1.0000
  H   H661      1.0  0.45638  0.37143  0.18004  1.0000
  H   H662      1.0  0.29419  0.40920  0.37016  1.0000
  H   H663      1.0  0.36352  0.47120  0.25815  1.0000
  H   H664      1.0  0.28562  0.30035  0.10508  1.0000
  H   H665      1.0  0.24329  0.47084  0.20555  1.0000
  C   C391      1.0  0.45283  0.44842  0.18361  1.0000
  H   H666      1.0  0.25697  0.22885  0.04942  1.0000
  N   N28       1.0  0.38489  0.35744  0.19284  1.0000
  C   C392      1.0  0.37341  0.36511  0.20700  1.0000
  C   C393      1.0  0.39459  0.34819  0.20966  1.0000
  C   C394      1.0  0.38337  0.32102  0.17821  1.0000
  C   C395      1.0  0.38725  0.39537  0.17765  1.0000
  H   H667      1.0  0.33647  0.39108  0.41932  1.0000
  C   C396      1.0  0.39660  0.38135  0.22694  1.0000
  C   C397      1.0  0.39460  0.29413  0.17220  1.0000
  H   H668      1.0  0.29520  0.42922  0.32791  1.0000
  H   H669      1.0  0.37215  0.34063  0.22095  1.0000
  H   H670      1.0  0.37362  0.39418  0.21613  1.0000
  H   H671      1.0  0.40335  0.34241  0.20042  1.0000
  H   H672      1.0  0.39271  0.31953  0.22020  1.0000
  H   H673      1.0  0.37712  0.29922  0.18729  1.0000
  H   H674      1.0  0.37923  0.33076  0.16157  1.0000
  H   H675      1.0  0.38007  0.40165  0.16531  1.0000
  H   H676      1.0  0.38716  0.42276  0.18833  1.0000
  Fe  Fe56      1.0  0.24176  0.25910  0.12413  1.0000
  H   H677      1.0  0.32894  0.40602  0.37985  1.0000
  H   H678      1.0  0.33845  0.45906  0.34385  1.0000
  C   C398      1.0  0.25011  0.00446  0.07030  1.0000
  H   H679      1.0  0.27333  0.43219  0.15031  1.0000
  H   H680      1.0  0.40429  0.37173  0.23751  1.0000
  H   H681      1.0  0.32330  0.41599  0.43241  1.0000
  C   C399      1.0  0.44743  0.01370  0.10287  1.0000
  C   C400      1.0  0.26115  0.46574  0.18744  1.0000
  H   H682      1.0  0.25410  0.41368  0.12277  1.0000
  H   H683      1.0  0.24391  0.02516  0.02583  1.0000
  C   C401      1.0  0.43653  0.98900  0.01066  1.0000
  C   C402      1.0  0.46445  0.01530  0.02789  1.0000
  H   H684      1.0  0.46477  0.47801  0.15663  1.0000
  H   H685      1.0  0.44946  0.47897  0.15022  1.0000
  H   H686      1.0  0.24028  0.39666  0.13512  1.0000
  C   C403      1.0  0.24709  0.99549  0.01893  1.0000
  H   H687      1.0  0.24138  0.98933  0.00444  1.0000
  H   H688      1.0  0.47452  0.00325  0.24331  1.0000
  H   H689      1.0  0.34408  0.44009  0.49362  1.0000
  H   H690      1.0  0.47967  0.42777  0.20930  1.0000
  Fe  Fe57      1.0  0.42011  0.47619  0.16971  1.0000
  H   H691      1.0  0.45089  0.98472  0.04895  1.0000
  C   C404      1.0  0.32890  0.46701  0.34734  1.0000
  S   S115      1.0  0.27978  0.48198  0.24559  1.0000
  Fe  Fe58      1.0  0.29427  0.48254  0.44754  1.0000
  H   H692      1.0  0.33235  0.48240  0.42818  1.0000
  S   S116      1.0  0.38451  0.48410  0.22875  1.0000
  H   H693      1.0  0.31749  0.48110  0.41955  1.0000
  C   C405      1.0  0.25007  0.06358  0.60625  1.0000
  H   H694      1.0  0.27409  0.04893  0.85978  1.0000
  S   S117      1.0  0.25577  0.16232  0.64008  1.0000
  H   H695      1.0  0.46738  0.46535  0.52164  1.0000
  H   H696      1.0  0.34302  0.46215  0.55957  1.0000
  S   S118      1.0  0.30654  0.99751  0.97830  1.0000
  C   C406      1.0  0.31974  0.37856  0.53341  1.0000
  H   H697      1.0  0.34831  0.42449  0.58003  1.0000
  C   C407      1.0  0.25892  0.05041  0.83689  1.0000
  H   H698      1.0  0.23901  0.05021  0.80897  1.0000
  H   H699      1.0  0.25883  0.04759  0.60835  1.0000
  S   S119      1.0  0.29954  0.01754  0.76194  1.0000
  H   H700      1.0  0.24295  0.15041  0.68581  1.0000
  Fe  Fe59      1.0  0.28450  0.01381  0.73759  1.0000
  S   S120      1.0  0.26944  0.06244  0.73401  1.0000
  Fe  Fe60      1.0  0.46107  0.33186  0.63175  1.0000
  S   S121      1.0  0.46326  0.28771  0.60326  1.0000
  S   S122      1.0  0.44442  0.37332  0.63453  1.0000
  C   C408      1.0  0.46031  0.47902  0.51059  1.0000
  Fe  Fe61      1.0  0.46889  0.24116  0.63116  1.0000
  S   S123      1.0  0.46317  0.17435  0.62963  1.0000
  H   H701      1.0  0.47625  0.10887  0.93055  1.0000
  S   S124      1.0  0.46558  0.28438  0.66021  1.0000
  Fe  Fe62      1.0  0.24000  0.19803  0.62408  1.0000
  S   S125      1.0  0.28780  0.41087  0.53080  1.0000
  H   H702      1.0  0.31932  0.33917  0.56589  1.0000
  S   S126      1.0  0.32921  0.00593  0.71987  1.0000
  S   S127      1.0  0.42562  0.05199  0.68056  1.0000
  C   C409      1.0  0.44141  0.41155  0.61244  1.0000
  C   C410      1.0  0.44912  0.41706  0.59281  1.0000
  C   C411      1.0  0.44652  0.44757  0.57555  1.0000
  C   C412      1.0  0.46853  0.02466  0.70786  1.0000
  H   H703      1.0  0.32639  0.35877  0.52392  1.0000
  H   H704      1.0  0.25657  0.07526  0.57028  1.0000
  H   H705      1.0  0.45710  0.39786  0.59093  1.0000
  C   C413      1.0  0.26288  0.47314  0.56672  1.0000
  N   N29       1.0  0.24031  0.04314  0.62094  1.0000
  C   C414      1.0  0.34532  0.42924  0.56198  1.0000
  C   C415      1.0  0.45274  0.14077  0.64425  1.0000
  C   C416      1.0  0.44615  0.15092  0.66456  1.0000
  C   C417      1.0  0.43791  0.12344  0.67525  1.0000
  C   C418      1.0  0.43614  0.08527  0.66597  1.0000
  C   C419      1.0  0.44281  0.07495  0.64579  1.0000
  C   C420      1.0  0.45102  0.10250  0.63506  1.0000
  H   H706      1.0  0.44747  0.17978  0.67212  1.0000
  H   H707      1.0  0.43288  0.13178  0.69092  1.0000
  H   H708      1.0  0.44161  0.04582  0.63837  1.0000
  H   H709      1.0  0.45607  0.09411  0.61941  1.0000
  H   H710      1.0  0.44606  0.05730  0.70900  1.0000
  H   H711      1.0  0.29964  0.01098  0.82971  1.0000
  C   C421      1.0  0.25582  0.08008  0.79746  1.0000
  H   H712      1.0  0.47550  0.09171  0.97546  1.0000
  H   H713      1.0  0.23861  0.07997  0.78232  1.0000
  H   H714      1.0  0.48370  0.06313  0.94190  1.0000
  C   C422      1.0  0.24805  0.06802  0.57990  1.0000
  C   C423      1.0  0.27570  0.37741  0.53526  1.0000
  C   C424      1.0  0.27395  0.35653  0.55707  1.0000
  C   C425      1.0  0.26425  0.33078  0.56171  1.0000
  C   C426      1.0  0.25620  0.32532  0.54448  1.0000
  C   C427      1.0  0.25807  0.34574  0.52257  1.0000
  C   C428      1.0  0.26771  0.37180  0.51800  1.0000
  H   H715      1.0  0.28007  0.36052  0.57057  1.0000
  H   H716      1.0  0.26295  0.31527  0.57862  1.0000
  H   H717      1.0  0.47283  0.04644  0.71880  1.0000
  Fe  Fe63      1.0  0.48227  0.30675  0.59993  1.0000
  C   C429      1.0  0.25921  0.13485  0.66652  1.0000
  C   C430      1.0  0.27019  0.11295  0.66749  1.0000
  C   C431      1.0  0.27336  0.09017  0.68781  1.0000
  C   C432      1.0  0.26564  0.08944  0.70764  1.0000
  C   C433      1.0  0.25466  0.11139  0.70672  1.0000
  C   C434      1.0  0.25141  0.13370  0.68624  1.0000
  H   H718      1.0  0.27631  0.11363  0.65238  1.0000
  H   H719      1.0  0.28185  0.07370  0.68824  1.0000
  H   H720      1.0  0.24863  0.11116  0.72194  1.0000
  H   H721      1.0  0.25194  0.34168  0.50909  1.0000
  C   C435      1.0  0.46618  0.04753  0.68437  1.0000
  C   C436      1.0  0.43621  0.47299  0.57759  1.0000
  H   H722      1.0  0.24760  0.42437  0.52979  1.0000
  N   N30       1.0  0.45773  0.00725  0.72082  1.0000
  H   H723      1.0  0.42506  0.43289  0.62966  1.0000
  H   H724      1.0  0.26162  0.02135  0.87118  1.0000
  H   H725      1.0  0.25073  0.03282  0.83716  1.0000
  H   H726      1.0  0.47625  0.14220  0.96473  1.0000
  H   H727      1.0  0.43305  0.00671  0.73366  1.0000
  N   N31       1.0  0.26453  0.05683  0.81268  1.0000
  C   C437      1.0  0.27509  0.08341  0.81471  1.0000
  S   S128      1.0  0.24341  0.29509  0.54955  1.0000
  C   C438      1.0  0.31596  0.43970  0.55530  1.0000
  H   H728      1.0  0.34608  0.39888  0.51471  1.0000
  C   C439      1.0  0.28103  0.10013  0.79160  1.0000
  H   H729      1.0  0.31186  0.42156  0.57021  1.0000
  C   C440      1.0  0.29753  0.00707  0.86744  1.0000
  H   H730      1.0  0.32001  0.00062  0.93526  1.0000
  H   H731      1.0  0.27257  0.11036  0.82520  1.0000
  H   H732      1.0  0.28226  0.06640  0.82417  1.0000
  C   C441      1.0  0.42847  0.46748  0.59721  1.0000
  C   C442      1.0  0.44913  0.04272  0.72554  1.0000
  H   H733      1.0  0.46199  0.07827  0.68695  1.0000
  H   H734      1.0  0.45356  0.06712  0.73434  1.0000
  H   H735      1.0  0.24623  0.03166  0.78218  1.0000
  S   S129      1.0  0.29511  0.00363  0.91555  1.0000
  H   H736      1.0  0.28996  0.11130  0.79485  1.0000
  H   H737      1.0  0.28226  0.07659  0.77853  1.0000
  H   H738      1.0  0.27579  0.12649  0.78409  1.0000
  H   H739      1.0  0.33113  0.39117  0.57616  1.0000
  C   C443      1.0  0.33513  0.39991  0.55861  1.0000
  H   H740      1.0  0.24887  0.40673  0.55995  1.0000
  H   H741      1.0  0.35325  0.42149  0.55054  1.0000
  H   H742      1.0  0.32748  0.03995  0.91890  1.0000
  C   C444      1.0  0.24431  0.05861  0.79285  1.0000
  H   H743      1.0  0.25324  0.11011  0.80483  1.0000
  Fe  Fe64      1.0  0.29208  0.45607  0.50018  1.0000
  H   H744      1.0  0.27106  0.99984  0.84879  1.0000
  N   N32       1.0  0.42574  0.24657  0.62199  1.0000
  C   C445      1.0  0.42996  0.25091  0.59662  1.0000
  C   C446      1.0  0.41458  0.27322  0.62473  1.0000
  C   C447      1.0  0.42291  0.20234  0.62728  1.0000
  C   C448      1.0  0.43562  0.25933  0.63651  1.0000
  C   C449      1.0  0.43981  0.22014  0.58839  1.0000
  C   C450      1.0  0.41626  0.31949  0.62032  1.0000
  C   C451      1.0  0.41657  0.19132  0.65097  1.0000
  C   C452      1.0  0.43248  0.26827  0.66230  1.0000
  H   H745      1.0  0.42243  0.24806  0.58502  1.0000
  H   H746      1.0  0.43350  0.28178  0.59232  1.0000
  H   H747      1.0  0.41016  0.26949  0.64223  1.0000
  H   H748      1.0  0.40779  0.26395  0.61280  1.0000
  H   H749      1.0  0.41723  0.19139  0.61372  1.0000
  H   H750      1.0  0.43120  0.18269  0.62663  1.0000
  H   H751      1.0  0.44303  0.23593  0.63641  1.0000
  H   H752      1.0  0.43974  0.28732  0.62852  1.0000
  H   H753      1.0  0.44749  0.21888  0.59961  1.0000
  H   H754      1.0  0.43640  0.18900  0.58740  1.0000
  H   H755      1.0  0.44319  0.22975  0.57057  1.0000
  H   H756      1.0  0.40756  0.33602  0.62331  1.0000
  H   H757      1.0  0.42242  0.33139  0.63253  1.0000
  H   H758      1.0  0.41938  0.32756  0.60217  1.0000
  H   H759      1.0  0.42198  0.19774  0.66575  1.0000
  H   H760      1.0  0.41533  0.15779  0.65220  1.0000
  H   H761      1.0  0.40754  0.20576  0.65291  1.0000
  H   H762      1.0  0.43737  0.24625  0.67391  1.0000
  H   H763      1.0  0.42298  0.26738  0.66780  1.0000
  H   H764      1.0  0.43543  0.29920  0.66592  1.0000
  C   C453      1.0  0.43766  0.03267  0.74025  1.0000
  H   H765      1.0  0.32563  0.47269  0.58032  1.0000
  H   H766      1.0  0.31076  0.98438  0.65521  1.0000
  H   H767      1.0  0.45179  0.46760  0.51851  1.0000
  H   H768      1.0  0.25932  0.46742  0.58497  1.0000
  H   H769      1.0  0.24470  0.03989  0.57304  1.0000
  H   H770      1.0  0.33694  0.99309  0.89175  1.0000
  Fe  Fe65      1.0  0.23650  0.25538  0.58101  1.0000
  H   H771      1.0  0.25477  0.03707  0.67372  1.0000
  H   H772      1.0  0.28125  0.47336  0.57664  1.0000
  H   H773      1.0  0.31075  0.32225  0.54315  1.0000
  S   S130      1.0  0.23995  0.18734  0.58564  1.0000
  H   H774      1.0  0.33470  0.46758  0.52664  1.0000
  H   H775      1.0  0.45260  0.45152  0.56056  1.0000
  C   C454      1.0  0.48363  0.09704  0.94136  1.0000
  H   H776      1.0  0.35086  0.02457  0.69345  1.0000
  H   H777      1.0  0.33604  0.00346  0.93563  1.0000
  H   H778      1.0  0.43180  0.00273  0.99556  1.0000
  C   C455      1.0  0.31971  0.47925  0.56571  1.0000
  H   H779      1.0  0.48243  0.33015  0.74447  1.0000
  C   C456      1.0  0.25394  0.02796  0.65557  1.0000
  H   H780      1.0  0.43135  0.05951  0.73922  1.0000
  H   H781      1.0  0.25585  0.08028  0.84394  1.0000
  C   C457      1.0  0.32823  0.00718  0.92467  1.0000
  H   H782      1.0  0.27778  0.00795  0.80818  1.0000
  S   S131      1.0  0.47967  0.35413  0.62692  1.0000
  H   H783      1.0  0.26530  0.44254  0.56009  1.0000
  C   C458      1.0  0.24245  0.47077  0.55525  1.0000
  H   H784      1.0  0.30049  0.03766  0.86933  1.0000
  H   H785      1.0  0.27023  0.02235  0.78274  1.0000
  N   N33       1.0  0.32555  0.41496  0.54253  1.0000
  C   C459      1.0  0.43107  0.43686  0.61453  1.0000
  C   C460      1.0  0.24244  0.04804  0.64630  1.0000
  H   H786      1.0  0.46055  0.03033  0.67336  1.0000
  C   C461      1.0  0.31345  0.34978  0.55179  1.0000
  C   C462      1.0  0.35271  0.99729  0.70417  1.0000
  S   S132      1.0  0.23754  0.26704  0.61905  1.0000
  C   C463      1.0  0.26885  0.01752  0.80194  1.0000
  H   H787      1.0  0.26373  0.46957  0.52289  1.0000
  H   H788      1.0  0.47477  0.05247  0.67445  1.0000
  H   H789      1.0  0.31306  0.38865  0.52046  1.0000
  H   H790      1.0  0.25168  0.98637  0.81247  1.0000
  H   H791      1.0  0.24166  0.09381  0.57600  1.0000
  H   H792      1.0  0.33957  0.37151  0.55201  1.0000
  C   C464      1.0  0.23920  0.99866  0.61590  1.0000
  H   H793      1.0  0.26893  0.38742  0.50111  1.0000
  H   H794      1.0  0.30510  0.36391  0.55928  1.0000
  H   H795      1.0  0.23920  0.46972  0.57388  1.0000
  H   H796      1.0  0.25992  0.08715  0.77981  1.0000
  H   H797      1.0  0.26206  0.03803  0.64560  1.0000
  H   H798      1.0  0.24877  0.47683  0.49819  1.0000
  H   H799      1.0  0.30863  0.44830  0.54357  1.0000
  Fe  Fe66      1.0  0.48457  0.30345  0.65281  1.0000
  H   H800      1.0  0.25130  0.09495  0.61211  1.0000
  H   H801      1.0  0.46516  0.01229  0.75446  1.0000
  C   C465      1.0  0.26700  0.02888  0.85492  1.0000
  H   H802      1.0  0.32290  0.45217  0.51103  1.0000
  C   C466      1.0  0.24363  0.42636  0.54769  1.0000
  C   C467      1.0  0.29704  0.99206  0.84489  1.0000
  C   C468      1.0  0.48168  0.11316  0.96603  1.0000
  H   H803      1.0  0.32132  0.98901  0.89313  1.0000
  H   H804      1.0  0.43942  0.02674  0.75891  1.0000
  C   C469      1.0  0.33033  0.43997  0.52167  1.0000
  H   H805      1.0  0.47924  0.28892  0.76450  1.0000
  H   H806      1.0  0.48051  0.33990  0.77446  1.0000
  H   H807      1.0  0.24239  0.08108  0.65003  1.0000
  H   H808      1.0  0.25353  0.99421  0.65667  1.0000
  H   H809      1.0  0.37112  0.99144  0.69130  1.0000
  H   H810      1.0  0.47557  0.00104  0.70434  1.0000
  H   H811      1.0  0.23518  0.03473  0.65772  1.0000
  H   H812      1.0  0.44560  0.99299  0.69473  1.0000
  C   C470      1.0  0.46128  0.98877  0.74406  1.0000
  H   H813      1.0  0.45327  0.98838  0.99045  1.0000
  C   C471      1.0  0.33930  0.41737  0.50521  1.0000
  Fe  Fe67      1.0  0.41974  0.98539  0.67886  1.0000
  S   S133      1.0  0.29625  0.98659  0.70938  1.0000
  C   C472      1.0  0.48428  0.31742  0.76224  1.0000
  Fe  Fe68      1.0  0.31099  0.98475  0.73467  1.0000
  C   C473      1.0  0.23573  0.73650  0.02464  1.0000
  H   H814      1.0  0.28558  0.48954  0.13733  1.0000
  H   H815      1.0  0.44951  0.60470  0.19627  1.0000
  Fe  Fe69      1.0  0.42671  0.52732  0.21015  1.0000
  S   S134      1.0  0.42972  0.53515  0.17130  1.0000
  S   S135      1.0  0.44330  0.53338  0.23089  1.0000
  Fe  Fe70      1.0  0.41168  0.56718  0.17112  1.0000
  S   S136      1.0  0.40776  0.63292  0.15736  1.0000
  H   H816      1.0  0.43766  0.72884  0.18467  1.0000
  S   S137      1.0  0.40928  0.56268  0.21036  1.0000
  H   H817      1.0  0.37718  0.78584  0.01951  1.0000
  H   H818      1.0  0.25403  0.65456  0.01008  1.0000
  C   C474      1.0  0.35073  0.78932  0.04851  1.0000
  S   S138      1.0  0.25698  0.78042  0.09600  1.0000
  H   H819      1.0  0.35607  0.79765  0.03241  1.0000
  H   H820      1.0  0.46179  0.86302  0.03873  1.0000
  H   H821      1.0  0.35182  0.94121  0.04968  1.0000
  H   H822      1.0  0.35818  0.52634  0.47108  1.0000
  Fe  Fe71      1.0  0.39422  0.87625  0.04030  1.0000
  S   S139      1.0  0.40203  0.84820  0.07315  1.0000
  S   S140      1.0  0.37498  0.90268  0.04358  1.0000
  Fe  Fe72      1.0  0.41795  0.86324  0.01199  1.0000
  S   S141      1.0  0.42698  0.83308  0.04245  1.0000
  Fe  Fe73      1.0  0.41001  0.79995  0.05027  1.0000
  S   S142      1.0  0.40969  0.73098  0.05839  1.0000
  Fe  Fe74      1.0  0.41836  0.88389  0.06299  1.0000
  S   S143      1.0  0.42989  0.91172  0.08920  1.0000
  S   S144      1.0  0.40149  0.82613  0.01769  1.0000
  S   S145      1.0  0.41004  0.91576  0.03224  1.0000
  S   S146      1.0  0.30070  0.54437  0.45510  1.0000
  H   H823      1.0  0.23796  0.78367  0.46047  1.0000
  C   C475      1.0  0.27774  0.49561  0.14933  1.0000
  Fe  Fe75      1.0  0.46903  0.65746  0.33343  1.0000
  S   S147      1.0  0.47052  0.71743  0.35048  1.0000
  S   S148      1.0  0.45254  0.65305  0.31196  1.0000
  Fe  Fe76      1.0  0.47467  0.67891  0.38277  1.0000
  S   S149      1.0  0.46693  0.69576  0.41867  1.0000
  S   S150      1.0  0.47190  0.61942  0.36653  1.0000
  S   S151      1.0  0.30669  0.51655  0.23966  1.0000
  S   S152      1.0  0.41975  0.63336  0.47219  1.0000
  Fe  Fe77      1.0  0.29087  0.51421  0.21757  1.0000
  S   S153      1.0  0.28555  0.56927  0.19424  1.0000
  C   C476      1.0  0.43389  0.64676  0.45987  1.0000
  C   C477      1.0  0.44000  0.67929  0.46776  1.0000
  C   C478      1.0  0.45027  0.69322  0.45522  1.0000
  C   C479      1.0  0.45456  0.67478  0.43476  1.0000
  C   C480      1.0  0.44876  0.64106  0.42746  1.0000
  C   C481      1.0  0.43841  0.62741  0.43988  1.0000
  C   C482      1.0  0.34110  0.92288  0.02219  1.0000
  H   H824      1.0  0.45474  0.71919  0.46108  1.0000
  H   H825      1.0  0.45208  0.62617  0.41196  1.0000
  H   H826      1.0  0.43376  0.60208  0.43378  1.0000
  H   H827      1.0  0.26430  0.49618  0.19137  1.0000
  C   C483      1.0  0.24517  0.66993  0.01365  1.0000
  S   S154      1.0  0.24054  0.67704  0.10466  1.0000
  H   H828      1.0  0.27468  0.70756  0.22289  1.0000
  H   H829      1.0  0.27250  0.59146  0.29367  1.0000
  H   H830      1.0  0.27472  0.65901  0.28840  1.0000
  C   C484      1.0  0.36200  0.90096  0.02712  1.0000
  C   C485      1.0  0.35165  0.92323  0.03446  1.0000
  H   H831      1.0  0.25036  0.74906  0.46774  1.0000
  H   H832      1.0  0.25068  0.50960  0.13640  1.0000
  H   H833      1.0  0.47267  0.59919  0.45244  1.0000
  C   C486      1.0  0.25918  0.80979  0.06970  1.0000
  C   C487      1.0  0.24984  0.81948  0.05511  1.0000
  C   C488      1.0  0.25201  0.84134  0.03375  1.0000
  C   C489      1.0  0.26349  0.85422  0.02701  1.0000
  C   C490      1.0  0.27275  0.84572  0.04197  1.0000
  C   C491      1.0  0.27060  0.82347  0.06320  1.0000
  C   C492      1.0  0.47110  0.54104  0.47371  1.0000
  H   H834      1.0  0.24477  0.84837  0.02242  1.0000
  H   H835      1.0  0.28163  0.85550  0.03699  1.0000
  H   H836      1.0  0.27785  0.81635  0.07451  1.0000
  C   C493      1.0  0.24798  0.61739  0.17733  1.0000
  C   C494      1.0  0.25790  0.62862  0.16322  1.0000
  C   C495      1.0  0.26933  0.61354  0.16870  1.0000
  C   C496      1.0  0.27095  0.58667  0.18810  1.0000
  C   C497      1.0  0.26104  0.57560  0.20237  1.0000
  C   C498      1.0  0.24962  0.59124  0.19710  1.0000
  H   H837      1.0  0.25677  0.64899  0.14807  1.0000
  H   H838      1.0  0.27696  0.62261  0.15772  1.0000
  H   H839      1.0  0.26220  0.55545  0.21760  1.0000
  C   C499      1.0  0.29323  0.51213  0.37419  1.0000
  C   C500      1.0  0.40876  0.65935  0.12959  1.0000
  C   C501      1.0  0.41079  0.63916  0.10886  1.0000
  C   C502      1.0  0.41113  0.66160  0.08728  1.0000
  C   C503      1.0  0.40965  0.70446  0.08613  1.0000
  C   C504      1.0  0.40776  0.72470  0.10689  1.0000
  C   C505      1.0  0.40726  0.70222  0.12845  1.0000
  H   H840      1.0  0.41192  0.60624  0.10941  1.0000
  H   H841      1.0  0.41255  0.64560  0.07133  1.0000
  H   H842      1.0  0.40659  0.75761  0.10633  1.0000
  H   H843      1.0  0.40567  0.71819  0.14436  1.0000
  C   C506      1.0  0.44540  0.56484  0.25455  1.0000
  C   C507      1.0  0.45671  0.56503  0.26388  1.0000
  C   C508      1.0  0.45901  0.59125  0.28171  1.0000
  C   C509      1.0  0.45001  0.61778  0.29038  1.0000
  C   C510      1.0  0.43866  0.61719  0.28126  1.0000
  C   C511      1.0  0.43632  0.59066  0.26360  1.0000
  H   H844      1.0  0.46381  0.54516  0.25712  1.0000
  H   H845      1.0  0.46778  0.59131  0.28855  1.0000
  H   H846      1.0  0.43161  0.63742  0.28790  1.0000
  H   H847      1.0  0.42754  0.59049  0.25686  1.0000
  H   H848      1.0  0.44918  0.63477  0.14785  1.0000
  S   S155      1.0  0.40209  0.50908  0.16631  1.0000
  C   C512      1.0  0.35579  0.53635  0.48837  1.0000
  C   C513      1.0  0.24612  0.96011  0.03754  1.0000
  H   H849      1.0  0.25855  0.67486  0.05111  1.0000
  C   C514      1.0  0.45995  0.64129  0.21707  1.0000
  H   H850      1.0  0.38589  0.74391  0.03117  1.0000
  H   H851      1.0  0.46685  0.61614  0.21716  1.0000
  H   H852      1.0  0.45493  0.63844  0.23403  1.0000
  H   H853      1.0  0.46474  0.67031  0.21560  1.0000
  H   H854      1.0  0.30208  0.65810  0.28218  1.0000
  H   H855      1.0  0.36197  0.71864  0.06423  1.0000
  C   C515      1.0  0.23797  0.51147  0.16571  1.0000
  C   C516      1.0  0.26810  0.69797  0.23690  1.0000
  N   N34       1.0  0.45967  0.54916  0.48785  1.0000
  C   C517      1.0  0.37804  0.78445  0.05743  1.0000
  C   C518      1.0  0.45546  0.88281  0.04886  1.0000
  H   H856      1.0  0.27409  0.93548  0.08317  1.0000
  S   S156      1.0  0.29549  0.51015  0.30292  1.0000
  H   H857      1.0  0.23627  0.81977  0.49381  1.0000
  C   C519      1.0  0.44938  0.53567  0.47467  1.0000
  H   H858      1.0  0.43668  0.65999  0.13514  1.0000
  H   H859      1.0  0.29357  0.68579  0.23809  1.0000
  C   C520      1.0  0.47208  0.48906  0.20938  1.0000
  C   C521      1.0  0.44466  0.70968  0.19347  1.0000
  C   C522      1.0  0.29385  0.52339  0.35010  1.0000
  H   H860      1.0  0.35870  0.83314  0.06782  1.0000
  N   N35       1.0  0.44130  0.66545  0.19481  1.0000
  H   H861      1.0  0.38693  0.77634  0.06430  1.0000
  H   H862      1.0  0.24200  0.58280  0.20826  1.0000
  H   H863      1.0  0.36370  0.85000  0.10457  1.0000
  H   H864      1.0  0.37003  0.74268  0.03284  1.0000
  H   H865      1.0  0.26351  0.58077  0.26939  1.0000
  C   C523      1.0  0.44838  0.91281  0.03285  1.0000
  H   H866      1.0  0.47306  0.91600  0.02146  1.0000
  C   C524      1.0  0.32551  0.53727  0.41039  1.0000
  H   H867      1.0  0.35901  0.72626  0.09379  1.0000
  H   H868      1.0  0.43654  0.69483  0.48295  1.0000
  H   H869      1.0  0.34236  0.80832  0.04756  1.0000
  C   C525      1.0  0.25815  0.70870  0.04958  1.0000
  H   H870      1.0  0.44721  0.95024  0.11481  1.0000
  H   H871      1.0  0.26832  0.63421  0.22983  1.0000
  H   H872      1.0  0.25373  0.93582  0.09381  1.0000
  S   S157      1.0  0.29498  0.93416  0.01819  1.0000
  C   C526      1.0  0.37277  0.83628  0.10146  1.0000
  H   H873      1.0  0.45351  0.75214  0.21416  1.0000
  C   C527      1.0  0.25735  0.72535  0.02415  1.0000
  C   C528      1.0  0.45876  0.97562  0.03774  1.0000
  H   H874      1.0  0.37414  0.67082  0.08611  1.0000
  H   H875      1.0  0.44731  0.69018  0.14775  1.0000
  S   S158      1.0  0.27301  0.59533  0.49200  1.0000
  C   C529      1.0  0.44338  0.97347  0.10317  1.0000
  C   C530      1.0  0.30321  0.62797  0.23592  1.0000
  N   N36       1.0  0.42684  0.68929  0.37809  1.0000
  C   C531      1.0  0.42292  0.70294  0.40210  1.0000
  C   C532      1.0  0.43910  0.70533  0.37252  1.0000
  C   C533      1.0  0.42725  0.64314  0.37890  1.0000
  C   C534      1.0  0.41786  0.70635  0.36132  1.0000
  C   C535      1.0  0.41175  0.68299  0.41368  1.0000
  C   C536      1.0  0.43993  0.75223  0.37196  1.0000
  C   C537      1.0  0.43496  0.62168  0.35995  1.0000
  C   C538      1.0  0.42066  0.70061  0.33514  1.0000
  H   H876      1.0  0.43018  0.69736  0.41441  1.0000
  H   H877      1.0  0.42098  0.73648  0.40185  1.0000
  H   H878      1.0  0.44299  0.69535  0.35559  1.0000
  H   H879      1.0  0.44544  0.69234  0.38543  1.0000
  H   H880      1.0  0.43081  0.63086  0.39554  1.0000
  H   H881      1.0  0.41813  0.63128  0.37851  1.0000
  H   H882      1.0  0.40910  0.69237  0.36531  1.0000
  H   H883      1.0  0.41585  0.73944  0.36364  1.0000
  H   H884      1.0  0.41329  0.64985  0.41776  1.0000
  H   H885      1.0  0.40961  0.69696  0.43066  1.0000
  H   H886      1.0  0.40384  0.68804  0.40311  1.0000
  H   H887      1.0  0.44916  0.76056  0.36665  1.0000
  H   H888      1.0  0.43408  0.76759  0.35906  1.0000
  H   H889      1.0  0.43806  0.76456  0.38940  1.0000
  H   H890      1.0  0.43230  0.63040  0.34217  1.0000
  H   H891      1.0  0.43391  0.58818  0.36233  1.0000
  H   H892      1.0  0.44456  0.62678  0.36149  1.0000
  H   H893      1.0  0.41688  0.67204  0.32963  1.0000
  H   H894      1.0  0.43022  0.70068  0.32982  1.0000
  H   H895      1.0  0.41664  0.72671  0.32490  1.0000
  N   N37       1.0  0.28181  0.64064  0.25470  1.0000
  H   H896      1.0  0.31682  0.49535  0.37209  1.0000
  S   S159      1.0  0.26592  0.88013  0.99964  1.0000
  H   H897      1.0  0.32446  0.55019  0.42788  1.0000
  C   C539      1.0  0.28286  0.66279  0.27680  1.0000
  S   S160      1.0  0.33283  0.51984  0.47791  1.0000
  C   C540      1.0  0.27485  0.96294  0.07124  1.0000
  C   C541      1.0  0.29137  0.65324  0.23657  1.0000
  C   C542      1.0  0.29457  0.49373  0.33310  1.0000
  C   C543      1.0  0.25082  0.50482  0.15567  1.0000
  H   H898      1.0  0.28341  0.69625  0.27298  1.0000
  C   C544      1.0  0.44800  0.96643  0.00169  1.0000
  H   H899      1.0  0.31743  0.54692  0.40094  1.0000
  H   H900      1.0  0.24226  0.65924  0.03162  1.0000
  H   H901      1.0  0.23790  0.88946  0.09404  1.0000
  C   C545      1.0  0.27248  0.57774  0.27648  1.0000
  C   C546      1.0  0.47252  0.56581  0.45026  1.0000
  H   H902      1.0  0.29296  0.66770  0.30756  1.0000
  H   H903      1.0  0.43093  0.62177  0.21574  1.0000
  C   C547      1.0  0.43443  0.96309  0.08857  1.0000
  H   H904      1.0  0.43648  0.66004  0.23201  1.0000
  H   H905      1.0  0.37711  0.85218  0.08613  1.0000
  H   H906      1.0  0.25288  0.52844  0.49481  1.0000
  H   H907      1.0  0.28815  0.65144  0.21863  1.0000
  H   H908      1.0  0.33328  0.94040  0.02805  1.0000
  C   C548      1.0  0.43718  0.53546  0.48816  1.0000
  C   C549      1.0  0.26603  0.96340  0.05153  1.0000
  H   H909      1.0  0.24097  0.81008  0.06032  1.0000
  H   H910      1.0  0.33333  0.55134  0.40137  1.0000
  H   H911      1.0  0.27412  0.52657  0.14440  1.0000
  H   H912      1.0  0.37792  0.84236  0.11679  1.0000
  H   H913      1.0  0.43025  0.52785  0.47620  1.0000
  H   H914      1.0  0.43822  0.74815  0.22208  1.0000
  H   H915      1.0  0.25655  0.90167  0.07109  1.0000
  C   C550      1.0  0.23817  0.91307  0.07950  1.0000
  H   H916      1.0  0.38151  0.77718  0.10223  1.0000
  H   H917      1.0  0.25919  0.70227  0.22947  1.0000
  H   H918      1.0  0.41589  0.67369  0.23230  1.0000
  C   C551      1.0  0.36590  0.73117  0.07943  1.0000
  H   H919      1.0  0.36657  0.77777  0.11368  1.0000
  H   H920      1.0  0.38032  0.70910  0.10219  1.0000
  H   H921      1.0  0.26823  0.71860  0.25154  1.0000
  Fe  Fe78      1.0  0.28664  0.54386  0.48467  1.0000
  H   H922      1.0  0.45298  0.71366  0.18239  1.0000
  C   C552      1.0  0.37240  0.78974  0.09884  1.0000
  H   H923      1.0  0.42734  0.67791  0.17060  1.0000
  H   H924      1.0  0.42136  0.71139  0.21120  1.0000
  H   H925      1.0  0.44368  0.89464  0.02060  1.0000
  H   H926      1.0  0.34812  0.75712  0.04875  1.0000
  N   N38       1.0  0.45546  0.94589  0.02016  1.0000
  C   C553      1.0  0.43273  0.65503  0.21505  1.0000
  C   C554      1.0  0.37757  0.76268  0.03423  1.0000
  H   H927      1.0  0.26248  0.64625  0.25802  1.0000
  H   H928      1.0  0.43169  0.62539  0.17417  1.0000
  C   C555      1.0  0.44271  0.66087  0.14981  1.0000
  C   C556      1.0  0.45215  0.63718  0.19618  1.0000
  H   H929      1.0  0.37834  0.81771  0.05297  1.0000
  Fe  Fe79      1.0  0.40069  0.50292  0.20543  1.0000
  H   H930      1.0  0.48237  0.96699  0.27375  1.0000
  H   H931      1.0  0.30684  0.62070  0.25314  1.0000
  H   H932      1.0  0.48098  0.50274  0.20842  1.0000
  H   H933      1.0  0.46610  0.51048  0.19960  1.0000
  C   C557      1.0  0.43520  0.65676  0.17292  1.0000
  H   H934      1.0  0.38405  0.70570  0.07137  1.0000
  H   H935      1.0  0.48119  0.55687  0.44147  1.0000
  H   H936      1.0  0.47649  0.61335  0.49205  1.0000
  C   C558      1.0  0.42055  0.67815  0.21494  1.0000
  C   C559      1.0  0.35701  0.79994  0.07045  1.0000
  H   H937      1.0  0.23772  0.76832  0.02840  1.0000
  C   C560      1.0  0.23667  0.65138  0.99721  1.0000
  H   H938      1.0  0.25074  0.72075  0.06095  1.0000
  Fe  Fe80      1.0  0.31257  0.51140  0.48100  1.0000
  H   H939      1.0  0.25571  0.53149  0.16084  1.0000
  H   H940      1.0  0.41475  0.66567  0.20218  1.0000
  Fe  Fe81      1.0  0.24017  0.74568  0.10516  1.0000
  C   C561      1.0  0.44633  0.72983  0.21680  1.0000
  H   H941      1.0  0.35039  0.79695  0.08544  1.0000
  H   H942      1.0  0.23649  0.95681  0.04165  1.0000
  H   H943      1.0  0.45114  0.50466  0.46803  1.0000
  H   H944      1.0  0.26647  0.71916  0.05658  1.0000
  H   H945      1.0  0.29370  0.61747  0.29717  1.0000
  H   H946      1.0  0.27431  0.54454  0.27975  1.0000
  H   H947      1.0  0.25838  0.75882  0.02460  1.0000
  C   C562      1.0  0.26990  0.65265  0.24502  1.0000
  H   H948      1.0  0.28141  0.57948  0.24252  1.0000
  H   H949      1.0  0.44817  0.55579  0.45884  1.0000
  H   H950      1.0  0.44888  0.70887  0.23144  1.0000
  H   H951      1.0  0.45830  0.64191  0.18067  1.0000
  H   H952      1.0  0.33046  0.51959  0.36736  1.0000
  H   H953      1.0  0.29271  0.53537  0.38692  1.0000
  H   H954      1.0  0.30209  0.59914  0.22720  1.0000
  H   H955      1.0  0.31002  0.64500  0.22516  1.0000
  H   H956      1.0  0.46512  0.96104  0.05003  1.0000
  C   C563      1.0  0.37681  0.70314  0.08508  1.0000
  N   N39       1.0  0.36834  0.77603  0.07588  1.0000
  C   C564      1.0  0.28218  0.59486  0.25912  1.0000
  H   H957      1.0  0.44919  0.86233  0.05875  1.0000
  H   H958      1.0  0.48066  0.93902  0.31306  1.0000
  H   H959      1.0  0.23558  0.89774  0.06385  1.0000
  C   C565      1.0  0.29357  0.65028  0.29146  1.0000
  H   H960      1.0  0.44106  0.92636  0.04398  1.0000
  H   H961      1.0  0.26836  0.93616  0.04117  1.0000
  H   H962      1.0  0.29082  0.58339  0.26574  1.0000
  H   H963      1.0  0.23912  0.73340  0.44985  1.0000
  H   H964      1.0  0.46016  0.89866  0.06201  1.0000
  H   H965      1.0  0.43034  0.96777  0.02005  1.0000
  C   C566      1.0  0.25092  0.92873  0.07623  1.0000
  N   N40       1.0  0.25297  0.96448  0.05907  1.0000
  H   H966      1.0  0.29375  0.55539  0.34460  1.0000
  H   H967      1.0  0.46553  0.55932  0.43824  1.0000
  H   H968      1.0  0.46914  0.48730  0.22806  1.0000
  H   H969      1.0  0.36946  0.86056  0.00150  1.0000
  H   H970      1.0  0.26546  0.71358  0.01435  1.0000
  N   N41       1.0  0.24622  0.71575  0.01214  1.0000
  H   H971      1.0  0.24902  0.93143  0.02899  1.0000
  H   H972      1.0  0.47898  0.54637  0.48391  1.0000
  C   C567      1.0  0.24067  0.75158  0.46511  1.0000
  H   H973      1.0  0.28112  0.49549  0.16704  1.0000
  H   H974      1.0  0.34980  0.51656  0.37163  1.0000
  H   H975      1.0  0.47169  0.95326  0.99893  1.0000
  H   H976      1.0  0.23781  0.52482  0.18301  1.0000
  C   C568      1.0  0.36161  0.87788  0.00739  1.0000
  H   H977      1.0  0.28406  0.96209  0.06340  1.0000
  C   C569      1.0  0.46669  0.92859  0.00853  1.0000
  H   H978      1.0  0.45605  0.61154  0.47540  1.0000
  C   C570      1.0  0.32657  0.48912  0.37025  1.0000
  H   H979      1.0  0.23666  0.70203  0.49000  1.0000
  H   H980      1.0  0.32603  0.48775  0.33265  1.0000
  C   C571      1.0  0.34071  0.89991  0.00244  1.0000
  H   H981      1.0  0.47208  0.50836  0.46947  1.0000
  H   H982      1.0  0.36118  0.48899  0.38676  1.0000
  H   H983      1.0  0.23619  0.61814  0.00172  1.0000
  H   H984      1.0  0.35037  0.51797  0.40316  1.0000
  H   H985      1.0  0.37220  0.48495  0.18481  1.0000
  C   C572      1.0  0.45783  0.59407  0.49191  1.0000
  C   C573      1.0  0.32659  0.49019  0.41330  1.0000
  C   C574      1.0  0.35160  0.49859  0.38795  1.0000
  S   S161      1.0  0.27921  0.48442  0.47514  1.0000
  H   H986      1.0  0.43450  0.56563  0.49490  1.0000
  S   S162      1.0  0.23806  0.68977  0.64212  1.0000
  S   S163      1.0  0.29640  0.90996  0.96357  1.0000
  H   H987      1.0  0.45563  0.74626  0.70394  1.0000
  C   C575      1.0  0.45160  0.97668  0.70720  1.0000
  H   H988      1.0  0.44954  0.76739  0.87430  1.0000
  Fe  Fe82      1.0  0.47506  0.80107  0.88493  1.0000
  S   S164      1.0  0.47777  0.86730  0.87597  1.0000
  S   S165      1.0  0.46345  0.77405  0.91496  1.0000
  S   S166      1.0  0.46302  0.89312  0.81794  1.0000
  S   S167      1.0  0.47188  0.78610  0.84817  1.0000
  Fe  Fe83      1.0  0.29141  0.92557  0.72588  1.0000
  H   H989      1.0  0.46853  0.53380  0.51979  1.0000
  S   S168      1.0  0.28890  0.87577  0.70031  1.0000
  H   H990      1.0  0.31930  0.91817  0.64013  1.0000
  H   H991      1.0  0.43552  0.88047  0.82794  1.0000
  H   H992      1.0  0.35594  0.74006  0.58626  1.0000
  S   S169      1.0  0.32764  0.89802  0.98623  1.0000
  S   S170      1.0  0.30678  0.92216  0.74978  1.0000
  H   H993      1.0  0.44992  0.83393  0.88181  1.0000
  S   S171      1.0  0.24656  0.76839  0.60828  1.0000
  C   C576      1.0  0.25075  0.97451  0.60866  1.0000
  Fe  Fe84      1.0  0.24559  0.70037  0.60526  1.0000
  S   S172      1.0  0.26133  0.65942  0.59352  1.0000
  H   H994      1.0  0.24383  0.57303  0.53227  1.0000
  H   H995      1.0  0.35962  0.90045  0.74281  1.0000
  Fe  Fe85      1.0  0.41901  0.56082  0.55047  1.0000
  S   S173      1.0  0.40805  0.55972  0.51887  1.0000
  Fe  Fe86      1.0  0.40966  0.64825  0.56155  1.0000
  S   S174      1.0  0.39850  0.65313  0.52993  1.0000
  S   S175      1.0  0.40791  0.69063  0.59256  1.0000
  Fe  Fe87      1.0  0.39296  0.58901  0.53987  1.0000
  S   S176      1.0  0.37301  0.57471  0.54426  1.0000
  H   H996      1.0  0.35012  0.71694  0.55085  1.0000
  S   S177      1.0  0.40346  0.58500  0.57243  1.0000
  S   S178      1.0  0.42599  0.62354  0.54151  1.0000
  Fe  Fe88      1.0  0.42548  0.90172  0.70302  1.0000
  S   S179      1.0  0.43147  0.93155  0.66862  1.0000
  S   S180      1.0  0.43934  0.86195  0.72216  1.0000
  Fe  Fe89      1.0  0.39922  0.92999  0.69686  1.0000
  S   S181      1.0  0.40364  0.96204  0.66203  1.0000
  S   S182      1.0  0.38112  0.91794  0.71592  1.0000
  Fe  Fe90      1.0  0.41516  0.90540  0.65452  1.0000
  S   S183      1.0  0.41710  0.87419  0.61951  1.0000
  H   H997      1.0  0.37883  0.60604  0.61068  1.0000
  S   S184      1.0  0.40993  0.87253  0.68822  1.0000
  H   H998      1.0  0.46965  0.60162  0.52076  1.0000
  C   C577      1.0  0.41055  0.74198  0.59943  1.0000
  C   C578      1.0  0.41547  0.77052  0.58319  1.0000
  C   C579      1.0  0.41724  0.81085  0.58957  1.0000
  C   C580      1.0  0.41410  0.82340  0.61220  1.0000
  C   C581      1.0  0.40906  0.79494  0.62838  1.0000
  C   C582      1.0  0.40738  0.75454  0.62205  1.0000
  H   H999      1.0  0.41794  0.76156  0.56573  1.0000
  H   H1000     1.0  0.42114  0.83251  0.57688  1.0000
  H   H1001     1.0  0.40654  0.80402  0.64581  1.0000
  H   H1002     1.0  0.40352  0.73287  0.63477  1.0000
  S   S185      1.0  0.24064  0.79402  0.67599  1.0000
  H   H1003     1.0  0.24937  0.78528  0.96399  1.0000
  C   C583      1.0  0.36197  0.56089  0.52507  1.0000
  H   H1004     1.0  0.38733  0.78017  0.58083  1.0000
  S   S186      1.0  0.29896  0.51576  0.51096  1.0000
  H   H1005     1.0  0.32884  0.85396  0.64404  1.0000
  H   H1006     1.0  0.36098  0.64609  0.56150  1.0000
  C   C584      1.0  0.26462  0.64339  0.56494  1.0000
  C   C585      1.0  0.27476  0.61803  0.56069  1.0000
  C   C586      1.0  0.27746  0.60316  0.53845  1.0000
  C   C587      1.0  0.27008  0.61388  0.52015  1.0000
  C   C588      1.0  0.26003  0.63974  0.52430  1.0000
  C   C589      1.0  0.25727  0.65430  0.54664  1.0000
  H   H1007     1.0  0.28052  0.60962  0.57476  1.0000
  H   H1008     1.0  0.28528  0.58366  0.53545  1.0000
  H   H1009     1.0  0.46325  0.68940  0.86052  1.0000
  H   H1010     1.0  0.24941  0.67352  0.54984  1.0000
  C   C590      1.0  0.41965  0.86581  0.90667  1.0000
  H   H1011     1.0  0.24876  0.94163  0.60820  1.0000
  C   C591      1.0  0.35772  0.92744  0.73189  1.0000
  C   C592      1.0  0.36683  0.94352  0.71684  1.0000
  H   H1012     1.0  0.47286  0.87452  0.99001  1.0000
  C   C593      1.0  0.24621  0.75694  0.51538  1.0000
  H   H1013     1.0  0.45726  0.87709  0.99449  1.0000
  H   H1014     1.0  0.25794  0.97673  0.62082  1.0000
  H   H1015     1.0  0.33273  0.83068  0.67074  1.0000
  C   C594      1.0  0.27525  0.85487  0.69328  1.0000
  C   C595      1.0  0.27523  0.82872  0.67463  1.0000
  C   C596      1.0  0.26468  0.81054  0.66880  1.0000
  C   C597      1.0  0.25404  0.81788  0.68180  1.0000
  C   C598      1.0  0.25405  0.84418  0.70039  1.0000
  C   C599      1.0  0.26456  0.86280  0.70602  1.0000
  H   H1016     1.0  0.28343  0.82225  0.66469  1.0000
  H   H1017     1.0  0.26483  0.79029  0.65451  1.0000
  H   H1018     1.0  0.24589  0.85003  0.71059  1.0000
  H   H1019     1.0  0.26444  0.88271  0.72045  1.0000
  C   C600      1.0  0.45620  0.88267  0.79181  1.0000
  C   C601      1.0  0.44710  0.90954  0.78373  1.0000
  C   C602      1.0  0.44169  0.90328  0.76269  1.0000
  C   C603      1.0  0.44541  0.87023  0.74936  1.0000
  C   C604      1.0  0.45441  0.84312  0.75757  1.0000
  C   C605      1.0  0.45975  0.84918  0.77870  1.0000
  H   H1020     1.0  0.44426  0.93547  0.79377  1.0000
  H   H1021     1.0  0.43470  0.92416  0.75673  1.0000
  H   H1022     1.0  0.45735  0.81739  0.74744  1.0000
  H   H1023     1.0  0.46675  0.82829  0.78465  1.0000
  C   C606      1.0  0.43853  0.85221  0.96213  1.0000
  C   C607      1.0  0.43924  0.80972  0.96560  1.0000
  C   C608      1.0  0.44710  0.78620  0.95134  1.0000
  C   C609      1.0  0.45443  0.80493  0.93374  1.0000
  C   C610      1.0  0.45396  0.84753  0.93076  1.0000
  C   C611      1.0  0.44594  0.87096  0.94469  1.0000
  H   H1024     1.0  0.43358  0.79491  0.97897  1.0000
  H   H1025     1.0  0.44741  0.75328  0.95383  1.0000
  H   H1026     1.0  0.45963  0.86240  0.91748  1.0000
  H   H1027     1.0  0.44547  0.90382  0.94191  1.0000
  H   H1028     1.0  0.46241  0.67261  0.89039  1.0000
  C   C612      1.0  0.43177  0.74969  0.67361  1.0000
  H   H1029     1.0  0.34561  0.68150  0.61635  1.0000
  H   H1030     1.0  0.43094  0.82414  0.65219  1.0000
  C   C613      1.0  0.34619  0.94597  0.73302  1.0000
  H   H1031     1.0  0.46079  0.76139  0.65255  1.0000
  H   H1032     1.0  0.28702  0.89779  0.86030  1.0000
  H   H1033     1.0  0.33936  0.93352  0.74491  1.0000
  Fe  Fe91      1.0  0.47590  0.85129  0.83857  1.0000
  N   N42       1.0  0.33077  0.93563  0.90758  1.0000
  C   C614      1.0  0.37174  0.62626  0.60309  1.0000
  H   H1034     1.0  0.43953  0.73032  0.86656  1.0000
  S   S187      1.0  0.41453  0.95642  0.71431  1.0000
  C   C615      1.0  0.29052  0.94333  0.88470  1.0000
  H   H1035     1.0  0.33123  0.87166  0.72989  1.0000
  H   H1036     1.0  0.44515  0.94364  0.98959  1.0000
  C   C616      1.0  0.44047  0.75583  0.63384  1.0000
  H   H1037     1.0  0.46564  0.64752  0.50471  1.0000
  H   H1038     1.0  0.32378  0.50080  0.55252  1.0000
  H   H1039     1.0  0.44243  0.90193  0.89382  1.0000
  H   H1040     1.0  0.37287  0.77774  0.59490  1.0000
  C   C617      1.0  0.46811  0.61464  0.50299  1.0000
  H   H1041     1.0  0.24032  0.59234  0.56014  1.0000
  H   H1042     1.0  0.42640  0.83853  0.82135  1.0000
  C   C618      1.0  0.34087  0.55020  0.51879  1.0000
  H   H1043     1.0  0.45338  0.97784  0.75453  1.0000
  C   C619      1.0  0.33340  0.91648  0.88449  1.0000
  C   C620      1.0  0.31861  0.96825  0.66279  1.0000
  H   H1044     1.0  0.42406  0.89527  0.90419  1.0000
  H   H1045     1.0  0.35959  0.93071  0.92822  1.0000
  H   H1046     1.0  0.25608  0.71597  0.97890  1.0000
  C   C621      1.0  0.29426  0.98291  0.88752  1.0000
  H   H1047     1.0  0.45283  0.53614  0.52308  1.0000
  H   H1048     1.0  0.25742  0.78845  0.98952  1.0000
  Fe  Fe92      1.0  0.41439  0.62340  0.51083  1.0000
  H   H1049     1.0  0.24901  0.53393  0.58068  1.0000
  H   H1050     1.0  0.35301  0.97441  0.91358  1.0000
  H   H1051     1.0  0.34756  0.57133  0.55043  1.0000
  Fe  Fe93      1.0  0.29445  0.95485  0.77569  1.0000
  S   S188      1.0  0.27794  0.98427  0.97963  1.0000
  H   H1052     1.0  0.42168  0.89142  0.86379  1.0000
  C   C622      1.0  0.44485  0.89675  0.87535  1.0000
  C   C623      1.0  0.24135  0.56370  0.55058  1.0000
  S   S189      1.0  0.29207  0.93187  0.81415  1.0000
  C   C624      1.0  0.24906  0.77752  0.98300  1.0000
  C   C625      1.0  0.24826  0.77421  0.53927  1.0000
  H   H1053     1.0  0.31150  0.93146  0.90997  1.0000
  C   C626      1.0  0.36424  0.97860  0.70293  1.0000
  H   H1054     1.0  0.24133  0.79483  0.99077  1.0000
  H   H1055     1.0  0.32584  0.92402  0.70540  1.0000
  H   H1056     1.0  0.31066  0.83073  0.68440  1.0000
  C   C627      1.0  0.31886  0.87367  0.92400  1.0000
  H   H1057     1.0  0.45418  0.72022  0.66782  1.0000
  H   H1058     1.0  0.25428  0.64800  0.51023  1.0000
  H   H1059     1.0  0.24000  0.65428  0.97876  1.0000
  C   C628      1.0  0.42694  0.82963  0.89628  1.0000
  C   C629      1.0  0.46868  0.68225  0.87586  1.0000
  S   S190      1.0  0.27877  0.95259  0.75279  1.0000
  H   H1060     1.0  0.47244  0.62105  0.86696  1.0000
  H   H1061     1.0  0.47286  0.71101  0.87962  1.0000
  H   H1062     1.0  0.27880  0.50285  0.55042  1.0000
  H   H1063     1.0  0.44570  0.95756  0.71901  1.0000
  C   C630      1.0  0.37723  0.72975  0.56989  1.0000
  C   C631      1.0  0.29320  0.95256  0.84208  1.0000
  Fe  Fe94      1.0  0.29341  0.97630  0.95334  1.0000
  C   C632      1.0  0.43260  0.79278  0.86126  1.0000
  H   H1064     1.0  0.34902  0.88289  0.69656  1.0000
  H   H1065     1.0  0.45418  0.79918  0.69415  1.0000
  C   C633      1.0  0.43999  0.81481  0.65788  1.0000
  H   H1066     1.0  0.32173  0.86464  0.94176  1.0000
  H   H1067     1.0  0.32429  0.85565  0.91142  1.0000
  H   H1068     1.0  0.30956  0.86430  0.92254  1.0000
  S   S191      1.0  0.42826  0.88313  0.97840  1.0000
  C   C634      1.0  0.37756  0.66427  0.59144  1.0000
  H   H1069     1.0  0.25196  0.77463  0.50256  1.0000
  C   C635      1.0  0.36566  0.67463  0.55699  1.0000
  H   H1070     1.0  0.42087  0.80350  0.89858  1.0000
  H   H1071     1.0  0.33702  0.88461  0.88679  1.0000
  H   H1072     1.0  0.43045  0.69900  0.63856  1.0000
  H   H1073     1.0  0.44748  0.87169  0.64420  1.0000
  C   C636      1.0  0.24945  0.50507  0.50786  1.0000
  H   H1074     1.0  0.32595  0.90349  0.85155  1.0000
  C   C637      1.0  0.34841  0.68290  0.59755  1.0000
  H   H1075     1.0  0.37272  0.74995  0.55680  1.0000
  H   H1076     1.0  0.30868  0.91398  0.66398  1.0000
  C   C638      1.0  0.33897  0.91106  0.66772  1.0000
  C   C639      1.0  0.44003  0.75999  0.87489  1.0000
  H   H1077     1.0  0.25006  0.72515  0.51581  1.0000
  H   H1078     1.0  0.41071  0.86893  0.89937  1.0000
  C   C640      1.0  0.45778  0.76879  0.68943  1.0000
  H   H1079     1.0  0.36547  0.63444  0.61773  1.0000
  H   H1080     1.0  0.34085  0.91590  0.64861  1.0000
  H   H1081     1.0  0.31324  0.89618  0.70062  1.0000
  H   H1082     1.0  0.32005  0.84044  0.72074  1.0000
  C   C641      1.0  0.34952  0.88540  0.67732  1.0000
  H   H1083     1.0  0.38186  0.67881  0.60565  1.0000
  H   H1084     1.0  0.43959  0.91752  0.86377  1.0000
  H   H1085     1.0  0.24360  0.75699  0.55383  1.0000
  H   H1086     1.0  0.44652  0.69085  0.63810  1.0000
  H   H1087     1.0  0.36255  0.71645  0.61108  1.0000
  C   C642      1.0  0.32761  0.85934  0.71419  1.0000
  N   N43       1.0  0.44159  0.76891  0.65845  1.0000
  H   H1088     1.0  0.33467  0.83916  0.70662  1.0000
  H   H1089     1.0  0.35786  0.90149  0.67241  1.0000
  H   H1090     1.0  0.42457  0.79940  0.69522  1.0000
  H   H1091     1.0  0.42330  0.75144  0.66432  1.0000
  H   H1092     1.0  0.43272  0.77171  0.62578  1.0000
  N   N44       1.0  0.43169  0.83460  0.87123  1.0000
  C   C643      1.0  0.34076  0.92460  0.92340  1.0000
  C   C644      1.0  0.42310  0.86047  0.85699  1.0000
  Fe  Fe95      1.0  0.30923  0.93113  0.98916  1.0000
  C   C645      1.0  0.44398  0.85157  0.86983  1.0000
  H   H1093     1.0  0.48222  0.65658  0.85264  1.0000
  C   C646      1.0  0.42665  0.86704  0.83084  1.0000
  H   H1094     1.0  0.30724  0.84878  0.65526  1.0000
  C   C647      1.0  0.44905  0.83847  0.64196  1.0000
  H   H1095     1.0  0.35624  0.92782  0.89836  1.0000
  H   H1096     1.0  0.43675  0.79417  0.84328  1.0000
  C   C648      1.0  0.34992  0.56164  0.53307  1.0000
  H   H1097     1.0  0.41416  0.84686  0.85829  1.0000
  H   H1098     1.0  0.31795  0.93379  0.93673  1.0000
  C   C649      1.0  0.31804  0.92209  0.65923  1.0000
  H   H1099     1.0  0.43678  0.75517  0.89329  1.0000
  C   C650      1.0  0.25122  0.53662  0.56158  1.0000
  S   S192      1.0  0.43350  0.51058  0.55494  1.0000
  H   H1100     1.0  0.25789  0.77134  0.54257  1.0000
  H   H1101     1.0  0.42357  0.78055  0.85985  1.0000
  H   H1102     1.0  0.35342  0.68086  0.52897  1.0000
  H   H1103     1.0  0.31839  0.97491  0.68142  1.0000
  Fe  Fe96      1.0  0.28207  0.91914  0.99176  1.0000
  H   H1104     1.0  0.46886  0.63831  0.93787  1.0000
  H   H1105     1.0  0.42016  0.88899  0.82272  1.0000
  C   C651      1.0  0.24795  0.73090  0.98707  1.0000
  H   H1106     1.0  0.44786  0.83365  0.62330  1.0000
  H   H1107     1.0  0.34190  0.89082  0.92592  1.0000
  H   H1108     1.0  0.38470  0.74279  0.60376  1.0000
  C   C652      1.0  0.42863  0.76826  0.69734  1.0000
  H   H1109     1.0  0.43625  0.76886  0.70859  1.0000
  H   H1110     1.0  0.42182  0.74946  0.70695  1.0000
  C   C653      1.0  0.45369  0.75416  0.66614  1.0000
  H   H1111     1.0  0.33956  0.94152  0.67524  1.0000
  H   H1112     1.0  0.42051  0.48677  0.59904  1.0000
  H   H1113     1.0  0.35058  0.85490  0.66993  1.0000
  N   N45       1.0  0.32670  0.89458  0.67252  1.0000
  H   H1114     1.0  0.33166  0.55168  0.52509  1.0000
  H   H1115     1.0  0.43427  0.82161  0.90805  1.0000
  H   H1116     1.0  0.38502  0.65308  0.57969  1.0000
  C   C654      1.0  0.31402  0.83263  0.66598  1.0000
  H   H1117     1.0  0.43692  0.51207  0.50270  1.0000
  H   H1118     1.0  0.41824  0.85972  0.92577  1.0000
  C   C655      1.0  0.32310  0.89530  0.69811  1.0000
  H   H1119     1.0  0.31493  0.80089  0.66008  1.0000
  H   H1120     1.0  0.46605  0.92482  0.73679  1.0000
  H   H1121     1.0  0.45834  0.83083  0.64647  1.0000
  C   C656      1.0  0.32622  0.85270  0.66298  1.0000
  H   H1122     1.0  0.38564  0.71846  0.56086  1.0000
  C   C657      1.0  0.45965  0.94728  0.69252  1.0000
  C   C658      1.0  0.47009  0.95175  0.74372  1.0000
  H   H1123     1.0  0.45571  0.91667  0.69360  1.0000
  C   C659      1.0  0.35749  0.70104  0.54109  1.0000
  H   H1124     1.0  0.37353  0.66464  0.54592  1.0000
  H   H1125     1.0  0.44825  0.84800  0.85216  1.0000
  H   H1126     1.0  0.34976  0.65102  0.59245  1.0000
  H   H1127     1.0  0.36738  0.60780  0.59064  1.0000
  H   H1128     1.0  0.47404  0.60002  0.90658  1.0000
  N   N46       1.0  0.36961  0.69440  0.57827  1.0000
  C   C660      1.0  0.38064  0.75879  0.58865  1.0000
  H   H1129     1.0  0.25929  0.55500  0.55944  1.0000
  H   H1130     1.0  0.24045  0.51592  0.51365  1.0000
  H   H1131     1.0  0.24566  0.80710  0.53982  1.0000
  H   H1132     1.0  0.44831  0.76485  0.62245  1.0000
  H   H1133     1.0  0.46759  0.77192  0.68821  1.0000
  H   H1134     1.0  0.47222  0.94267  0.76194  1.0000
  H   H1135     1.0  0.43907  0.70420  0.61198  1.0000
  H   H1136     1.0  0.34071  0.69686  0.58838  1.0000
  C   C661      1.0  0.35937  0.71010  0.59365  1.0000
  C   C662      1.0  0.29000  0.92837  0.86217  1.0000
  H   H1137     1.0  0.43384  0.71659  0.67723  1.0000
  H   H1138     1.0  0.44025  0.82726  0.67534  1.0000
  C   C663      1.0  0.31944  0.92044  0.91941  1.0000
  C   C664      1.0  0.43909  0.70972  0.63087  1.0000
  H   H1139     1.0  0.28796  0.92428  0.89986  1.0000
  H   H1140     1.0  0.45422  0.90571  0.87229  1.0000
  H   H1141     1.0  0.35085  0.85932  0.98000  1.0000
  C   C665      1.0  0.36483  0.54843  0.50250  1.0000
  H   H1142     1.0  0.47370  0.68127  0.92060  1.0000
  H   H1143     1.0  0.36260  0.72349  0.53000  1.0000
  H   H1144     1.0  0.34059  0.93274  0.87429  1.0000
  H   H1145     1.0  0.24066  0.72225  0.97634  1.0000
  C   C666      1.0  0.25851  0.49806  0.52714  1.0000
  H   H1146     1.0  0.26518  0.95760  0.81919  1.0000
  C   C667      1.0  0.47669  0.65110  0.92794  1.0000
  N   N47       1.0  0.25361  0.49492  0.55206  1.0000
  H   H1147     1.0  0.27381  0.52214  0.57845  1.0000
  C   C668      1.0  0.27479  0.49467  0.56792  1.0000
  Fe  Fe97      1.0  0.23768  0.75846  0.64375  1.0000
  H   H1148     1.0  0.46412  0.91089  0.97277  1.0000
  C   C669      1.0  0.46504  0.89621  0.99043  1.0000
  H   H1149     1.0  0.26498  0.52294  0.52475  1.0000
  H   H1150     1.0  0.32664  0.98145  0.65382  1.0000
  C   C670      1.0  0.47783  0.64784  0.86988  1.0000
  C   C671      1.0  0.34360  0.98109  0.71916  1.0000
  C   C672      1.0  0.35303  0.94060  0.91510  1.0000
  H   H1151     1.0  0.33863  0.93517  0.94129  1.0000
  H   H1152     1.0  0.44980  0.59978  0.50353  1.0000
  H   H1153     1.0  0.47865  0.95849  0.73425  1.0000
  H   H1154     1.0  0.26062  0.96341  0.79031  1.0000
  H   H1155     1.0  0.31569  0.89616  0.87586  1.0000
  H   H1156     1.0  0.45974  0.95724  0.67380  1.0000
  C   C673      1.0  0.26100  0.97987  0.80662  1.0000
  C   C674      1.0  0.46035  0.52620  0.51109  1.0000
  C   C675      1.0  0.48148  0.61998  0.91003  1.0000
  C   C676      1.0  0.32283  0.91604  0.86845  1.0000
  H   H1157     1.0  0.46886  0.94243  0.69800  1.0000
  H   H1158     1.0  0.31902  0.94711  0.86454  1.0000
  H   H1159     1.0  0.31162  0.49532  0.57312  1.0000
  C   C677      1.0  0.32940  0.98123  0.90303  1.0000
  H   H1160     1.0  0.25414  0.98413  0.59091  1.0000
  C   C678      1.0  0.34375  0.53697  0.49639  1.0000
  H   H1161     1.0  0.48336  0.65522  0.94110  1.0000
  H   H1162     1.0  0.48389  0.55194  0.88392  1.0000
  H   H1163     1.0  0.23498  0.48520  0.54578  1.0000
  H   H1164     1.0  0.23503  0.98166  0.63125  1.0000
  H   H1165     1.0  0.37402  0.54756  0.49604  1.0000
  C   C679      1.0  0.35103  0.87731  0.99520  1.0000
  S   S193      1.0  0.65608  0.04614  0.02426  1.0000
  C   C680      1.0  0.65209  0.15019  0.99788  1.0000
  S   S194      1.0  0.49569  0.20484  0.07497  1.0000
  H   H1166     1.0  0.56879  0.47447  0.46446  1.0000
  N   N48       1.0  0.49150  0.02302  0.27924  1.0000
  S   S195      1.0  0.65303  0.04423  0.23658  1.0000
  S   S196      1.0  0.62794  0.01173  0.28393  1.0000
  Fe  Fe98      1.0  0.67057  0.02833  0.25211  1.0000
  S   S197      1.0  0.68514  0.07376  0.25501  1.0000
  Fe  Fe99      1.0  0.53414  0.06332  0.27664  1.0000
  S   S198      1.0  0.52645  0.05754  0.31362  1.0000
  S   S199      1.0  0.52449  0.10670  0.25080  1.0000
  Fe  Fe100     1.0  0.55630  0.01024  0.28823  1.0000
  C   C681      1.0  0.51450  0.24234  0.41960  1.0000
  H   H1167     1.0  0.54108  0.11601  0.14198  1.0000
  S   S200      1.0  0.49056  0.07880  0.16780  1.0000
  Fe  Fe101     1.0  0.54495  0.06848  0.32434  1.0000
  S   S201      1.0  0.55012  0.10274  0.35602  1.0000
  S   S202      1.0  0.55249  0.07820  0.28748  1.0000
  H   H1168     1.0  0.54030  0.12880  0.07506  1.0000
  Fe  Fe102     1.0  0.66510  0.41827  0.48372  1.0000
  S   S203      1.0  0.66917  0.36604  0.45974  1.0000
  Fe  Fe103     1.0  0.54491  0.32197  0.41930  1.0000
  S   S204      1.0  0.55767  0.30575  0.44743  1.0000
  S   S205      1.0  0.54037  0.28638  0.38775  1.0000
  Fe  Fe104     1.0  0.53734  0.40425  0.44046  1.0000
  S   S206      1.0  0.54949  0.39352  0.47031  1.0000
  H   H1169     1.0  0.62086  0.28028  0.44027  1.0000
  Fe  Fe105     1.0  0.56325  0.37148  0.44371  1.0000
  S   S207      1.0  0.58240  0.39388  0.43810  1.0000
  Fe  Fe106     1.0  0.54294  0.32943  0.47202  1.0000
  S   S208      1.0  0.55142  0.38607  0.41362  1.0000
  S   S209      1.0  0.52985  0.34166  0.44422  1.0000
  Fe  Fe107     1.0  0.71250  0.19995  0.35284  1.0000
  S   S210      1.0  0.71977  0.19432  0.38873  1.0000
  S   S211      1.0  0.69639  0.16206  0.34724  1.0000
  Fe  Fe108     1.0  0.72176  0.26252  0.38476  1.0000
  S   S212      1.0  0.71916  0.30783  0.41355  1.0000
  S   S213      1.0  0.71312  0.26879  0.35037  1.0000
  H   H1170     1.0  0.52577  0.44812  0.39140  1.0000
  C   C682      1.0  0.68318  0.35031  0.44724  1.0000
  C   C683      1.0  0.68355  0.32509  0.42816  1.0000
  C   C684      1.0  0.69449  0.31157  0.41775  1.0000
  C   C685      1.0  0.70518  0.32296  0.42646  1.0000
  C   C686      1.0  0.70480  0.34790  0.44568  1.0000
  C   C687      1.0  0.69385  0.36160  0.45603  1.0000
  H   H1171     1.0  0.67533  0.31594  0.42135  1.0000
  H   H1172     1.0  0.69467  0.29231  0.40300  1.0000
  H   H1173     1.0  0.71304  0.35649  0.45264  1.0000
  H   H1174     1.0  0.71119  0.43744  0.45143  1.0000
  C   C688      1.0  0.59284  0.41154  0.45730  1.0000
  H   H1175     1.0  0.53101  0.25624  0.43430  1.0000
  H   H1176     1.0  0.70883  0.47938  0.46987  1.0000
  C   C689      1.0  0.63479  0.34757  0.47344  1.0000
  C   C690      1.0  0.61267  0.43778  0.46235  1.0000
  C   C691      1.0  0.60384  0.42539  0.44788  1.0000
  C   C692      1.0  0.49090  0.05367  0.29809  1.0000
  H   H1177     1.0  0.60561  0.42609  0.42922  1.0000
  C   C693      1.0  0.54354  0.23556  0.37885  1.0000
  C   C694      1.0  0.53794  0.22203  0.35946  1.0000
  C   C695      1.0  0.53993  0.18179  0.35205  1.0000
  C   C696      1.0  0.54751  0.15434  0.36405  1.0000
  C   C697      1.0  0.55311  0.16789  0.38347  1.0000
  C   C698      1.0  0.55123  0.20828  0.39070  1.0000
  H   H1178     1.0  0.53202  0.24285  0.35007  1.0000
  H   H1179     1.0  0.53555  0.17199  0.33710  1.0000
  H   H1180     1.0  0.55905  0.14707  0.39281  1.0000
  H   H1181     1.0  0.55578  0.21840  0.40534  1.0000
  C   C699      1.0  0.68804  0.09855  0.28070  1.0000
  C   C700      1.0  0.68059  0.09475  0.30082  1.0000
  C   C701      1.0  0.68322  0.11482  0.32091  1.0000
  C   C702      1.0  0.69331  0.13875  0.32116  1.0000
  C   C703      1.0  0.70080  0.14235  0.30108  1.0000
  C   C704      1.0  0.69814  0.12244  0.28093  1.0000
  H   H1182     1.0  0.67277  0.07660  0.30086  1.0000
  H   H1183     1.0  0.67737  0.11189  0.33636  1.0000
  H   H1184     1.0  0.70860  0.16064  0.30105  1.0000
  H   H1185     1.0  0.70394  0.12561  0.26545  1.0000
  H   H1186     1.0  0.48611  0.08385  0.02673  1.0000
  S   S214      1.0  0.54989  0.00099  0.32564  1.0000
  C   C705      1.0  0.59162  0.01757  0.29018  1.0000
  C   C706      1.0  0.60381  0.02484  0.29215  1.0000
  H   H1187     1.0  0.58490  0.03631  0.29914  1.0000
  H   H1188     1.0  0.60632  0.04918  0.30272  1.0000
  C   C707      1.0  0.49991  0.08739  0.19088  1.0000
  C   C708      1.0  0.50707  0.05470  0.19976  1.0000
  C   C709      1.0  0.51471  0.06006  0.21796  1.0000
  C   C710      1.0  0.51517  0.09814  0.22770  1.0000
  C   C711      1.0  0.50807  0.13087  0.21872  1.0000
  C   C712      1.0  0.50048  0.12558  0.20044  1.0000
  H   H1189     1.0  0.70028  0.00788  0.15030  1.0000
  H   H1190     1.0  0.52035  0.03497  0.22427  1.0000
  H   H1191     1.0  0.50841  0.16054  0.22604  1.0000
  H   H1192     1.0  0.49503  0.15101  0.19383  1.0000
  C   C713      1.0  0.51990  0.12936  0.02509  1.0000
  C   C714      1.0  0.51278  0.10973  0.04271  1.0000
  C   C715      1.0  0.50509  0.13237  0.05766  1.0000
  C   C716      1.0  0.50474  0.17505  0.05568  1.0000
  C   C717      1.0  0.51195  0.19473  0.03823  1.0000
  C   C718      1.0  0.51942  0.17202  0.02282  1.0000
  S   S215      1.0  0.65310  0.46693  0.46784  1.0000
  H   H1193     1.0  0.53665  0.08453  0.09273  1.0000
  H   H1194     1.0  0.51175  0.22775  0.03658  1.0000
  Fe  Fe109     1.0  0.65702  0.99199  0.21299  1.0000
  H   H1195     1.0  0.69367  0.38037  0.47097  1.0000
  C   C719      1.0  0.61055  0.43692  0.48653  1.0000
  H   H1196     1.0  0.69960  0.42116  0.42168  1.0000
  C   C720      1.0  0.70552  0.46529  0.45440  1.0000
  H   H1197     1.0  0.62546  0.05932  0.15254  1.0000
  C   C721      1.0  0.51561  0.23826  0.47096  1.0000
  H   H1198     1.0  0.59520  0.01527  0.19600  1.0000
  H   H1199     1.0  0.64569  0.28385  0.41351  1.0000
  H   H1200     1.0  0.62479  0.37057  0.43382  1.0000
  C   C722      1.0  0.61768  0.99582  0.18372  1.0000
  H   H1201     1.0  0.64311  0.36482  0.47100  1.0000
  H   H1202     1.0  0.69509  0.13012  0.16745  1.0000
  H   H1203     1.0  0.63772  0.24434  0.43031  1.0000
  H   H1204     1.0  0.71170  0.07565  0.21748  1.0000
  H   H1205     1.0  0.51727  0.07810  0.14909  1.0000
  N   N49       1.0  0.61356  0.03155  0.19807  1.0000
  H   H1206     1.0  0.70482  0.01487  0.39388  1.0000
  H   H1207     1.0  0.50633  0.09054  0.28639  1.0000
  H   H1208     1.0  0.49219  0.11297  0.27801  1.0000
  C   C723      1.0  0.62258  0.03743  0.21603  1.0000
  H   H1209     1.0  0.51157  0.03603  0.11819  1.0000
  C   C724      1.0  0.54416  0.17268  0.45732  1.0000
  H   H1210     1.0  0.49643  0.11338  0.30741  1.0000
  C   C725      1.0  0.62290  0.08030  0.22610  1.0000
  H   H1211     1.0  0.62653  0.00127  0.17489  1.0000
  H   H1212     1.0  0.60829  0.34139  0.44946  1.0000
  H   H1213     1.0  0.60872  0.09563  0.19029  1.0000
  Fe  Fe110     1.0  0.73172  0.25935  0.33458  1.0000
  C   C726      1.0  0.61212  0.06812  0.18139  1.0000
  C   C727      1.0  0.72277  0.03374  0.34524  1.0000
  H   H1214     1.0  0.62206  0.11130  0.15866  1.0000
  C   C728      1.0  0.69238  0.99804  0.16097  1.0000
  H   H1215     1.0  0.53116  0.20914  0.42149  1.0000
  H   H1216     1.0  0.62877  0.16588  0.00111  1.0000
  H   H1217     1.0  0.60224  0.99321  0.22069  1.0000
  H   H1218     1.0  0.72178  0.08880  0.32144  1.0000
  H   H1219     1.0  0.52635  0.10851  0.17672  1.0000
  H   H1220     1.0  0.69996  0.07262  0.35099  1.0000
  C   C729      1.0  0.70521  0.08998  0.20537  1.0000
  C   C730      1.0  0.60159  0.02152  0.20944  1.0000
  H   H1221     1.0  0.55248  0.17322  0.46685  1.0000
  H   H1222     1.0  0.62473  0.07660  0.24488  1.0000
  H   H1223     1.0  0.61463  0.09929  0.22509  1.0000
  H   H1224     1.0  0.63046  0.09749  0.21793  1.0000
  N   N50       1.0  0.52374  0.13033  0.12835  1.0000
  H   H1225     1.0  0.63137  0.08097  0.17757  1.0000
  C   C731      1.0  0.53357  0.13879  0.14413  1.0000
  C   C732      1.0  0.52765  0.14218  0.10362  1.0000
  C   C733      1.0  0.51250  0.15470  0.13443  1.0000
  H   H1226     1.0  0.71085  0.06783  0.15423  1.0000
  C   C734      1.0  0.53004  0.13807  0.17039  1.0000
  H   H1227     1.0  0.69440  0.03677  0.20977  1.0000
  C   C735      1.0  0.51359  0.20165  0.13363  1.0000
  H   H1228     1.0  0.49403  0.06461  0.24907  1.0000
  S   S216      1.0  0.65147  0.01048  0.17592  1.0000
  H   H1229     1.0  0.53764  0.16860  0.13935  1.0000
  H   H1230     1.0  0.53919  0.23181  0.46997  1.0000
  C   C736      1.0  0.50429  0.00822  0.27584  1.0000
  H   H1231     1.0  0.53002  0.17489  0.10196  1.0000
  H   H1232     1.0  0.50551  0.14892  0.12215  1.0000
  H   H1233     1.0  0.50844  0.14448  0.15165  1.0000
  C   C737      1.0  0.48854  0.13747  0.00219  1.0000
  C   C738      1.0  0.62347  0.08028  0.16690  1.0000
  N   N51       1.0  0.52323  0.20861  0.45682  1.0000
  H   H1234     1.0  0.60059  0.05646  0.24117  1.0000
  H   H1235     1.0  0.52940  0.14424  0.42783  1.0000
  C   C739      1.0  0.61087  0.31888  0.46341  1.0000
  H   H1236     1.0  0.67677  0.01951  0.17938  1.0000
  C   C740      1.0  0.70442  0.04496  0.38427  1.0000
  H   H1237     1.0  0.67025  0.13470  0.16844  1.0000
  H   H1238     1.0  0.51070  0.21537  0.11670  1.0000
  H   H1239     1.0  0.52264  0.21182  0.13622  1.0000
  H   H1240     1.0  0.50782  0.21468  0.14784  1.0000
  H   H1241     1.0  0.69365  0.00810  0.29472  1.0000
  C   C741      1.0  0.67891  0.09029  0.19277  1.0000
  C   C742      1.0  0.59068  0.41105  0.48145  1.0000
  H   H1242     1.0  0.60521  0.06264  0.16881  1.0000
  H   H1243     1.0  0.52022  0.14024  0.09185  1.0000
  C   C743      1.0  0.51681  0.16915  0.45599  1.0000
  H   H1244     1.0  0.59407  0.08359  0.21618  1.0000
  H   H1245     1.0  0.66449  0.08397  0.16835  1.0000
  H   H1246     1.0  0.69942  0.11086  0.21584  1.0000
  H   H1247     1.0  0.53807  0.14232  0.18031  1.0000
  H   H1248     1.0  0.62776  0.37219  0.47428  1.0000
  C   C744      1.0  0.69833  0.05588  0.19500  1.0000
  C   C745      1.0  0.65579  0.99534  0.14720  1.0000
  C   C746      1.0  0.69540  0.00155  0.31338  1.0000
  N   N52       1.0  0.63348  0.32082  0.45326  1.0000
  C   C747      1.0  0.65441  0.00741  0.10489  1.0000
  H   H1249     1.0  0.67908  0.04360  0.15146  1.0000
  H   H1250     1.0  0.50354  0.08352  0.11673  1.0000
  H   H1251     1.0  0.70155  0.07082  0.12945  1.0000
  H   H1252     1.0  0.53342  0.18951  0.48676  1.0000
  H   H1253     1.0  0.52488  0.18752  0.00939  1.0000
  H   H1254     1.0  0.62382  0.26982  0.46966  1.0000
  H   H1255     1.0  0.62137  0.01494  0.23096  1.0000
  C   C748      1.0  0.51254  0.06929  0.11433  1.0000
  C   C749      1.0  0.72391  0.08004  0.33963  1.0000
  H   H1256     1.0  0.64525  0.39549  0.43622  1.0000
  C   C750      1.0  0.63230  0.34786  0.43148  1.0000
  H   H1257     1.0  0.65089  0.02526  0.09034  1.0000
  C   C751      1.0  0.52119  0.08548  0.13131  1.0000
  H   H1258     1.0  0.70914  0.11456  0.13830  1.0000
  H   H1259     1.0  0.51311  0.07673  0.04460  1.0000
  C   C752      1.0  0.62256  0.29550  0.45658  1.0000
  H   H1260     1.0  0.63171  0.03087  0.20848  1.0000
  C   C753      1.0  0.52019  0.14189  0.43526  1.0000
  S   S217      1.0  0.53842  0.99592  0.27455  1.0000
  H   H1261     1.0  0.51575  0.07313  0.09588  1.0000
  H   H1262     1.0  0.52360  0.16329  0.17479  1.0000
  H   H1263     1.0  0.68737  0.43117  0.38606  1.0000
  H   H1264     1.0  0.49958  0.11683  0.07095  1.0000
  H   H1265     1.0  0.50704  0.24581  0.46271  1.0000
  Fe  Fe111     1.0  0.53185  0.99069  0.31214  1.0000
  C   C754      1.0  0.52561  0.22882  0.43303  1.0000
  H   H1266     1.0  0.50982  0.03311  0.26789  1.0000
  H   H1267     1.0  0.64555  0.04467  0.13086  1.0000
  C   C755      1.0  0.48711  0.04453  0.25732  1.0000
  H   H1268     1.0  0.51715  0.24785  0.40087  1.0000
  H   H1269     1.0  0.51063  0.27175  0.42577  1.0000
  H   H1270     1.0  0.54122  0.14074  0.45885  1.0000
  H   H1271     1.0  0.73328  0.08826  0.34166  1.0000
  H   H1272     1.0  0.58228  0.40050  0.48901  1.0000
  H   H1273     1.0  0.71423  0.00961  0.30692  1.0000
  C   C756      1.0  0.66808  0.10688  0.17932  1.0000
  S   S218      1.0  0.73031  0.19100  0.33437  1.0000
  H   H1274     1.0  0.62994  0.32991  0.41658  1.0000
  H   H1275     1.0  0.64792  0.13533  0.01388  1.0000
  H   H1276     1.0  0.60356  0.29698  0.46570  1.0000
  C   C757      1.0  0.65138  0.01828  0.12797  1.0000
  H   H1277     1.0  0.68624  0.10861  0.14754  1.0000
  H   H1278     1.0  0.67027  0.47403  0.42330  1.0000
  H   H1279     1.0  0.61155  0.99191  0.16946  1.0000
  H   H1280     1.0  0.70115  0.43959  0.36887  1.0000
  C   C758      1.0  0.64327  0.37271  0.42349  1.0000
  H   H1281     1.0  0.51919  0.10938  0.44114  1.0000
  H   H1282     1.0  0.54654  0.12146  0.10296  1.0000
  H   H1283     1.0  0.72631  0.02666  0.36274  1.0000
  H   H1284     1.0  0.50676  0.02509  0.19237  1.0000
  H   H1285     1.0  0.52011  0.26784  0.47175  1.0000
  H   H1286     1.0  0.65132  0.35312  0.41985  1.0000
  H   H1287     1.0  0.64138  0.39019  0.40701  1.0000
  H   H1288     1.0  0.55275  0.46784  0.43599  1.0000
  C   C759      1.0  0.59558  0.05348  0.22530  1.0000
  H   H1289     1.0  0.68207  0.11674  0.20173  1.0000
  H   H1290     1.0  0.50706  0.17591  0.45510  1.0000
  H   H1291     1.0  0.52953  0.06629  0.12992  1.0000
  H   H1292     1.0  0.70526  0.03571  0.18676  1.0000
  C   C760      1.0  0.53485  0.20206  0.46862  1.0000
  H   H1293     1.0  0.54656  0.18179  0.43899  1.0000
  H   H1294     1.0  0.69630  0.45655  0.45900  1.0000
  S   S219      1.0  0.52897  0.09892  0.00622  1.0000
  H   H1295     1.0  0.65261  0.30951  0.45133  1.0000
  Fe  Fe112     1.0  0.64512  0.99761  0.26227  1.0000
  H   H1296     1.0  0.51386  0.14755  0.42119  1.0000
  H   H1297     1.0  0.56629  0.44584  0.38880  1.0000
  C   C761      1.0  0.61272  0.00131  0.28044  1.0000
  N   N53       1.0  0.68885  0.06985  0.17845  1.0000
  H   H1298     1.0  0.55697  0.45511  0.36500  1.0000
  H   H1299     1.0  0.49633  0.14728  0.01129  1.0000
  H   H1300     1.0  0.48981  0.99432  0.23284  1.0000
  C   C762      1.0  0.69330  0.10040  0.15997  1.0000
  H   H1301     1.0  0.67550  0.06884  0.20696  1.0000
  H   H1302     1.0  0.71277  0.06107  0.38612  1.0000
  N   N54       1.0  0.71049  0.01752  0.34382  1.0000
  C   C763      1.0  0.70427  0.08707  0.14469  1.0000
  H   H1303     1.0  0.68758  0.01373  0.32363  1.0000
  H   H1304     1.0  0.58667  0.04270  0.23152  1.0000
  H   H1305     1.0  0.65353  0.24635  0.43079  1.0000
  H   H1306     1.0  0.71835  0.09902  0.35166  1.0000
  H   H1307     1.0  0.50355  0.07802  0.00177  1.0000
  H   H1308     1.0  0.62108  0.44820  0.45480  1.0000
  C   C764      1.0  0.49683  0.09474  0.29178  1.0000
  C   C765      1.0  0.53842  0.11745  0.09335  1.0000
  H   H1309     1.0  0.66081  0.11578  0.19206  1.0000
  C   C766      1.0  0.69716  0.42592  0.38530  1.0000
  H   H1310     1.0  0.61126  0.33407  0.48012  1.0000
  C   C767      1.0  0.52094  0.47660  0.39456  1.0000
  C   C768      1.0  0.64429  0.29242  0.45145  1.0000
  C   C769      1.0  0.64518  0.26548  0.43018  1.0000
  H   H1311     1.0  0.51797  0.15017  0.47236  1.0000
  H   H1312     1.0  0.50761  0.21905  0.42077  1.0000
  C   C770      1.0  0.70701  0.02186  0.31885  1.0000
  C   C771      1.0  0.68373  0.03372  0.16752  1.0000
  H   H1313     1.0  0.54546  0.47931  0.39812  1.0000
  H   H1314     1.0  0.68184  0.44008  0.43160  1.0000
  H   H1315     1.0  0.69263  0.02718  0.35896  1.0000
  C   C772      1.0  0.56197  0.47044  0.37803  1.0000
  C   C773      1.0  0.70148  0.04120  0.35859  1.0000
  H   H1316     1.0  0.72918  0.01828  0.33291  1.0000
  S   S220      1.0  0.52601  0.46333  0.44115  1.0000
  H   H1317     1.0  0.69720  0.06359  0.39297  1.0000
  Fe  Fe113     1.0  0.64364  0.01887  0.00005  1.0000
  H   H1318     1.0  0.64917  0.18262  0.99766  1.0000
  H   H1319     1.0  0.49520  0.04085  0.31399  1.0000
  C   C774      1.0  0.70284  0.44115  0.40691  1.0000
  H   H1320     1.0  0.71259  0.43371  0.40525  1.0000
  C   C775      1.0  0.67938  0.47293  0.42988  1.0000
  H   H1321     1.0  0.64469  0.27136  0.46718  1.0000
  H   H1322     1.0  0.71037  0.10786  0.19177  1.0000
  H   H1323     1.0  0.56741  0.46242  0.42484  1.0000
  H   H1324     1.0  0.69887  0.39233  0.38476  1.0000
  H   H1325     1.0  0.73234  0.43700  0.30729  1.0000
  S   S221      1.0  0.62527  0.05235  0.99991  1.0000
  H   H1326     1.0  0.50839  0.00095  0.29283  1.0000
  S   S222      1.0  0.66252  0.98646  0.28006  1.0000
  H   H1327     1.0  0.60306  0.09802  0.00216  1.0000
  H   H1328     1.0  0.66185  0.14859  0.00010  1.0000
  H   H1329     1.0  0.70583  0.05462  0.31326  1.0000
  C   C776      1.0  0.58817  0.98608  0.27676  1.0000
  Fe  Fe114     1.0  0.55505  0.44868  0.78357  1.0000
  H   H1330     1.0  0.71940  0.35440  0.86486  1.0000
  S   S223      1.0  0.57397  0.43159  0.76925  1.0000
  Fe  Fe115     1.0  0.52888  0.44913  0.76901  1.0000
  S   S224      1.0  0.52172  0.45367  0.80611  1.0000
  S   S225      1.0  0.51502  0.44841  0.74117  1.0000
  H   H1331     1.0  0.50725  0.39298  0.56822  1.0000
  Fe  Fe116     1.0  0.53586  0.40593  0.81529  1.0000
  S   S226      1.0  0.53058  0.34518  0.83361  1.0000
  H   H1332     1.0  0.66486  0.39899  0.61610  1.0000
  S   S227      1.0  0.54218  0.39925  0.77799  1.0000
  Fe  Fe117     1.0  0.71584  0.20148  0.87770  1.0000
  S   S228      1.0  0.72333  0.20346  0.84049  1.0000
  S   S229      1.0  0.70040  0.15909  0.88573  1.0000
  Fe  Fe118     1.0  0.72311  0.27181  0.84339  1.0000
  S   S230      1.0  0.71862  0.32485  0.81766  1.0000
  S   S231      1.0  0.71440  0.26982  0.87931  1.0000
  H   H1333     1.0  0.50224  0.32434  0.74818  1.0000
  C   C777      1.0  0.52462  0.29774  0.76753  1.0000
  C   C778      1.0  0.51110  0.41935  0.57600  1.0000
  Fe  Fe119     1.0  0.54816  0.17257  0.93118  1.0000
  S   S232      1.0  0.55649  0.14527  0.96382  1.0000
  S   S233      1.0  0.55165  0.23894  0.91924  1.0000
  Fe  Fe120     1.0  0.53676  0.09211  0.92131  1.0000
  S   S234      1.0  0.54439  0.05936  0.95237  1.0000
  Fe  Fe121     1.0  0.53879  0.11587  0.97153  1.0000
  Fe  Fe122     1.0  0.56150  0.09092  0.94250  1.0000
  S   S235      1.0  0.57913  0.05342  0.93875  1.0000
  S   S236      1.0  0.53017  0.14711  0.94070  1.0000
  S   S237      1.0  0.55420  0.11988  0.90956  1.0000
  S   S238      1.0  0.65284  0.40934  0.51537  1.0000
  H   H1334     1.0  0.53180  0.27382  0.76947  1.0000
  H   H1335     1.0  0.68140  0.44888  0.67950  1.0000
  S   S239      1.0  0.49939  0.30584  0.67854  1.0000
  H   H1336     1.0  0.50581  0.24696  0.50396  1.0000
  H   H1337     1.0  0.62498  0.17004  0.94837  1.0000
  S   S240      1.0  0.64947  0.44056  0.72930  1.0000
  H   H1338     1.0  0.51104  0.44836  0.60830  1.0000
  Fe  Fe123     1.0  0.66513  0.42494  0.75175  1.0000
  S   S241      1.0  0.67108  0.36027  0.76312  1.0000
  C   C779      1.0  0.52478  0.30347  0.52204  1.0000
  C   C780      1.0  0.52212  0.28035  0.54277  1.0000
  C   C781      1.0  0.51132  0.28722  0.55576  1.0000
  C   C782      1.0  0.50317  0.31767  0.54824  1.0000
  C   C783      1.0  0.50583  0.34059  0.52748  1.0000
  C   C784      1.0  0.51656  0.33356  0.51443  1.0000
  H   H1339     1.0  0.52838  0.25677  0.54869  1.0000
  H   H1340     1.0  0.50931  0.26904  0.57154  1.0000
  H   H1341     1.0  0.49957  0.36417  0.52149  1.0000
  H   H1342     1.0  0.64394  0.09995  0.98296  1.0000
  H   H1343     1.0  0.51979  0.22141  0.50745  1.0000
  C   C785      1.0  0.51496  0.29087  0.78715  1.0000
  H   H1344     1.0  0.50940  0.14715  0.97814  1.0000
  C   C786      1.0  0.66440  0.43157  0.61832  1.0000
  S   S242      1.0  0.52461  0.06538  0.89588  1.0000
  N   N55       1.0  0.49254  0.11761  0.97982  1.0000
  S   S243      1.0  0.65729  0.01892  0.97003  1.0000
  C   C787      1.0  0.58828  0.45303  0.77029  1.0000
  C   C788      1.0  0.59192  0.05384  0.95586  1.0000
  C   C789      1.0  0.60180  0.02766  0.95051  1.0000
  H   H1345     1.0  0.51609  0.27861  0.61192  1.0000
  H   H1346     1.0  0.72114  0.02022  0.89678  1.0000
  H   H1347     1.0  0.69815  0.01597  0.98082  1.0000
  C   C790      1.0  0.69544  0.14181  0.91401  1.0000
  C   C791      1.0  0.70123  0.15171  0.93375  1.0000
  C   C792      1.0  0.69718  0.13655  0.95593  1.0000
  C   C793      1.0  0.68738  0.11119  0.95856  1.0000
  C   C794      1.0  0.68151  0.10156  0.93884  1.0000
  C   C795      1.0  0.68554  0.11682  0.91666  1.0000
  H   H1348     1.0  0.70885  0.17096  0.93191  1.0000
  H   H1349     1.0  0.70173  0.14433  0.97112  1.0000
  H   H1350     1.0  0.67392  0.08226  0.94065  1.0000
  H   H1351     1.0  0.68101  0.10913  0.90143  1.0000
  C   C796      1.0  0.70496  0.33441  0.80389  1.0000
  C   C797      1.0  0.69657  0.30429  0.80266  1.0000
  C   C798      1.0  0.68616  0.31271  0.79039  1.0000
  C   C799      1.0  0.68386  0.35156  0.77979  1.0000
  C   C800      1.0  0.69212  0.38195  0.78152  1.0000
  C   C801      1.0  0.70269  0.37318  0.79314  1.0000
  H   H1352     1.0  0.69823  0.27426  0.81072  1.0000
  H   H1353     1.0  0.67985  0.28894  0.78911  1.0000
  H   H1354     1.0  0.69050  0.41198  0.77342  1.0000
  H   H1355     1.0  0.70916  0.39658  0.79368  1.0000
  C   C802      1.0  0.53662  0.31634  0.85749  1.0000
  C   C803      1.0  0.53353  0.27530  0.86145  1.0000
  C   C804      1.0  0.53803  0.25117  0.88022  1.0000
  C   C805      1.0  0.54561  0.26795  0.89542  1.0000
  C   C806      1.0  0.54865  0.30905  0.89150  1.0000
  C   C807      1.0  0.54421  0.33313  0.87265  1.0000
  H   H1356     1.0  0.52762  0.26201  0.84994  1.0000
  H   H1357     1.0  0.53560  0.21964  0.88301  1.0000
  H   H1358     1.0  0.55444  0.32240  0.90325  1.0000
  H   H1359     1.0  0.54651  0.36480  0.87010  1.0000
  C   C808      1.0  0.51084  0.40826  0.72395  1.0000
  C   C809      1.0  0.49984  0.41164  0.71330  1.0000
  C   C810      1.0  0.49619  0.38076  0.69929  1.0000
  C   C811      1.0  0.50354  0.34607  0.69573  1.0000
  C   C812      1.0  0.51457  0.34279  0.70623  1.0000
  C   C813      1.0  0.51821  0.37366  0.72026  1.0000
  H   H1360     1.0  0.49410  0.43841  0.71591  1.0000
  C   C814      1.0  0.72456  0.45101  0.88141  1.0000
  H   H1361     1.0  0.52035  0.31620  0.70347  1.0000
  H   H1362     1.0  0.52677  0.37092  0.72803  1.0000
  H   H1363     1.0  0.71302  0.37771  0.71775  1.0000
  H   H1364     1.0  0.70092  0.03379  0.90477  1.0000
  C   C815      1.0  0.59809  0.43423  0.75832  1.0000
  H   H1365     1.0  0.50430  0.20471  0.95056  1.0000
  H   H1366     1.0  0.60148  0.00778  0.93615  1.0000
  H   H1367     1.0  0.59494  0.44205  0.56597  1.0000
  N   N56       1.0  0.51672  0.38519  0.61574  1.0000
  H   H1368     1.0  0.52057  0.42171  0.57005  1.0000
  H   H1369     1.0  0.71020  0.34082  0.74093  1.0000
  H   H1370     1.0  0.72471  0.37045  0.89126  1.0000
  C   C816      1.0  0.59252  0.07934  0.97451  1.0000
  H   H1371     1.0  0.48769  0.38381  0.69130  1.0000
  C   C817      1.0  0.68982  0.43586  0.67167  1.0000
  H   H1372     1.0  0.50990  0.02631  0.97382  1.0000
  C   C818      1.0  0.60963  0.44958  0.75877  1.0000
  H   H1373     1.0  0.51436  0.42454  0.67117  1.0000
  Fe  Fe124     1.0  0.64149  0.46072  0.50043  1.0000
  C   C819      1.0  0.60278  0.07834  0.98769  1.0000
  C   C820      1.0  0.50153  0.14489  0.96733  1.0000
  N   N57       1.0  0.57650  0.33429  0.82616  1.0000
  C   C821      1.0  0.58191  0.37459  0.83048  1.0000
  C   C822      1.0  0.58523  0.31152  0.81033  1.0000
  C   C823      1.0  0.57515  0.31068  0.84926  1.0000
  C   C824      1.0  0.56457  0.34292  0.81571  1.0000
  C   C825      1.0  0.57551  0.40013  0.84949  1.0000
  C   C826      1.0  0.58837  0.33354  0.78664  1.0000
  C   C827      1.0  0.56989  0.26807  0.84911  1.0000
  C   C828      1.0  0.55967  0.30916  0.80132  1.0000
  H   H1374     1.0  0.59135  0.36992  0.83530  1.0000
  H   H1375     1.0  0.58221  0.39478  0.81434  1.0000
  H   H1376     1.0  0.58217  0.28103  0.80657  1.0000
  H   H1377     1.0  0.59376  0.30504  0.81906  1.0000
  H   H1378     1.0  0.58391  0.30697  0.85747  1.0000
  H   H1379     1.0  0.56919  0.32758  0.86169  1.0000
  H   H1380     1.0  0.55768  0.35058  0.82947  1.0000
  H   H1381     1.0  0.56497  0.37059  0.80374  1.0000
  H   H1382     1.0  0.57779  0.38819  0.86715  1.0000
  H   H1383     1.0  0.57852  0.43206  0.84753  1.0000
  H   H1384     1.0  0.56573  0.40126  0.84831  1.0000
  H   H1385     1.0  0.58035  0.34412  0.77739  1.0000
  H   H1386     1.0  0.59406  0.35990  0.78863  1.0000
  H   H1387     1.0  0.59355  0.31219  0.77530  1.0000
  H   H1388     1.0  0.57515  0.24706  0.83778  1.0000
  H   H1389     1.0  0.56044  0.27012  0.84454  1.0000
  H   H1390     1.0  0.56992  0.25389  0.86706  1.0000
  H   H1391     1.0  0.54989  0.30828  0.80472  1.0000
  H   H1392     1.0  0.56320  0.27788  0.80518  1.0000
  H   H1393     1.0  0.56095  0.31700  0.78240  1.0000
  C   C829      1.0  0.51376  0.34425  0.60718  1.0000
  H   H1394     1.0  0.66475  0.22028  0.94060  1.0000
  H   H1395     1.0  0.51783  0.30373  0.63799  1.0000
  C   C830      1.0  0.69489  0.35314  0.71995  1.0000
  H   H1396     1.0  0.49270  0.39369  0.76636  1.0000
  H   H1397     1.0  0.61260  0.41621  0.58219  1.0000
  H   H1398     1.0  0.69149  0.37523  0.73298  1.0000
  C   C831      1.0  0.51298  0.38713  0.64121  1.0000
  H   H1399     1.0  0.72088  0.06590  0.91302  1.0000
  C   C832      1.0  0.50700  0.36110  0.78518  1.0000
  C   C833      1.0  0.51446  0.42877  0.65193  1.0000
  H   H1400     1.0  0.69279  0.30349  0.68625  1.0000
  H   H1401     1.0  0.52115  0.29537  0.75001  1.0000
  H   H1402     1.0  0.55386  0.06276  0.87250  1.0000
  C   C834      1.0  0.71893  0.03284  0.91408  1.0000
  S   S244      1.0  0.67655  0.46154  0.50093  1.0000
  C   C835      1.0  0.62968  0.15606  0.96355  1.0000
  H   H1403     1.0  0.52295  0.44298  0.64625  1.0000
  H   H1404     1.0  0.50519  0.13203  0.95096  1.0000
  H   H1405     1.0  0.70462  0.35602  0.89911  1.0000
  C   C836      1.0  0.55571  0.00626  0.89332  1.0000
  H   H1406     1.0  0.70556  0.40267  0.68245  1.0000
  H   H1407     1.0  0.68175  0.02251  0.90828  1.0000
  C   C837      1.0  0.66500  0.45848  0.59846  1.0000
  H   H1408     1.0  0.49911  0.27475  0.75985  1.0000
  H   H1409     1.0  0.61635  0.18555  0.98603  1.0000
  H   H1410     1.0  0.66088  0.33903  0.70446  1.0000
  C   C838      1.0  0.49675  0.39341  0.78352  1.0000
  H   H1411     1.0  0.69685  0.42578  0.70504  1.0000
  H   H1412     1.0  0.49176  0.10775  0.93178  1.0000
  N   N58       1.0  0.64278  0.14984  0.95720  1.0000
  C   C839      1.0  0.64392  0.12499  0.93567  1.0000
  H   H1413     1.0  0.70470  0.41055  0.89815  1.0000
  H   H1414     1.0  0.69015  0.31010  0.64677  1.0000
  C   C840      1.0  0.61395  0.44410  0.57069  1.0000
  C   C841      1.0  0.63672  0.08574  0.93637  1.0000
  H   H1415     1.0  0.64351  0.20592  0.93580  1.0000
  H   H1416     1.0  0.64694  0.21231  0.96460  1.0000
  S   S245      1.0  0.48826  0.25702  0.62533  1.0000
  H   H1417     1.0  0.64114  0.14366  0.92003  1.0000
  S   S246      1.0  0.66676  0.43765  0.57020  1.0000
  H   H1418     1.0  0.48994  0.39035  0.79796  1.0000
  C   C842      1.0  0.70566  0.02817  0.92115  1.0000
  C   C843      1.0  0.50926  0.41723  0.60278  1.0000
  H   H1419     1.0  0.61951  0.00607  0.95948  1.0000
  S   S247      1.0  0.48972  0.32952  0.56428  1.0000
  H   H1420     1.0  0.68691  0.01935  0.95037  1.0000
  H   H1421     1.0  0.62715  0.09296  0.93372  1.0000
  H   H1422     1.0  0.64003  0.06631  0.92198  1.0000
  H   H1423     1.0  0.63752  0.06729  0.95283  1.0000
  C   C844      1.0  0.71818  0.46827  0.82937  1.0000
  H   H1424     1.0  0.68140  0.35378  0.65345  1.0000
  H   H1425     1.0  0.66355  0.17294  0.92726  1.0000
  H   H1426     1.0  0.48928  0.18941  0.94988  1.0000
  H   H1427     1.0  0.63046  0.38068  0.57911  1.0000
  C   C845      1.0  0.64817  0.19048  0.95062  1.0000
  H   H1428     1.0  0.53281  0.38180  0.59347  1.0000
  H   H1429     1.0  0.63401  0.46062  0.63011  1.0000
  H   H1430     1.0  0.63010  0.29800  0.49990  1.0000
  C   C846      1.0  0.63516  0.44533  0.57599  1.0000
  C   C847      1.0  0.51988  0.01434  0.89589  1.0000
  N   N59       1.0  0.72367  0.41840  0.86401  1.0000
  H   H1431     1.0  0.64501  0.39046  0.58767  1.0000
  S   S248      1.0  0.54938  0.45249  0.82155  1.0000
  S   S249      1.0  0.65902  0.46758  0.77931  1.0000
  H   H1432     1.0  0.51187  0.36691  0.80098  1.0000
  C   C848      1.0  0.49604  0.30738  0.80722  1.0000
  H   H1433     1.0  0.63252  0.40289  0.60680  1.0000
  H   H1434     1.0  0.64273  0.46172  0.58184  1.0000
  H   H1435     1.0  0.59767  0.42322  0.51456  1.0000
  C   C849      1.0  0.50716  0.05771  0.96762  1.0000
  H   H1436     1.0  0.67203  0.31040  0.68845  1.0000
  H   H1437     1.0  0.67454  0.39178  0.71256  1.0000
  H   H1438     1.0  0.67114  0.99704  0.92722  1.0000
  H   H1439     1.0  0.69957  0.38351  0.87388  1.0000
  C   C850      1.0  0.61155  0.48412  0.77120  1.0000
  H   H1440     1.0  0.71349  0.40546  0.83461  1.0000
  N   N60       1.0  0.69074  0.36664  0.69616  1.0000
  H   H1441     1.0  0.66695  0.17400  0.95766  1.0000
  C   C851      1.0  0.67733  0.37117  0.69837  1.0000
  C   C852      1.0  0.66315  0.44631  0.64104  1.0000
  C   C853      1.0  0.51371  0.00217  0.87691  1.0000
  H   H1442     1.0  0.68804  0.42112  0.65544  1.0000
  C   C854      1.0  0.69054  0.34049  0.65435  1.0000
  C   C855      1.0  0.69623  0.40726  0.68945  1.0000
  C   C856      1.0  0.53855  0.37658  0.62883  1.0000
  H   H1443     1.0  0.51546  0.07505  0.96555  1.0000
  H   H1444     1.0  0.50343  0.05526  0.95041  1.0000
  H   H1445     1.0  0.53097  0.42716  0.60911  1.0000
  H   H1446     1.0  0.49959  0.41281  0.60693  1.0000
  H   H1447     1.0  0.49508  0.20677  0.97651  1.0000
  H   H1448     1.0  0.50043  0.42414  0.78460  1.0000
  C   C857      1.0  0.67058  0.33126  0.70297  1.0000
  C   C858      1.0  0.66161  0.18869  0.94370  1.0000
  H   H1449     1.0  0.71254  0.32372  0.71213  1.0000
  H   H1450     1.0  0.52890  0.32734  0.76871  1.0000
  C   C859      1.0  0.63564  0.40247  0.58827  1.0000
  S   S250      1.0  0.67715  0.46954  0.73251  1.0000
  C   C860      1.0  0.70847  0.34882  0.72237  1.0000
  H   H1451     1.0  0.51319  0.36879  0.77015  1.0000
  S   S251      1.0  0.68282  0.09244  0.98679  1.0000
  H   H1452     1.0  0.51630  0.34243  0.58837  1.0000
  H   H1453     1.0  0.51914  0.29495  0.80395  1.0000
  H   H1454     1.0  0.66249  0.42518  0.65596  1.0000
  H   H1455     1.0  0.69129  0.32316  0.72603  1.0000
  H   H1456     1.0  0.71565  0.46562  0.88537  1.0000
  C   C861      1.0  0.49709  0.18882  0.96087  1.0000
  C   C862      1.0  0.70622  0.38351  0.88746  1.0000
  H   H1457     1.0  0.65771  0.11274  0.96953  1.0000
  C   C863      1.0  0.71903  0.38035  0.87667  1.0000
  H   H1458     1.0  0.73326  0.01676  0.84279  1.0000
  H   H1459     1.0  0.69668  0.35954  0.64313  1.0000
  H   H1460     1.0  0.56243  0.01958  0.90395  1.0000
  H   H1461     1.0  0.65336  0.11531  0.93173  1.0000
  H   H1462     1.0  0.48927  0.24977  0.79529  1.0000
  H   H1463     1.0  0.56572  0.03032  0.86216  1.0000
  C   C864      1.0  0.69491  0.33483  0.67930  1.0000
  H   H1464     1.0  0.61703  0.43481  0.74939  1.0000
  H   H1465     1.0  0.59673  0.40770  0.74848  1.0000
  C   C865      1.0  0.61207  0.02663  0.96372  1.0000
  H   H1466     1.0  0.67355  0.38603  0.68264  1.0000
  Fe  Fe125     1.0  0.66312  0.45701  0.53192  1.0000
  H   H1467     1.0  0.71058  0.04212  0.96639  1.0000
  C   C866      1.0  0.61259  0.05184  0.98252  1.0000
  C   C867      1.0  0.55646  0.03035  0.86969  1.0000
  S   S252      1.0  0.62134  0.45213  0.50576  1.0000
  H   H1468     1.0  0.70479  0.33361  0.67724  1.0000
  H   H1469     1.0  0.67276  0.31502  0.71960  1.0000
  C   C868      1.0  0.64913  0.12652  0.97640  1.0000
  H   H1470     1.0  0.51303  0.25788  0.78710  1.0000
  H   H1471     1.0  0.48535  0.26028  0.82499  1.0000
  Fe  Fe126     1.0  0.66990  0.04149  0.99484  1.0000
  C   C869      1.0  0.49782  0.30778  0.76334  1.0000
  H   H1472     1.0  0.58503  0.09966  0.97889  1.0000
  H   H1473     1.0  0.55019  0.02007  0.85720  1.0000
  H   H1474     1.0  0.70269  0.05469  0.93150  1.0000
  C   C870      1.0  0.49832  0.07637  0.98596  1.0000
  H   H1475     1.0  0.62548  0.12632  0.96790  1.0000
  C   C871      1.0  0.51974  0.30622  0.61893  1.0000
  H   H1476     1.0  0.53569  0.34936  0.63940  1.0000
  H   H1477     1.0  0.54079  0.40081  0.64052  1.0000
  N   N61       1.0  0.50365  0.31698  0.78545  1.0000
  H   H1478     1.0  0.61631  0.45138  0.61366  1.0000
  C   C872      1.0  0.70739  0.01222  0.97345  1.0000
  H   H1479     1.0  0.52944  0.30463  0.61460  1.0000
  H   H1480     1.0  0.50691  0.45022  0.64779  1.0000
  H   H1481     1.0  0.50399  0.34006  0.60880  1.0000
  H   H1482     1.0  0.51781  0.36404  0.65216  1.0000
  H   H1483     1.0  0.50071  0.31561  0.82290  1.0000
  H   H1484     1.0  0.54708  0.36760  0.61959  1.0000
  H   H1485     1.0  0.48767  0.32609  0.80796  1.0000
  H   H1486     1.0  0.51161  0.02434  0.86305  1.0000
  H   H1487     1.0  0.72500  0.01912  0.92700  1.0000
  C   C873      1.0  0.71497  0.43141  0.84574  1.0000
  H   H1488     1.0  0.62968  0.21304  0.98295  1.0000
  H   H1489     1.0  0.50016  0.24301  0.81740  1.0000
  H   H1490     1.0  0.50347  0.37926  0.64418  1.0000
  C   C874      1.0  0.49257  0.26241  0.81114  1.0000
  H   H1491     1.0  0.63732  0.44138  0.55710  1.0000
  H   H1492     1.0  0.70610  0.43978  0.85389  1.0000
  C   C875      1.0  0.52972  0.39357  0.61067  1.0000
  H   H1493     1.0  0.50625  0.44692  0.56886  1.0000
  Fe  Fe127     1.0  0.73304  0.26588  0.89217  1.0000
  S   S253      1.0  0.73367  0.19693  0.89366  1.0000
  H   H1494     1.0  0.72679  0.46371  0.81951  1.0000
  H   H1495     1.0  0.71294  0.00270  0.98830  1.0000
  H   H1496     1.0  0.73380  0.06362  0.82506  1.0000
  H   H1497     1.0  0.72969  0.01906  0.81239  1.0000
  H   H1498     1.0  0.61659  0.43269  0.55321  1.0000
  C   C876      1.0  0.62621  0.18188  0.98461  1.0000
  H   H1499     1.0  0.63182  0.34636  0.51112  1.0000
  S   S254      1.0  0.53822  0.29293  0.50570  1.0000
  H   H1500     1.0  0.69547  0.46226  0.66672  1.0000
  N   N62       1.0  0.62359  0.46945  0.57938  1.0000
  C   C877      1.0  0.60156  0.46537  0.56881  1.0000
  H   H1501     1.0  0.72747  0.43687  0.89830  1.0000
  C   C878      1.0  0.51208  0.22376  0.49622  1.0000
  H   H1502     1.0  0.54689  0.01442  0.90185  1.0000
  C   C879      1.0  0.62056  0.47826  0.60456  1.0000
  H   H1503     1.0  0.51847  0.35149  0.49848  1.0000
  H   H1504     1.0  0.49146  0.05336  0.99052  1.0000
  H   H1505     1.0  0.64486  0.31678  0.50134  1.0000
  H   H1506     1.0  0.71131  0.47249  0.81618  1.0000
  C   C880      1.0  0.68898  0.99202  0.94006  1.0000
  C   C881      1.0  0.59946  0.42385  0.49592  1.0000
  N   N63       1.0  0.70210  0.98833  0.93321  1.0000
  C   C882      1.0  0.68042  0.99488  0.91983  1.0000
  H   H1507     1.0  0.59861  0.48103  0.58483  1.0000
  H   H1508     1.0  0.56034  0.99121  0.93992  1.0000
  H   H1509     1.0  0.52702  0.99451  0.92866  1.0000
  C   C883      1.0  0.63548  0.32550  0.49768  1.0000
  H   H1510     1.0  0.50744  0.19449  0.49716  1.0000
  C   C884      1.0  0.52245  0.98544  0.91377  1.0000
  H   H1511     1.0  0.73430  0.38327  0.83920  1.0000
  Fe  Fe128     1.0  0.71714  0.77438  0.36339  1.0000
  S   S255      1.0  0.72113  0.77122  0.40143  1.0000
  S   S256      1.0  0.70388  0.82718  0.35410  1.0000
  Fe  Fe129     1.0  0.72233  0.70283  0.39968  1.0000
  S   S257      1.0  0.71677  0.65808  0.43019  1.0000
  S   S258      1.0  0.71684  0.70552  0.36258  1.0000
  H   H1512     1.0  0.73125  0.80677  0.44087  1.0000
  S   S259      1.0  0.64810  0.94622  0.23813  1.0000
  Fe  Fe130     1.0  0.66601  0.93769  0.25440  1.0000
  C   C885      1.0  0.68756  0.49800  0.41284  1.0000
  H   H1513     1.0  0.49594  0.94887  0.30667  1.0000
  Fe  Fe131     1.0  0.49148  0.62172  0.35616  1.0000
  Fe  Fe132     1.0  0.66397  0.51053  0.48638  1.0000
  S   S260      1.0  0.67352  0.87445  0.26512  1.0000
  C   C886      1.0  0.63205  0.88528  0.28393  1.0000
  H   H1514     1.0  0.56747  0.82200  0.30570  1.0000
  H   H1515     1.0  0.53417  0.85540  0.33826  1.0000
  C   C887      1.0  0.55256  0.88749  0.27660  1.0000
  H   H1516     1.0  0.64551  0.93831  0.30435  1.0000
  S   S261      1.0  0.51951  0.94357  0.33080  1.0000
  H   H1517     1.0  0.69949  0.78290  0.31226  1.0000
  H   H1518     1.0  0.55156  0.56292  0.43711  1.0000
  S   S262      1.0  0.66880  0.56692  0.46291  1.0000
  C   C888      1.0  0.71855  0.83073  0.46624  1.0000
  H   H1519     1.0  0.63312  0.84220  0.35189  1.0000
  C   C889      1.0  0.66335  0.96138  0.14303  1.0000
  S   S263      1.0  0.49457  0.67915  0.37447  1.0000
  S   S264      1.0  0.50390  0.56511  0.35538  1.0000
  H   H1520     1.0  0.59454  0.93746  0.25501  1.0000
  S   S265      1.0  0.50072  0.76333  0.31969  1.0000
  H   H1521     1.0  0.53717  0.60045  0.41601  1.0000
  C   C890      1.0  0.51951  0.49022  0.41718  1.0000
  C   C891      1.0  0.70651  0.49609  0.43334  1.0000
  H   H1522     1.0  0.72188  0.76998  0.45536  1.0000
  C   C892      1.0  0.50961  0.53673  0.37963  1.0000
  C   C893      1.0  0.50809  0.55019  0.40230  1.0000
  C   C894      1.0  0.51307  0.52710  0.42095  1.0000
  H   H1523     1.0  0.65045  0.98029  0.33922  1.0000
  H   H1524     1.0  0.50317  0.57853  0.40540  1.0000
  H   H1525     1.0  0.51193  0.53793  0.43839  1.0000
  C   C895      1.0  0.51374  0.89443  0.32685  1.0000
  C   C896      1.0  0.51492  0.87535  0.30560  1.0000
  C   C897      1.0  0.51074  0.83559  0.30379  1.0000
  C   C898      1.0  0.50525  0.81427  0.32306  1.0000
  C   C899      1.0  0.50387  0.83368  0.34418  1.0000
  C   C900      1.0  0.50806  0.87345  0.34601  1.0000
  H   H1526     1.0  0.51909  0.89098  0.29057  1.0000
  H   H1527     1.0  0.51179  0.82105  0.28732  1.0000
  H   H1528     1.0  0.49966  0.81788  0.35917  1.0000
  H   H1529     1.0  0.50704  0.88780  0.36255  1.0000
  H   H1530     1.0  0.55786  0.51526  0.46444  1.0000
  H   H1531     1.0  0.67217  0.92401  0.11698  1.0000
  H   H1532     1.0  0.62308  0.89015  0.37920  1.0000
  H   H1533     1.0  0.58628  0.52744  0.41799  1.0000
  H   H1534     1.0  0.57253  0.52271  0.45076  1.0000
  H   H1535     1.0  0.63417  0.95146  0.32437  1.0000
  H   H1536     1.0  0.65141  0.93405  0.35584  1.0000
  H   H1537     1.0  0.69760  0.57105  0.39552  1.0000
  H   H1538     1.0  0.53883  0.89855  0.30316  1.0000
  H   H1539     1.0  0.62649  0.93327  0.36033  1.0000
  C   C901      1.0  0.50691  0.97120  0.26060  1.0000
  H   H1540     1.0  0.66093  0.94083  0.32975  1.0000
  C   C902      1.0  0.70330  0.63309  0.43886  1.0000
  C   C903      1.0  0.69281  0.63993  0.42703  1.0000
  C   C904      1.0  0.68239  0.61941  0.43467  1.0000
  C   C905      1.0  0.68230  0.59148  0.45408  1.0000
  C   C906      1.0  0.69281  0.58449  0.46585  1.0000
  C   C907      1.0  0.70321  0.60520  0.45830  1.0000
  H   H1541     1.0  0.69268  0.66128  0.41211  1.0000
  H   H1542     1.0  0.67432  0.62535  0.42549  1.0000
  N   N64       1.0  0.70063  0.48576  0.41148  1.0000
  H   H1543     1.0  0.71124  0.59967  0.46765  1.0000
  C   C908      1.0  0.69619  0.84029  0.32835  1.0000
  C   C909      1.0  0.69047  0.87912  0.32606  1.0000
  C   C910      1.0  0.68388  0.89056  0.30643  1.0000
  C   C911      1.0  0.68269  0.86288  0.28904  1.0000
  C   C912      1.0  0.68839  0.82406  0.29133  1.0000
  C   C913      1.0  0.69519  0.81292  0.31074  1.0000
  H   H1544     1.0  0.69108  0.90030  0.33969  1.0000
  H   H1545     1.0  0.67951  0.92040  0.30499  1.0000
  H   H1546     1.0  0.68751  0.80233  0.27804  1.0000
  H   H1547     1.0  0.71751  0.91201  0.34595  1.0000
  N   N65       1.0  0.55055  0.85064  0.31714  1.0000
  H   H1548     1.0  0.54560  0.82619  0.35194  1.0000
  H   H1549     1.0  0.55280  0.91573  0.30941  1.0000
  C   C914      1.0  0.72740  0.79652  0.45832  1.0000
  H   H1550     1.0  0.55298  0.91891  0.26859  1.0000
  C   C915      1.0  0.71841  0.94340  0.33797  1.0000
  H   H1551     1.0  0.55026  0.81021  0.28836  1.0000
  H   H1552     1.0  0.53597  0.82466  0.30030  1.0000
  H   H1553     1.0  0.55568  0.88653  0.36201  1.0000
  H   H1554     1.0  0.56153  0.87275  0.27420  1.0000
  H   H1555     1.0  0.55344  0.76555  0.32626  1.0000
  H   H1556     1.0  0.56703  0.55976  0.38782  1.0000
  C   C916      1.0  0.57193  0.87702  0.32089  1.0000
  H   H1557     1.0  0.71187  0.56497  0.40870  1.0000
  C   C917      1.0  0.56856  0.54356  0.40492  1.0000
  H   H1558     1.0  0.54249  0.75079  0.30706  1.0000
  C   C918      1.0  0.62474  0.90019  0.36064  1.0000
  C   C919      1.0  0.54524  0.81624  0.30507  1.0000
  H   H1559     1.0  0.71110  0.83308  0.45422  1.0000
  H   H1560     1.0  0.54611  0.87116  0.26683  1.0000
  C   C920      1.0  0.54671  0.89010  0.35502  1.0000
  H   H1561     1.0  0.63322  0.91796  0.27890  1.0000
  S   S266      1.0  0.67655  0.97899  0.00697  1.0000
  H   H1562     1.0  0.62633  0.84718  0.31365  1.0000
  H   H1563     1.0  0.66301  0.87379  0.34425  1.0000
  H   H1564     1.0  0.70482  0.73468  0.99622  1.0000
  C   C921      1.0  0.58093  0.52112  0.40297  1.0000
  C   C922      1.0  0.65189  0.94679  0.33772  1.0000
  C   C923      1.0  0.54478  0.77475  0.31889  1.0000
  H   H1565     1.0  0.71460  0.82435  0.48401  1.0000
  H   H1566     1.0  0.56885  0.89949  0.33375  1.0000
  C   C924      1.0  0.66192  0.97329  0.10068  1.0000
  C   C925      1.0  0.56363  0.84065  0.32009  1.0000
  H   H1567     1.0  0.73165  0.61979  0.99978  1.0000
  H   H1568     1.0  0.63990  0.86691  0.27746  1.0000
  C   C926      1.0  0.54392  0.85390  0.34049  1.0000
  H   H1569     1.0  0.58089  0.86535  0.32574  1.0000
  H   H1570     1.0  0.57313  0.89325  0.30360  1.0000
  S   S267      1.0  0.48835  0.65559  0.32177  1.0000
  H   H1571     1.0  0.65513  0.87489  0.30286  1.0000
  S   S268      1.0  0.64844  0.95410  0.01241  1.0000
  H   H1572     1.0  0.53764  0.77516  0.33294  1.0000
  H   H1573     1.0  0.64721  0.83060  0.31163  1.0000
  N   N66       1.0  0.55803  0.51810  0.41249  1.0000
  H   H1574     1.0  0.62429  0.87573  0.27465  1.0000
  H   H1575     1.0  0.71564  0.66458  0.99738  1.0000
  H   H1576     1.0  0.71107  0.57112  0.37797  1.0000
  H   H1577     1.0  0.53639  0.56411  0.39440  1.0000
  C   C927      1.0  0.54827  0.54578  0.42268  1.0000
  H   H1578     1.0  0.56490  0.82109  0.33620  1.0000
  C   C928      1.0  0.54263  0.57810  0.40577  1.0000
  C   C929      1.0  0.54844  0.88943  0.30252  1.0000
  Fe  Fe133     1.0  0.49015  0.71357  0.34083  1.0000
  Fe  Fe134     1.0  0.66165  0.98183  0.03493  1.0000
  H   H1579     1.0  0.54546  0.91992  0.34552  1.0000
  H   H1580     1.0  0.51727  0.48920  0.35842  1.0000
  H   H1581     1.0  0.70150  0.96166  0.35442  1.0000
  H   H1582     1.0  0.51484  0.95382  0.26698  1.0000
  C   C930      1.0  0.66639  0.95054  0.11996  1.0000
  H   H1583     1.0  0.54030  0.89072  0.37034  1.0000
  H   H1584     1.0  0.50889  0.98115  0.24218  1.0000
  H   H1585     1.0  0.64264  0.87736  0.36270  1.0000
  S   S269      1.0  0.57294  0.97557  0.27351  1.0000
  H   H1586     1.0  0.56950  0.56805  0.41737  1.0000
  H   H1587     1.0  0.69519  0.98018  0.17677  1.0000
  C   C931      1.0  0.59709  0.96201  0.26538  1.0000
  H   H1588     1.0  0.61597  0.95113  0.25800  1.0000
  H   H1589     1.0  0.71405  0.97025  0.37045  1.0000
  H   H1590     1.0  0.62455  0.95551  0.21244  1.0000
  H   H1591     1.0  0.72799  0.95017  0.33785  1.0000
  H   H1592     1.0  0.65558  0.82594  0.34995  1.0000
  C   C932      1.0  0.65932  0.84742  0.33623  1.0000
  N   N67       1.0  0.63952  0.88667  0.32571  1.0000
  C   C933      1.0  0.62940  0.87898  0.31042  1.0000
  C   C934      1.0  0.63546  0.87499  0.35044  1.0000
  C   C935      1.0  0.65013  0.86000  0.31798  1.0000
  C   C936      1.0  0.64230  0.93120  0.32255  1.0000
  H   H1593     1.0  0.66693  0.83061  0.32755  1.0000
  H   H1594     1.0  0.72270  0.86095  0.46503  1.0000
  S   S270      1.0  0.67513  0.97881  0.22707  1.0000
  H   H1595     1.0  0.54086  0.52769  0.43073  1.0000
  C   C937      1.0  0.51609  0.49991  0.37589  1.0000
  H   H1596     1.0  0.61644  0.89524  0.35180  1.0000
  C   C938      1.0  0.56526  0.50103  0.45384  1.0000
  C   C939      1.0  0.60927  0.96974  0.26702  1.0000
  H   H1597     1.0  0.70300  0.52599  0.43943  1.0000
  H   H1598     1.0  0.69290  0.56341  0.48089  1.0000
  H   H1599     1.0  0.49984  0.94873  0.26148  1.0000
  C   C940      1.0  0.70645  0.51010  0.39132  1.0000
  H   H1600     1.0  0.62156  0.89959  0.31441  1.0000
  H   H1601     1.0  0.54937  0.59533  0.39505  1.0000
  C   C941      1.0  0.70666  0.55679  0.39388  1.0000
  H   H1602     1.0  0.62381  0.93214  0.18532  1.0000
  H   H1603     1.0  0.72391  0.74878  0.49368  1.0000
  H   H1604     1.0  0.71558  0.94233  0.31988  1.0000
  H   H1605     1.0  0.68626  0.53009  0.41814  1.0000
  H   H1606     1.0  0.66676  0.94315  0.15754  1.0000
  S   S271      1.0  0.66602  0.95757  0.07195  1.0000
  H   H1607     1.0  0.70193  0.50591  0.37492  1.0000
  H   H1608     1.0  0.61037  0.94092  0.20227  1.0000
  H   H1609     1.0  0.54980  0.52091  0.37905  1.0000
  C   C942      1.0  0.61910  0.95403  0.19706  1.0000
  H   H1610     1.0  0.48680  0.98225  0.32492  1.0000
  H   H1611     1.0  0.72345  0.70719  0.00584  1.0000
  H   H1612     1.0  0.71586  0.49918  0.38810  1.0000
  H   H1613     1.0  0.58600  0.53364  0.38733  1.0000
  H   H1614     1.0  0.71625  0.49982  0.42976  1.0000
  H   H1615     1.0  0.68369  0.49884  0.39540  1.0000
  C   C943      1.0  0.48702  0.96383  0.30927  1.0000
  C   C944      1.0  0.71066  0.97342  0.35262  1.0000
  H   H1616     1.0  0.68770  0.97669  0.15050  1.0000
  H   H1617     1.0  0.69605  0.96792  0.31603  1.0000
  C   C945      1.0  0.55320  0.49795  0.39213  1.0000
  H   H1618     1.0  0.73380  0.72053  0.44068  1.0000
  H   H1619     1.0  0.58085  0.48777  0.40125  1.0000
  H   H1620     1.0  0.56880  0.48866  0.36814  1.0000
  H   H1621     1.0  0.73419  0.70007  0.47034  1.0000
  C   C946      1.0  0.73426  0.65198  0.00066  1.0000
  C   C947      1.0  0.56081  0.48562  0.43108  1.0000
  H   H1622     1.0  0.67887  0.48599  0.44733  1.0000
  Fe  Fe135     1.0  0.71104  0.71460  0.85555  1.0000
  S   S272      1.0  0.71380  0.70129  0.89373  1.0000
  S   S273      1.0  0.69512  0.69946  0.83466  1.0000
  Fe  Fe136     1.0  0.71855  0.76733  0.89519  1.0000
  S   S274      1.0  0.71436  0.80756  0.92628  1.0000
  S   S275      1.0  0.71421  0.78170  0.85809  1.0000
  S   S276      1.0  0.53267  0.55862  0.83015  1.0000
  C   C948      1.0  0.73168  0.76727  0.49718  1.0000
  S   S277      1.0  0.49562  0.83792  0.83198  1.0000
  S   S278      1.0  0.49626  0.71433  0.82411  1.0000
  H   H1623     1.0  0.67768  0.68312  0.80205  1.0000
  Fe  Fe137     1.0  0.49711  0.84938  0.87024  1.0000
  S   S279      1.0  0.51157  0.87904  0.88961  1.0000
  H   H1624     1.0  0.73008  0.69985  0.73402  1.0000
  H   H1625     1.0  0.62554  0.50124  0.54564  1.0000
  S   S280      1.0  0.66672  0.90890  0.95598  1.0000
  H   H1626     1.0  0.48892  0.69907  0.89862  1.0000
  C   C949      1.0  0.71547  0.76499  0.78959  1.0000
  H   H1627     1.0  0.57241  0.91732  0.89265  1.0000
  C   C950      1.0  0.73162  0.73635  0.96571  1.0000
  H   H1628     1.0  0.71356  0.63653  0.93988  1.0000
  C   C951      1.0  0.64292  0.63089  0.79652  1.0000
  Fe  Fe138     1.0  0.67043  0.51357  0.75947  1.0000
  N   N68       1.0  0.55744  0.96045  0.89287  1.0000
  S   S281      1.0  0.68508  0.53991  0.78013  1.0000
  H   H1629     1.0  0.67377  0.62231  0.77976  1.0000
  C   C952      1.0  0.73331  0.48560  0.87491  1.0000
  H   H1630     1.0  0.64025  0.65318  0.80984  1.0000
  H   H1631     1.0  0.49695  0.54273  0.86559  1.0000
  S   S282      1.0  0.65530  0.53694  0.73761  1.0000
  H   H1632     1.0  0.54225  0.88800  0.86403  1.0000
  H   H1633     1.0  0.49745  0.68765  0.87336  1.0000
  H   H1634     1.0  0.72732  0.74456  0.71589  1.0000
  C   C953      1.0  0.63903  0.52493  0.82799  1.0000
  C   C954      1.0  0.66427  0.50053  0.60173  1.0000
  H   H1635     1.0  0.62286  0.49296  0.83799  1.0000
  H   H1636     1.0  0.65497  0.63910  0.83458  1.0000
  C   C955      1.0  0.51361  0.93192  0.89263  1.0000
  C   C956      1.0  0.64225  0.58959  0.84620  1.0000
  H   H1637     1.0  0.72049  0.79340  0.78685  1.0000
  S   S283      1.0  0.72997  0.69948  0.84437  1.0000
  C   C957      1.0  0.73338  0.72862  0.77567  1.0000
  C   C958      1.0  0.51946  0.94435  0.91199  1.0000
  H   H1638     1.0  0.50611  0.95213  0.86028  1.0000
  H   H1639     1.0  0.53935  0.95666  0.88238  1.0000
  H   H1640     1.0  0.63875  0.50165  0.61015  1.0000
  H   H1641     1.0  0.52185  0.92187  0.92549  1.0000
  C   C959      1.0  0.52278  0.60246  0.82731  1.0000
  C   C960      1.0  0.52421  0.63591  0.84127  1.0000
  C   C961      1.0  0.51643  0.67080  0.84016  1.0000
  C   C962      1.0  0.50696  0.67256  0.82523  1.0000
  C   C963      1.0  0.50557  0.63919  0.81122  1.0000
  C   C964      1.0  0.51341  0.60447  0.81220  1.0000
  H   H1642     1.0  0.53144  0.63488  0.85297  1.0000
  H   H1643     1.0  0.51774  0.69619  0.85092  1.0000
  H   H1644     1.0  0.49833  0.64010  0.79954  1.0000
  H   H1645     1.0  0.51216  0.57917  0.80132  1.0000
  H   H1646     1.0  0.58279  0.50235  0.79210  1.0000
  H   H1647     1.0  0.66252  0.54075  0.85388  1.0000
  C   C965      1.0  0.67999  0.88020  0.94843  1.0000
  C   C966      1.0  0.68055  0.85845  0.92791  1.0000
  C   C967      1.0  0.69095  0.83597  0.92089  1.0000
  C   C968      1.0  0.70094  0.83489  0.93438  1.0000
  C   C969      1.0  0.70038  0.85652  0.95496  1.0000
  C   C970      1.0  0.68997  0.87898  0.96199  1.0000
  H   H1648     1.0  0.67287  0.85905  0.91733  1.0000
  H   H1649     1.0  0.69121  0.81951  0.90504  1.0000
  H   H1650     1.0  0.70803  0.85587  0.96559  1.0000
  H   H1651     1.0  0.71793  0.49693  0.83883  1.0000
  C   C971      1.0  0.69249  0.65468  0.81973  1.0000
  C   C972      1.0  0.69955  0.61892  0.82236  1.0000
  C   C973      1.0  0.69714  0.58426  0.81003  1.0000
  C   C974      1.0  0.68773  0.58495  0.79481  1.0000
  C   C975      1.0  0.68084  0.62102  0.79180  1.0000
  C   C976      1.0  0.68313  0.65548  0.80439  1.0000
  H   H1652     1.0  0.70681  0.61786  0.83399  1.0000
  H   H1653     1.0  0.70260  0.55665  0.81235  1.0000
  H   H1654     1.0  0.71322  0.62852  0.77688  1.0000
  H   H1655     1.0  0.72676  0.64769  0.76461  1.0000
  H   H1656     1.0  0.71822  0.77847  0.74529  1.0000
  H   H1657     1.0  0.50232  0.59437  0.88962  1.0000
  S   S284      1.0  0.49449  0.78315  0.88155  1.0000
  C   C977      1.0  0.56267  0.95901  0.93626  1.0000
  H   H1658     1.0  0.70462  0.69680  0.78255  1.0000
  C   C978      1.0  0.70521  0.74396  0.97745  1.0000
  C   C979      1.0  0.71669  0.74531  0.74886  1.0000
  H   H1659     1.0  0.69772  0.92867  0.92208  1.0000
  H   H1660     1.0  0.71661  0.90955  0.90168  1.0000
  C   C980      1.0  0.71172  0.71152  0.96238  1.0000
  H   H1661     1.0  0.72695  0.60603  0.94100  1.0000
  H   H1662     1.0  0.69604  0.75355  0.79162  1.0000
  H   H1663     1.0  0.63305  0.60347  0.84687  1.0000
  C   C981      1.0  0.72891  0.66812  0.95154  1.0000
  H   H1664     1.0  0.73128  0.74951  0.94752  1.0000
  H   H1665     1.0  0.65879  0.54502  0.80089  1.0000
  Fe  Fe139     1.0  0.66115  0.48886  0.71190  1.0000
  C   C982      1.0  0.62413  0.50842  0.56433  1.0000
  Fe  Fe140     1.0  0.49169  0.77265  0.84399  1.0000
  H   H1666     1.0  0.68099  0.96716  0.90952  1.0000
  H   H1667     1.0  0.69589  0.74811  0.97205  1.0000
  H   H1668     1.0  0.65260  0.63132  0.79219  1.0000
  N   N69       1.0  0.48710  0.63711  0.88742  1.0000
  H   H1669     1.0  0.54984  0.95348  0.85916  1.0000
  Fe  Fe141     1.0  0.73343  0.76593  0.84876  1.0000
  N   N70       1.0  0.64447  0.56633  0.82431  1.0000
  C   C983      1.0  0.71637  0.93186  0.91563  1.0000
  H   H1670     1.0  0.61557  0.52632  0.56568  1.0000
  H   H1671     1.0  0.62283  0.54279  0.84923  1.0000
  H   H1672     1.0  0.71685  0.75465  0.80802  1.0000
  H   H1673     1.0  0.63154  0.55283  0.58657  1.0000
  H   H1674     1.0  0.50864  0.69669  0.90976  1.0000
  H   H1675     1.0  0.50049  0.61749  0.86153  1.0000
  H   H1676     1.0  0.54546  0.94933  0.92310  1.0000
  H   H1677     1.0  0.71824  0.97353  0.95177  1.0000
  H   H1678     1.0  0.72804  0.76074  0.97709  1.0000
  H   H1679     1.0  0.70695  0.74206  0.74728  1.0000
  Fe  Fe142     1.0  0.73315  0.68979  0.88280  1.0000
  H   H1680     1.0  0.71697  0.68487  0.79987  1.0000
  C   C984      1.0  0.63363  0.53870  0.56968  1.0000
  C   C985      1.0  0.71446  0.69324  0.78172  1.0000
  C   C986      1.0  0.55494  0.94330  0.91742  1.0000
  C   C987      1.0  0.65095  0.62366  0.85039  1.0000
  H   H1681     1.0  0.62026  0.53585  0.81885  1.0000
  C   C988      1.0  0.54837  0.94382  0.87771  1.0000
  C   C989      1.0  0.66458  0.53236  0.83569  1.0000
  C   C990      1.0  0.54754  0.89695  0.87862  1.0000
  H   H1682     1.0  0.60305  0.52970  0.79281  1.0000
  H   H1683     1.0  0.56093  0.94101  0.95285  1.0000
  H   H1684     1.0  0.67426  0.53613  0.83187  1.0000
  H   H1685     1.0  0.64606  0.64787  0.86024  1.0000
  H   H1686     1.0  0.57233  0.95575  0.93172  1.0000
  H   H1687     1.0  0.70914  0.77437  0.97471  1.0000
  H   H1688     1.0  0.63847  0.64158  0.78042  1.0000
  C   C991      1.0  0.57309  0.94716  0.85887  1.0000
  C   C992      1.0  0.48975  0.56573  0.86986  1.0000
  H   H1689     1.0  0.51268  0.65113  0.89523  1.0000
  H   H1690     1.0  0.70004  0.80094  0.80189  1.0000
  H   H1691     1.0  0.66476  0.52177  0.58676  1.0000
  H   H1692     1.0  0.72801  0.79242  0.50801  1.0000
  H   H1693     1.0  0.68964  0.89516  0.97795  1.0000
  H   H1694     1.0  0.63982  0.56920  0.78825  1.0000
  S   S285      1.0  0.62593  0.50504  0.77249  1.0000
  H   H1695     1.0  0.66222  0.58810  0.81548  1.0000
  S   S286      1.0  0.65117  0.50866  0.51830  1.0000
  C   C993      1.0  0.70223  0.77879  0.78818  1.0000
  C   C994      1.0  0.63864  0.58797  0.80389  1.0000
  H   H1696     1.0  0.70584  0.68494  0.96369  1.0000
  Fe  Fe143     1.0  0.66309  0.95604  0.98385  1.0000
  N   N71       1.0  0.72008  0.73263  0.77321  1.0000
  N   N72       1.0  0.72423  0.69883  0.96872  1.0000
  H   H1697     1.0  0.62889  0.59203  0.80733  1.0000
  H   H1698     1.0  0.72972  0.68265  0.93365  1.0000
  C   C995      1.0  0.57009  0.94856  0.88534  1.0000
  H   H1699     1.0  0.50325  0.64898  0.92176  1.0000
  H   H1700     1.0  0.66297  0.54784  0.62670  1.0000
  H   H1701     1.0  0.71161  0.72329  0.94390  1.0000
  H   H1702     1.0  0.64278  0.52504  0.56904  1.0000
  H   H1703     1.0  0.63358  0.56406  0.55615  1.0000
  H   H1704     1.0  0.71875  0.61653  0.96765  1.0000
  C   C996      1.0  0.65753  0.55922  0.81804  1.0000
  C   C997      1.0  0.60175  0.50283  0.78325  1.0000
  H   H1705     1.0  0.64310  0.50701  0.84263  1.0000
  C   C998      1.0  0.49430  0.67413  0.89058  1.0000
  H   H1706     1.0  0.70043  0.79486  0.77127  1.0000
  C   C999      1.0  0.72392  0.68184  0.99359  1.0000
  C   C1000     1.0  0.51054  0.96126  0.87532  1.0000
  H   H1707     1.0  0.71652  0.70607  0.71908  1.0000
  C   C1001     1.0  0.66327  0.51525  0.62448  1.0000
  H   H1708     1.0  0.55631  0.90951  0.91845  1.0000
  S   S287      1.0  0.54210  0.49888  0.77153  1.0000
  H   H1709     1.0  0.57242  0.91560  0.85301  1.0000
  C   C1002     1.0  0.49547  0.60482  0.87718  1.0000
  C   C1003     1.0  0.62549  0.52492  0.83386  1.0000
  H   H1710     1.0  0.65809  0.61187  0.86181  1.0000
  H   H1711     1.0  0.54268  0.88585  0.89485  1.0000
  H   H1712     1.0  0.61383  0.50395  0.60575  1.0000
  C   C1004     1.0  0.72151  0.62976  0.95023  1.0000
  C   C1005     1.0  0.72308  0.72236  0.72865  1.0000
  C   C1006     1.0  0.71716  0.65537  0.76729  1.0000
  H   H1713     1.0  0.64274  0.56805  0.86174  1.0000
  H   H1714     1.0  0.56784  0.96869  0.84780  1.0000
  Fe  Fe144     1.0  0.64427  0.48736  0.75572  1.0000
  H   H1715     1.0  0.70543  0.95009  0.96401  1.0000
  H   H1716     1.0  0.58256  0.95484  0.85538  1.0000
  H   H1717     1.0  0.71811  0.91376  0.93199  1.0000
  C   C1007     1.0  0.70396  0.95348  0.91700  1.0000
  H   H1718     1.0  0.55641  0.88125  0.87700  1.0000
  H   H1719     1.0  0.62778  0.51047  0.63264  1.0000
  H   H1720     1.0  0.71278  0.65822  0.75047  1.0000
  H   H1721     1.0  0.68625  0.96559  0.95171  1.0000
  C   C1008     1.0  0.50531  0.66674  0.90528  1.0000
  C   C1009     1.0  0.66279  0.48835  0.64437  1.0000
  H   H1722     1.0  0.73076  0.95124  0.83033  1.0000
  H   H1723     1.0  0.57643  0.96930  0.89263  1.0000
  H   H1724     1.0  0.72365  0.95304  0.91144  1.0000
  C   C1010     1.0  0.70857  0.97909  0.95528  1.0000
  H   H1725     1.0  0.64085  0.50650  0.81237  1.0000
  S   S288      1.0  0.66192  0.50906  0.67271  1.0000
  H   H1726     1.0  0.70180  0.96371  0.89892  1.0000
  H   H1727     1.0  0.72940  0.51481  0.88136  1.0000
  C   C1011     1.0  0.63100  0.48810  0.61965  1.0000
  Fe  Fe145     1.0  0.53560  0.50040  0.80932  1.0000
  H   H1728     1.0  0.66295  0.49950  0.83393  1.0000
  H   H1729     1.0  0.48811  0.59999  0.91932  1.0000
  H   H1730     1.0  0.48483  0.57151  0.85374  1.0000
  C   C1012     1.0  0.59020  0.48742  0.78285  1.0000
  H   H1731     1.0  0.60137  0.48720  0.55344  1.0000
  Fe  Fe146     1.0  0.79154  0.45211  0.02772  1.0000
  H   H1732     1.0  0.95087  0.24574  0.01554  1.0000
  H   H1733     1.0  0.77515  0.37715  0.03062  1.0000
  Fe  Fe147     1.0  0.96994  0.31216  0.10142  1.0000
  H   H1734     1.0  0.73612  0.43173  0.33761  1.0000
  S   S289      1.0  0.95406  0.33654  0.08091  1.0000
  Fe  Fe148     1.0  0.97549  0.30613  0.15289  1.0000
  S   S290      1.0  0.96790  0.30726  0.19042  1.0000
  S   S291      1.0  0.96849  0.26123  0.12899  1.0000
  Fe  Fe149     1.0  0.79255  0.43071  0.25244  1.0000
  S   S292      1.0  0.78744  0.37886  0.27852  1.0000
  H   H1735     1.0  0.83077  0.40959  0.02533  1.0000
  S   S293      1.0  0.80517  0.42899  0.22041  1.0000
  Fe  Fe150     1.0  0.92312  0.43673  0.27407  1.0000
  S   S294      1.0  0.93333  0.44686  0.30588  1.0000
  S   S295      1.0  0.93170  0.43752  0.23708  1.0000
  Fe  Fe151     1.0  0.89871  0.44781  0.30021  1.0000
  H   H1736     1.0  0.96144  0.98805  0.41249  1.0000
  S   S296      1.0  0.87829  0.44406  0.30385  1.0000
  H   H1737     1.0  0.89945  0.31275  0.39615  1.0000
  Fe  Fe152     1.0  0.91979  0.40619  0.32494  1.0000
  S   S297      1.0  0.92500  0.36218  0.35531  1.0000
  H   H1738     1.0  0.76120  0.24655  0.32736  1.0000
  S   S298      1.0  0.91051  0.39227  0.29262  1.0000
  H   H1739     1.0  0.88915  0.30827  0.36538  1.0000
  C   C1013     1.0  0.94527  0.43030  0.00885  1.0000
  H   H1740     1.0  0.83651  0.44424  0.28226  1.0000
  H   H1741     1.0  0.75522  0.48373  0.26065  1.0000
  C   C1014     1.0  0.83330  0.42099  0.04214  1.0000
  Fe  Fe153     1.0  0.78541  0.03733  0.48330  1.0000
  C   C1015     1.0  0.78982  0.44807  0.09428  1.0000
  H   H1742     1.0  0.75721  0.41470  0.32551  1.0000
  H   H1743     1.0  0.88527  0.45888  0.38160  1.0000
  Fe  Fe154     1.0  0.91151  0.14978  0.42865  1.0000
  S   S299      1.0  0.90165  0.15487  0.46363  1.0000
  S   S300      1.0  0.90784  0.18684  0.39464  1.0000
  Fe  Fe155     1.0  0.92587  0.07334  0.44494  1.0000
  S   S301      1.0  0.91714  0.07283  0.48097  1.0000
  Fe  Fe156     1.0  0.89978  0.08667  0.46341  1.0000
  S   S302      1.0  0.88375  0.05187  0.47972  1.0000
  Fe  Fe157     1.0  0.91952  0.14054  0.47908  1.0000
  H   H1744     1.0  0.88023  0.30200  0.32984  1.0000
  S   S303      1.0  0.90850  0.08202  0.42741  1.0000
  S   S304      1.0  0.92940  0.14070  0.44412  1.0000
  Fe  Fe158     1.0  0.81560  0.47542  0.23778  1.0000
  H   H1745     1.0  0.74915  0.29435  0.01227  1.0000
  C   C1016     1.0  0.78693  0.13512  0.34719  1.0000
  C   C1017     1.0  0.86379  0.06553  0.45286  1.0000
  C   C1018     1.0  0.86840  0.04915  0.47357  1.0000
  H   H1746     1.0  0.94972  0.01681  0.34610  1.0000
  H   H1747     1.0  0.95816  0.35802  0.01800  1.0000
  H   H1748     1.0  0.77338  0.36476  0.00149  1.0000
  H   H1749     1.0  0.82842  0.41835  0.08975  1.0000
  C   C1019     1.0  0.75724  0.12543  0.40395  1.0000
  C   C1020     1.0  0.76601  0.09396  0.40603  1.0000
  C   C1021     1.0  0.77042  0.08186  0.42789  1.0000
  C   C1022     1.0  0.76607  0.10117  0.44787  1.0000
  C   C1023     1.0  0.75735  0.13278  0.44575  1.0000
  C   C1024     1.0  0.75295  0.14490  0.42390  1.0000
  H   H1750     1.0  0.76936  0.07862  0.39071  1.0000
  H   H1751     1.0  0.77711  0.05746  0.42928  1.0000
  H   H1752     1.0  0.75393  0.14791  0.46110  1.0000
  H   H1753     1.0  0.74620  0.16917  0.42254  1.0000
  C   C1025     1.0  0.92079  0.31208  0.36506  1.0000
  C   C1026     1.0  0.91368  0.28833  0.35223  1.0000
  C   C1027     1.0  0.90992  0.24998  0.36148  1.0000
  C   C1028     1.0  0.91330  0.23464  0.38355  1.0000
  C   C1029     1.0  0.92074  0.25771  0.39602  1.0000
  C   C1030     1.0  0.92447  0.29612  0.38679  1.0000
  H   H1754     1.0  0.91099  0.29967  0.33527  1.0000
  H   H1755     1.0  0.90427  0.23224  0.35155  1.0000
  H   H1756     1.0  0.92349  0.24631  0.41294  1.0000
  H   H1757     1.0  0.93006  0.31399  0.39681  1.0000
  C   C1031     1.0  0.77315  0.35935  0.28494  1.0000
  C   C1032     1.0  0.76484  0.35705  0.26787  1.0000
  C   C1033     1.0  0.75398  0.33794  0.27333  1.0000
  C   C1034     1.0  0.75124  0.32162  0.29593  1.0000
  C   C1035     1.0  0.75929  0.32592  0.31324  1.0000
  C   C1036     1.0  0.77032  0.34375  0.30764  1.0000
  H   H1758     1.0  0.76694  0.36875  0.25030  1.0000
  H   H1759     1.0  0.74773  0.33525  0.25987  1.0000
  H   H1760     1.0  0.75699  0.31555  0.33092  1.0000
  H   H1761     1.0  0.77665  0.34584  0.32100  1.0000
  C   C1037     1.0  0.86673  0.45368  0.28399  1.0000
  C   C1038     1.0  0.85497  0.44424  0.29129  1.0000
  C   C1039     1.0  0.84546  0.45188  0.27640  1.0000
  H   H1762     1.0  0.85321  0.43080  0.30859  1.0000
  C   C1040     1.0  0.84849  0.02497  0.48571  1.0000
  C   C1041     1.0  0.95837  0.34492  0.20350  1.0000
  C   C1042     1.0  0.95541  0.38207  0.19186  1.0000
  C   C1043     1.0  0.94725  0.41003  0.20242  1.0000
  C   C1044     1.0  0.94213  0.40157  0.22489  1.0000
  C   C1045     1.0  0.94527  0.36479  0.23670  1.0000
  C   C1046     1.0  0.95332  0.33662  0.22601  1.0000
  H   H1763     1.0  0.95934  0.38906  0.17467  1.0000
  H   H1764     1.0  0.94487  0.43836  0.19312  1.0000
  H   H1765     1.0  0.94143  0.35788  0.25398  1.0000
  H   H1766     1.0  0.95559  0.30806  0.23522  1.0000
  C   C1047     1.0  0.93687  0.29244  0.01609  1.0000
  C   C1048     1.0  0.94698  0.27141  0.02468  1.0000
  C   C1049     1.0  0.95225  0.28376  0.04481  1.0000
  C   C1050     1.0  0.94737  0.31713  0.05667  1.0000
  C   C1051     1.0  0.93708  0.33745  0.04842  1.0000
  C   C1052     1.0  0.93189  0.32536  0.02821  1.0000
  H   H1767     1.0  0.96015  0.26779  0.05096  1.0000
  H   H1768     1.0  0.93320  0.36317  0.05753  1.0000
  H   H1769     1.0  0.92405  0.34158  0.02195  1.0000
  H   H1770     1.0  0.86959  0.08115  0.44009  1.0000
  C   C1053     1.0  0.87097  0.31136  0.39722  1.0000
  H   H1771     1.0  0.76830  0.24879  0.01076  1.0000
  H   H1772     1.0  0.78400  0.21416  0.29935  1.0000
  H   H1773     1.0  0.80184  0.25051  0.31549  1.0000
  H   H1774     1.0  0.96202  0.41942  0.04172  1.0000
  S   S305      1.0  0.94216  0.03339  0.43439  1.0000
  N   N73       1.0  0.88272  0.36925  0.37464  1.0000
  C   C1054     1.0  0.87976  0.40855  0.36104  1.0000
  C   C1055     1.0  0.88657  0.33817  0.35706  1.0000
  C   C1056     1.0  0.89308  0.37676  0.38928  1.0000
  C   C1057     1.0  0.87702  0.44672  0.37527  1.0000
  H   H1775     1.0  0.76969  0.27535  0.04462  1.0000
  H   H1776     1.0  0.88715  0.41616  0.34820  1.0000
  H   H1777     1.0  0.87184  0.40529  0.35057  1.0000
  H   H1778     1.0  0.89070  0.33483  0.42004  1.0000
  H   H1779     1.0  0.89478  0.34813  0.34702  1.0000
  H   H1780     1.0  0.90091  0.38655  0.37795  1.0000
  H   H1781     1.0  0.89096  0.40204  0.40111  1.0000
  C   C1058     1.0  0.82217  0.46127  0.11471  1.0000
  S   S306      1.0  0.83594  0.48114  0.23455  1.0000
  H   H1782     1.0  0.95879  0.46859  0.27610  1.0000
  H   H1783     1.0  0.84825  0.07377  0.43238  1.0000
  Fe  Fe159     1.0  0.81218  0.01359  0.47914  1.0000
  C   C1059     1.0  0.79746  0.22267  0.32298  1.0000
  S   S307      1.0  0.82881  0.03516  0.45794  1.0000
  H   H1784     1.0  0.78486  0.20338  0.36613  1.0000
  S   S308      1.0  0.77668  0.45742  0.00242  1.0000
  H   H1785     1.0  0.94542  0.15690  0.38761  1.0000
  H   H1786     1.0  0.76940  0.19888  0.36983  1.0000
  H   H1787     1.0  0.78003  0.14913  0.31347  1.0000
  H   H1788     1.0  0.76918  0.14069  0.33641  1.0000
  C   C1060     1.0  0.97959  0.02173  0.19929  1.0000
  H   H1789     1.0  0.75656  0.19853  0.33869  1.0000
  S   S309      1.0  0.73768  0.29634  0.30167  1.0000
  H   H1790     1.0  0.81417  0.48121  0.11821  1.0000
  H   H1791     1.0  0.78197  0.27806  0.35231  1.0000
  H   H1792     1.0  0.79099  0.33000  0.00386  1.0000
  H   H1793     1.0  0.87047  0.44100  0.38997  1.0000
  C   C1061     1.0  0.82545  0.45916  0.04732  1.0000
  C   C1062     1.0  0.89730  0.34095  0.40544  1.0000
  C   C1063     1.0  0.77759  0.15680  0.33176  1.0000
  H   H1794     1.0  0.87781  0.47855  0.25565  1.0000
  N   N74       1.0  0.76244  0.33038  0.02673  1.0000
  C   C1064     1.0  0.75311  0.36286  0.03311  1.0000
  C   C1065     1.0  0.75793  0.30748  0.00705  1.0000
  C   C1066     1.0  0.82268  0.44641  0.08964  1.0000
  C   C1067     1.0  0.84758  0.46929  0.25396  1.0000
  C   C1068     1.0  0.75172  0.43202  0.31263  1.0000
  H   H1795     1.0  0.93806  0.01659  0.36811  1.0000
  H   H1796     1.0  0.77673  0.26481  0.38138  1.0000
  H   H1797     1.0  0.94071  0.40730  0.02062  1.0000
  H   H1798     1.0  0.85708  0.46689  0.07269  1.0000
  H   H1799     1.0  0.79107  0.33407  0.03445  1.0000
  C   C1069     1.0  0.84838  0.45990  0.08171  1.0000
  H   H1800     1.0  0.83198  0.39547  0.05520  1.0000
  C   C1070     1.0  0.86885  0.47103  0.26155  1.0000
  H   H1801     1.0  0.95349  0.11320  0.37585  1.0000
  H   H1802     1.0  0.97327  0.03672  0.21193  1.0000
  H   H1803     1.0  0.77593  0.33886  0.06631  1.0000
  C   C1071     1.0  0.77389  0.35099  0.01945  1.0000
  H   H1804     1.0  0.76973  0.29703  0.08325  1.0000
  H   H1805     1.0  0.92988  0.47243  0.00742  1.0000
  H   H1806     1.0  0.91707  0.15232  0.32496  1.0000
  H   H1807     1.0  0.78832  0.10302  0.34204  1.0000
  H   H1808     1.0  0.79315  0.38931  0.11169  1.0000
  C   C1072     1.0  0.76321  0.21345  0.32644  1.0000
  N   N75       1.0  0.93036  0.31450  0.15447  1.0000
  C   C1073     1.0  0.93210  0.26865  0.15714  1.0000
  C   C1074     1.0  0.92019  0.32347  0.13870  1.0000
  C   C1075     1.0  0.92729  0.33034  0.17841  1.0000
  C   C1076     1.0  0.94184  0.33156  0.14425  1.0000
  C   C1077     1.0  0.94137  0.25277  0.17464  1.0000
  C   C1078     1.0  0.92190  0.30760  0.11390  1.0000
  C   C1079     1.0  0.91936  0.36968  0.17998  1.0000
  C   C1080     1.0  0.94154  0.37718  0.13664  1.0000
  H   H1809     1.0  0.92353  0.25425  0.16260  1.0000
  H   H1810     1.0  0.93509  0.25546  0.14029  1.0000
  H   H1811     1.0  0.91820  0.35679  0.13644  1.0000
  H   H1812     1.0  0.91187  0.31039  0.14676  1.0000
  H   H1813     1.0  0.92239  0.30724  0.18965  1.0000
  H   H1814     1.0  0.93548  0.33528  0.18768  1.0000
  H   H1815     1.0  0.94902  0.32708  0.15676  1.0000
  H   H1816     1.0  0.94509  0.31454  0.12880  1.0000
  H   H1817     1.0  0.93951  0.26377  0.19240  1.0000
  H   H1818     1.0  0.94131  0.21889  0.17611  1.0000
  H   H1819     1.0  0.95050  0.26081  0.16853  1.0000
  H   H1820     1.0  0.93002  0.31912  0.10449  1.0000
  H   H1821     1.0  0.92200  0.27379  0.11392  1.0000
  H   H1822     1.0  0.91425  0.31878  0.10359  1.0000
  H   H1823     1.0  0.91926  0.38019  0.19806  1.0000
  H   H1824     1.0  0.91001  0.36369  0.17633  1.0000
  H   H1825     1.0  0.92248  0.39521  0.16836  1.0000
  H   H1826     1.0  0.93510  0.38475  0.12304  1.0000
  H   H1827     1.0  0.95040  0.38502  0.12873  1.0000
  H   H1828     1.0  0.93988  0.39676  0.15160  1.0000
  N   N76       1.0  0.93103  0.10204  0.36005  1.0000
  C   C1081     1.0  0.93149  0.14504  0.34940  1.0000
  C   C1082     1.0  0.93437  0.10373  0.38496  1.0000
  C   C1083     1.0  0.91833  0.08892  0.35983  1.0000
  C   C1084     1.0  0.93934  0.07433  0.34600  1.0000
  C   C1085     1.0  0.92695  0.15160  0.32463  1.0000
  C   C1086     1.0  0.94639  0.12303  0.38859  1.0000
  C   C1087     1.0  0.91579  0.04534  0.36954  1.0000
  C   C1088     1.0  0.94476  0.03607  0.35892  1.0000
  H   H1829     1.0  0.92633  0.16683  0.36060  1.0000
  H   H1830     1.0  0.94077  0.15580  0.34832  1.0000
  H   H1831     1.0  0.93457  0.07306  0.39379  1.0000
  H   H1832     1.0  0.92745  0.12153  0.39507  1.0000
  H   H1833     1.0  0.91228  0.11044  0.36965  1.0000
  H   H1834     1.0  0.91518  0.09003  0.34184  1.0000
  H   H1835     1.0  0.93479  0.06352  0.33085  1.0000
  H   H1836     1.0  0.94709  0.09127  0.33825  1.0000
  H   H1837     1.0  0.92969  0.18198  0.31728  1.0000
  C   C1089     1.0  0.85166  0.06126  0.44855  1.0000
  H   H1838     1.0  0.97507  0.01879  0.18278  1.0000
  H   H1839     1.0  0.78456  0.29120  0.02220  1.0000
  S   S310      1.0  0.80397  0.47290  0.27037  1.0000
  H   H1840     1.0  0.84282  0.42850  0.03974  1.0000
  H   H1841     1.0  0.90601  0.04194  0.37138  1.0000
  H   H1842     1.0  0.91922  0.03835  0.38700  1.0000
  H   H1843     1.0  0.91927  0.02223  0.35725  1.0000
  H   H1844     1.0  0.95125  0.04417  0.37163  1.0000
  C   C1090     1.0  0.96871  0.40539  0.02948  1.0000
  C   C1091     1.0  0.76607  0.27289  0.99740  1.0000
  C   C1092     1.0  0.78423  0.22538  0.31723  1.0000
  H   H1845     1.0  0.79896  0.22244  0.34178  1.0000
  C   C1093     1.0  0.77640  0.21419  0.35855  1.0000
  H   H1846     1.0  0.86366  0.36532  0.38020  1.0000
  H   H1847     1.0  0.76904  0.46141  0.28567  1.0000
  H   H1848     1.0  0.87119  0.37495  0.40565  1.0000
  H   H1849     1.0  0.79567  0.14951  0.34545  1.0000
  C   C1094     1.0  0.96308  0.38414  0.00971  1.0000
  H   H1850     1.0  0.76534  0.22117  0.28811  1.0000
  Fe  Fe160     1.0  0.73770  0.18946  0.37003  1.0000
  H   H1851     1.0  0.76621  0.27302  0.35964  1.0000
  S   S311      1.0  0.75197  0.13952  0.37610  1.0000
  H   H1852     1.0  0.90563  0.34928  0.41330  1.0000
  H   H1853     1.0  0.75395  0.41739  0.29590  1.0000
  S   S312      1.0  0.78056  0.48144  0.23801  1.0000
  S   S313      1.0  0.74047  0.25715  0.36873  1.0000
  H   H1854     1.0  0.97069  0.37035  0.99939  1.0000
  Fe  Fe161     1.0  0.79388  0.48253  0.20669  1.0000
  C   C1095     1.0  0.77715  0.46475  0.31849  1.0000
  S   S314      1.0  0.90752  0.45979  0.33345  1.0000
  C   C1096     1.0  0.84391  0.04115  0.46495  1.0000
  S   S315      1.0  0.79017  0.42709  0.06597  1.0000
  C   C1097     1.0  0.79170  0.42167  0.11396  1.0000
  H   H1855     1.0  0.93067  0.12827  0.31274  1.0000
  H   H1856     1.0  0.80202  0.19547  0.31536  1.0000
  N   N77       1.0  0.75477  0.47646  0.31088  1.0000
  C   C1098     1.0  0.87189  0.35718  0.38962  1.0000
  H   H1857     1.0  0.79325  0.41584  0.15144  1.0000
  H   H1858     1.0  0.75489  0.28771  0.05277  1.0000
  H   H1859     1.0  0.78368  0.13359  0.36576  1.0000
  C   C1099     1.0  0.79179  0.43665  0.13661  1.0000
  H   H1860     1.0  0.75074  0.21041  0.29905  1.0000
  C   C1100     1.0  0.76358  0.30181  0.04792  1.0000
  N   N78       1.0  0.77568  0.20248  0.33362  1.0000
  H   H1861     1.0  0.86670  0.30884  0.41504  1.0000
  C   C1101     1.0  0.77525  0.26027  0.36277  1.0000
  H   H1862     1.0  0.76066  0.34172  0.07764  1.0000
  H   H1863     1.0  0.74257  0.45352  0.27014  1.0000
  H   H1864     1.0  0.74495  0.34876  0.04127  1.0000
  H   H1865     1.0  0.87692  0.35528  0.32553  1.0000
  H   H1866     1.0  0.75801  0.47470  0.34782  1.0000
  S   S316      1.0  0.80301  0.41119  0.00460  1.0000
  H   H1867     1.0  0.78143  0.25822  0.31480  1.0000
  S   S317      1.0  0.77119  0.08689  0.47584  1.0000
  H   H1868     1.0  0.86837  0.32514  0.34713  1.0000
  C   C1102     1.0  0.87737  0.32997  0.33904  1.0000
  H   H1869     1.0  0.86494  0.29606  0.38600  1.0000
  H   H1870     1.0  0.78477  0.45067  0.30842  1.0000
  H   H1871     1.0  0.81606  0.45105  0.04507  1.0000
  H   H1872     1.0  0.74287  0.37699  0.00185  1.0000
  C   C1103     1.0  0.76029  0.20267  0.30161  1.0000
  C   C1104     1.0  0.74896  0.39208  0.01303  1.0000
  H   H1873     1.0  0.76168  0.16966  0.29867  1.0000
  H   H1874     1.0  0.87949  0.29365  0.39797  1.0000
  H   H1875     1.0  0.96488  0.48032  0.00824  1.0000
  S   S318      1.0  0.97595  0.35803  0.12607  1.0000
  H   H1876     1.0  0.97367  0.38185  0.04009  1.0000
  H   H1877     1.0  0.82135  0.43452  0.12724  1.0000
  C   C1105     1.0  0.73865  0.42278  0.31968  1.0000
  C   C1106     1.0  0.94240  0.98822  0.41870  1.0000
  H   H1878     1.0  0.84670  0.42790  0.07828  1.0000
  H   H1879     1.0  0.95533  0.48004  0.23430  1.0000
  C   C1107     1.0  0.76773  0.32145  0.06982  1.0000
  H   H1880     1.0  0.94931  0.11391  0.40631  1.0000
  H   H1881     1.0  0.75636  0.38278  0.04638  1.0000
  C   C1108     1.0  0.78981  0.47839  0.14009  1.0000
  H   H1882     1.0  0.74386  0.41848  0.02042  1.0000
  C   C1109     1.0  0.76750  0.47943  0.30150  1.0000
  H   H1883     1.0  0.94874  0.45199  0.02070  1.0000
  C   C1110     1.0  0.85933  0.47882  0.24669  1.0000
  N   N79       1.0  0.82652  0.47726  0.07068  1.0000
  H   H1884     1.0  0.97535  0.42760  0.02268  1.0000
  H   H1885     1.0  0.81372  0.43543  0.08638  1.0000
  H   H1886     1.0  0.75650  0.40446  0.00219  1.0000
  C   C1111     1.0  0.86066  0.02874  0.48988  1.0000
  H   H1887     1.0  0.84974  0.46243  0.10055  1.0000
  H   H1888     1.0  0.73756  0.38924  0.31952  1.0000
  H   H1889     1.0  0.77425  0.44141  0.33188  1.0000
  C   C1112     1.0  0.78558  0.32449  0.02031  1.0000
  H   H1890     1.0  0.82774  0.48160  0.03287  1.0000
  S   S319      1.0  0.79646  0.00004  0.45813  1.0000
  C   C1113     1.0  0.74635  0.48426  0.26992  1.0000
  H   H1891     1.0  0.87317  0.47129  0.36364  1.0000
  H   H1892     1.0  0.83023  0.47741  0.11867  1.0000
  H   H1893     1.0  0.79943  0.43964  0.91319  1.0000
  S   S320      1.0  0.80121  0.05484  0.50232  1.0000
  Fe  Fe162     1.0  0.91024  0.06881  0.81745  1.0000
  S   S321      1.0  0.90512  0.07144  0.77969  1.0000
  S   S322      1.0  0.90409  0.11373  0.84559  1.0000
  H   H1894     1.0  0.75687  0.05386  0.56683  1.0000
  H   H1895     1.0  0.83420  0.33627  0.87978  1.0000
  Fe  Fe163     1.0  0.92307  0.03910  0.77306  1.0000
  S   S323      1.0  0.93631  0.03981  0.74148  1.0000
  H   H1896     1.0  0.98141  0.02237  0.53176  1.0000
  S   S324      1.0  0.92859  0.04019  0.81035  1.0000
  H   H1897     1.0  0.95900  0.26576  0.53292  1.0000
  C   C1114     1.0  0.79701  0.16722  0.78803  1.0000
  S   S325      1.0  0.79732  0.00546  0.77161  1.0000
  H   H1898     1.0  0.93081  0.09590  0.67148  1.0000
  C   C1115     1.0  0.94284  0.33264  0.83622  1.0000
  Fe  Fe164     1.0  0.91817  0.39793  0.93736  1.0000
  S   S326      1.0  0.90942  0.37747  0.97201  1.0000
  C   C1116     1.0  0.96202  0.43969  0.97865  1.0000
  Fe  Fe165     1.0  0.91290  0.31762  0.91443  1.0000
  S   S327      1.0  0.90406  0.29194  0.94744  1.0000
  S   S328      1.0  0.91905  0.28553  0.88123  1.0000
  Fe  Fe166     1.0  0.89502  0.35470  0.95035  1.0000
  S   S329      1.0  0.87501  0.35164  0.96077  1.0000
  Fe  Fe167     1.0  0.91893  0.31698  0.96655  1.0000
  H   H1899     1.0  0.92962  0.43290  0.98741  1.0000
  S   S330      1.0  0.90324  0.37921  0.91585  1.0000
  S   S331      1.0  0.92829  0.33862  0.93333  1.0000
  C   C1117     1.0  0.84325  0.44146  0.97700  1.0000
  C   C1118     1.0  0.84525  0.42268  0.89866  1.0000
  H   H1900     1.0  0.94265  0.36209  0.98926  1.0000
  C   C1119     1.0  0.95208  0.37254  0.88640  1.0000
  S   S332      1.0  0.75707  0.15939  0.84802  1.0000
  C   C1120     1.0  0.81682  0.17092  0.80330  1.0000
  H   H1901     1.0  0.96341  0.28107  0.56895  1.0000
  Fe  Fe168     1.0  0.97559  0.16917  0.64668  1.0000
  S   S333      1.0  0.97537  0.21544  0.61646  1.0000
  S   S334      1.0  0.95968  0.17637  0.67250  1.0000
  C   C1121     1.0  0.82199  0.38058  0.89679  1.0000
  S   S335      1.0  0.97454  0.14610  0.55866  1.0000
  H   H1902     1.0  0.96476  0.36760  0.95517  1.0000
  S   S336      1.0  0.79984  0.03473  0.71626  1.0000
  Fe  Fe169     1.0  0.78525  0.03090  0.74447  1.0000
  S   S337      1.0  0.77204  0.08393  0.75051  1.0000
  C   C1122     1.0  0.93873  0.16627  0.52388  1.0000
  C   C1123     1.0  0.94109  0.18848  0.54336  1.0000
  C   C1124     1.0  0.95188  0.18206  0.55469  1.0000
  C   C1125     1.0  0.96047  0.15374  0.54637  1.0000
  C   C1126     1.0  0.95811  0.13175  0.52690  1.0000
  H   H1903     1.0  0.92020  0.36903  0.83185  1.0000
  H   H1904     1.0  0.93452  0.21076  0.54964  1.0000
  H   H1905     1.0  0.95362  0.19952  0.56951  1.0000
  C   C1127     1.0  0.93828  0.22155  0.92724  1.0000
  H   H1906     1.0  0.95601  0.37797  0.83400  1.0000
  C   C1128     1.0  0.76065  0.13752  0.82094  1.0000
  C   C1129     1.0  0.76983  0.10729  0.81957  1.0000
  C   C1130     1.0  0.77334  0.09033  0.79820  1.0000
  C   C1131     1.0  0.76771  0.10347  0.77793  1.0000
  C   C1132     1.0  0.75846  0.13335  0.77934  1.0000
  C   C1133     1.0  0.75490  0.15022  0.80075  1.0000
  H   H1907     1.0  0.77429  0.09720  0.83515  1.0000
  H   H1908     1.0  0.78040  0.06718  0.79742  1.0000
  H   H1909     1.0  0.75404  0.14372  0.76376  1.0000
  H   H1910     1.0  0.74784  0.17349  0.80157  1.0000
  H   H1911     1.0  0.74585  0.40711  0.88415  1.0000
  C   C1134     1.0  0.77182  0.35289  0.94572  1.0000
  C   C1135     1.0  0.76120  0.37523  0.95024  1.0000
  C   C1136     1.0  0.75043  0.36206  0.94216  1.0000
  C   C1137     1.0  0.75019  0.32704  0.92903  1.0000
  C   C1138     1.0  0.76087  0.30532  0.92403  1.0000
  C   C1139     1.0  0.77159  0.31802  0.93251  1.0000
  H   H1912     1.0  0.76126  0.40243  0.96008  1.0000
  H   H1913     1.0  0.74222  0.37913  0.94609  1.0000
  H   H1914     1.0  0.76081  0.27825  0.91404  1.0000
  H   H1915     1.0  0.77975  0.30051  0.92889  1.0000
  H   H1916     1.0  0.83993  0.04223  0.65095  1.0000
  H   H1917     1.0  0.91836  0.47970  0.89463  1.0000
  C   C1140     1.0  0.86433  0.42965  0.96500  1.0000
  C   C1141     1.0  0.86309  0.38733  0.96735  1.0000
  H   H1918     1.0  0.94507  0.06119  0.60161  1.0000
  C   C1142     1.0  0.86668  0.99502  0.76912  1.0000
  H   H1919     1.0  0.79823  0.13514  0.74486  1.0000
  H   H1920     1.0  0.87055  0.05876  0.76558  1.0000
  H   H1921     1.0  0.90694  0.17917  0.96608  1.0000
  C   C1143     1.0  0.90813  0.16264  0.85409  1.0000
  C   C1144     1.0  0.90138  0.18099  0.87229  1.0000
  C   C1145     1.0  0.90449  0.21872  0.88062  1.0000
  C   C1146     1.0  0.91438  0.23886  0.87069  1.0000
  C   C1147     1.0  0.92101  0.22097  0.85217  1.0000
  C   C1148     1.0  0.91795  0.18301  0.84398  1.0000
  H   H1922     1.0  0.89371  0.16570  0.88009  1.0000
  H   H1923     1.0  0.89923  0.23219  0.89469  1.0000
  H   H1924     1.0  0.92865  0.23626  0.84428  1.0000
  H   H1925     1.0  0.92322  0.16939  0.82995  1.0000
  C   C1149     1.0  0.94292  0.07887  0.72321  1.0000
  C   C1150     1.0  0.93888  0.11970  0.72341  1.0000
  C   C1151     1.0  0.94419  0.14919  0.70793  1.0000
  C   C1152     1.0  0.95367  0.13834  0.69229  1.0000
  C   C1153     1.0  0.95775  0.09757  0.69214  1.0000
  C   C1154     1.0  0.95234  0.06803  0.70742  1.0000
  H   H1926     1.0  0.93162  0.12847  0.73538  1.0000
  H   H1927     1.0  0.94096  0.18065  0.70815  1.0000
  H   H1928     1.0  0.96502  0.08874  0.68023  1.0000
  H   H1929     1.0  0.95554  0.03652  0.70713  1.0000
  H   H1930     1.0  0.73958  0.43227  0.84218  1.0000
  C   C1155     1.0  0.79772  0.99618  0.59424  1.0000
  H   H1931     1.0  0.93802  0.25432  0.93122  1.0000
  H   H1932     1.0  0.81562  0.17319  0.75678  1.0000
  H   H1933     1.0  0.79983  0.05485  0.60853  1.0000
  H   H1934     1.0  0.81572  0.34735  0.96551  1.0000
  C   C1156     1.0  0.93557  0.45401  0.99526  1.0000
  H   H1935     1.0  0.77950  0.06102  0.55116  1.0000
  H   H1936     1.0  0.83788  0.43915  0.93211  1.0000
  H   H1937     1.0  0.96290  0.32240  0.60176  1.0000
  C   C1157     1.0  0.81891  0.45103  0.90921  1.0000
  H   H1938     1.0  0.81715  0.03315  0.67269  1.0000
  H   H1939     1.0  0.77193  0.07081  0.59034  1.0000
  H   H1940     1.0  0.78479  0.10035  0.58298  1.0000
  H   H1941     1.0  0.81188  0.11654  0.73153  1.0000
  H   H1942     1.0  0.79595  0.20638  0.81841  1.0000
  H   H1943     1.0  0.79837  0.14764  0.52932  1.0000
  H   H1944     1.0  0.92873  0.43652  0.82806  1.0000
  H   H1945     1.0  0.83352  0.38702  0.98517  1.0000
  C   C1158     1.0  0.85448  0.45645  0.96982  1.0000
  H   H1946     1.0  0.81529  0.04286  0.80437  1.0000
  C   C1159     1.0  0.80682  0.11903  0.74851  1.0000
  H   H1947     1.0  0.80524  0.08750  0.75531  1.0000
  H   H1948     1.0  0.93898  0.15322  0.90354  1.0000
  H   H1949     1.0  0.77416  0.11620  0.60498  1.0000
  H   H1950     1.0  0.82965  0.34356  0.94962  1.0000
  H   H1951     1.0  0.77384  0.06640  0.52344  1.0000
  H   H1952     1.0  0.85031  0.08072  0.75338  1.0000
  C   C1160     1.0  0.84345  0.02006  0.75547  1.0000
  H   H1953     1.0  0.84271  0.00931  0.49849  1.0000
  H   H1954     1.0  0.84084  0.38675  0.92981  1.0000
  H   H1955     1.0  0.94315  0.07027  0.65617  1.0000
  H   H1956     1.0  0.79758  0.19485  0.77599  1.0000
  H   H1957     1.0  0.82322  0.31350  0.89912  1.0000
  S   S338      1.0  0.82924  0.03744  0.74582  1.0000
  C   C1161     1.0  0.93209  0.13553  0.94744  1.0000
  C   C1162     1.0  0.74897  0.02214  0.81875  1.0000
  N   N80       1.0  0.82396  0.40892  0.91595  1.0000
  S   S339      1.0  0.97940  0.11675  0.62356  1.0000
  H   H1958     1.0  0.92937  0.04567  0.66201  1.0000
  H   H1959     1.0  0.95702  0.44839  0.96280  1.0000
  C   C1163     1.0  0.84204  0.39916  0.97960  1.0000
  H   H1960     1.0  0.82437  0.06065  0.69385  1.0000
  H   H1961     1.0  0.76132  0.25789  0.98387  1.0000
  H   H1962     1.0  0.82386  0.39640  0.87948  1.0000
  H   H1963     1.0  0.85455  0.42262  0.90431  1.0000
  H   H1964     1.0  0.89480  0.15851  0.95230  1.0000
  H   H1965     1.0  0.92254  0.21530  0.94925  1.0000
  C   C1164     1.0  0.95759  0.35147  0.96531  1.0000
  H   H1966     1.0  0.81241  0.37305  0.89698  1.0000
  H   H1967     1.0  0.74525  0.17989  0.52608  1.0000
  H   H1968     1.0  0.81463  0.16630  0.82232  1.0000
  N   N81       1.0  0.92465  0.15949  0.93012  1.0000
  C   C1165     1.0  0.92924  0.14865  0.90600  1.0000
  C   C1166     1.0  0.92571  0.20496  0.93187  1.0000
  C   C1167     1.0  0.91173  0.14798  0.93309  1.0000
  H   H1969     1.0  0.83589  0.33552  0.91036  1.0000
  C   C1168     1.0  0.82008  0.35121  0.94782  1.0000
  H   H1970     1.0  0.97517  0.35199  0.59107  1.0000
  H   H1971     1.0  0.76789  0.00999  0.79033  1.0000
  H   H1972     1.0  0.94128  0.22003  0.90863  1.0000
  H   H1973     1.0  0.92505  0.16925  0.89264  1.0000
  C   C1169     1.0  0.74500  0.38859  0.86879  1.0000
  H   H1974     1.0  0.86411  0.01589  0.50594  1.0000
  H   H1975     1.0  0.91983  0.22171  0.91940  1.0000
  H   H1976     1.0  0.90743  0.15020  0.91606  1.0000
  H   H1977     1.0  0.91098  0.11543  0.93931  1.0000
  H   H1978     1.0  0.74494  0.04041  0.77254  1.0000
  Fe  Fe170     1.0  0.78890  0.42104  0.97832  1.0000
  H   H1979     1.0  0.84338  0.04507  0.68009  1.0000
  C   C1170     1.0  0.75461  0.17569  0.53124  1.0000
  H   H1980     1.0  0.95671  0.06010  0.62190  1.0000
  C   C1171     1.0  0.82928  0.33951  0.89685  1.0000
  H   H1981     1.0  0.94489  0.20609  0.93858  1.0000
  H   H1982     1.0  0.77278  0.00956  0.83244  1.0000
  H   H1983     1.0  0.76478  0.01282  0.55258  1.0000
  H   H1984     1.0  0.97055  0.42509  0.97212  1.0000
  H   H1985     1.0  0.96546  0.26297  0.50416  1.0000
  H   H1986     1.0  0.83359  0.17564  0.78185  1.0000
  H   H1987     1.0  0.77753  0.17402  0.53247  1.0000
  C   C1172     1.0  0.92990  0.14573  0.97314  1.0000
  N   N82       1.0  0.93480  0.12876  0.62251  1.0000
  C   C1173     1.0  0.93294  0.16286  0.63920  1.0000
  C   C1174     1.0  0.92859  0.09223  0.63368  1.0000
  C   C1175     1.0  0.92889  0.14254  0.60039  1.0000
  C   C1176     1.0  0.94799  0.12096  0.61806  1.0000
  C   C1177     1.0  0.93786  0.20469  0.63084  1.0000
  C   C1178     1.0  0.93337  0.07551  0.65709  1.0000
  C   C1179     1.0  0.92918  0.11211  0.58083  1.0000
  H   H1988     1.0  0.92527  0.44587  0.85781  1.0000
  H   H1989     1.0  0.92330  0.16795  0.64402  1.0000
  H   H1990     1.0  0.93721  0.15470  0.65584  1.0000
  H   H1991     1.0  0.92883  0.06620  0.62218  1.0000
  H   H1992     1.0  0.91891  0.09971  0.63682  1.0000
  H   H1993     1.0  0.91937  0.15151  0.60430  1.0000
  H   H1994     1.0  0.93309  0.17019  0.59227  1.0000
  H   H1995     1.0  0.95175  0.14508  0.60583  1.0000
  H   H1996     1.0  0.95268  0.12351  0.63450  1.0000
  H   H1997     1.0  0.94738  0.20246  0.62504  1.0000
  H   H1998     1.0  0.93255  0.21991  0.61699  1.0000
  H   H1999     1.0  0.93725  0.22512  0.64572  1.0000
  H   H2000     1.0  0.93217  0.08153  0.91028  1.0000
  H   H2001     1.0  0.93529  0.40620  0.88877  1.0000
  H   H2002     1.0  0.81951  0.41596  0.95255  1.0000
  H   H2003     1.0  0.93092  0.10098  0.88100  1.0000
  H   H2004     1.0  0.93834  0.10672  0.57334  1.0000
  H   H2005     1.0  0.92399  0.12583  0.56629  1.0000
  H   H2006     1.0  0.98379  0.29194  0.51396  1.0000
  Fe  Fe171     1.0  0.81173  0.00470  0.74304  1.0000
  H   H2007     1.0  0.93172  0.17796  0.97626  1.0000
  C   C1180     1.0  0.94002  0.38551  0.87626  1.0000
  C   C1181     1.0  0.73567  0.03006  0.82515  1.0000
  H   H2008     1.0  0.93463  0.35793  0.87719  1.0000
  H   H2009     1.0  0.75356  0.02522  0.83518  1.0000
  C   C1182     1.0  0.90336  0.17405  0.94901  1.0000
  H   H2010     1.0  0.95801  0.35597  0.87384  1.0000
  S   S340      1.0  0.83096  0.47677  0.98125  1.0000
  H   H2011     1.0  0.94995  0.31388  0.84474  1.0000
  H   H2012     1.0  0.90122  0.20408  0.94018  1.0000
  H   H2013     1.0  0.77001  0.16085  0.57192  1.0000
  C   C1183     1.0  0.79743  0.00839  0.63616  1.0000
  H   H2014     1.0  0.94174  0.13926  0.94299  1.0000
  C   C1184     1.0  0.81755  0.39534  0.93852  1.0000
  H   H2015     1.0  0.93419  0.32632  0.84524  1.0000
  C   C1185     1.0  0.76784  0.12838  0.57006  1.0000
  C   C1186     1.0  0.79107  0.18155  0.81118  1.0000
  C   C1187     1.0  0.85189  0.37238  0.97478  1.0000
  H   H2016     1.0  0.91007  0.40704  0.84274  1.0000
  H   H2017     1.0  0.84342  0.45330  0.89036  1.0000
  H   H2018     1.0  0.91729  0.37367  0.86311  1.0000
  C   C1188     1.0  0.76127  0.04480  0.55013  1.0000
  H   H2019     1.0  0.74306  0.35677  0.87480  1.0000
  H   H2020     1.0  0.95880  0.08422  0.59379  1.0000
  C   C1189     1.0  0.77928  0.14049  0.53226  1.0000
  N   N83       1.0  0.94073  0.40583  0.85216  1.0000
  H   H2021     1.0  0.94246  0.32082  0.81854  1.0000
  S   S341      1.0  0.78550  0.36636  0.95680  1.0000
  H   H2022     1.0  0.79797  0.02935  0.64994  1.0000
  H   H2023     1.0  0.76013  0.19187  0.51743  1.0000
  H   H2024     1.0  0.75839  0.12622  0.57662  1.0000
  C   C1190     1.0  0.94853  0.44221  0.85314  1.0000
  C   C1191     1.0  0.74778  0.00970  0.76668  1.0000
  C   C1192     1.0  0.92734  0.10445  0.89918  1.0000
  H   H2025     1.0  0.95662  0.39940  0.89226  1.0000
  H   H2026     1.0  0.75705  0.01023  0.75923  1.0000
  C   C1193     1.0  0.94611  0.37815  0.83390  1.0000
  N   N84       1.0  0.76929  0.11757  0.54482  1.0000
  S   S342      1.0  0.93092  0.45040  0.93588  1.0000
  N   N85       1.0  0.80905  0.14542  0.78954  1.0000
  Fe  Fe172     1.0  0.89795  0.00857  0.78746  1.0000
  C   C1194     1.0  0.75796  0.12961  0.53282  1.0000
  H   H2027     1.0  0.82348  0.08025  0.66405  1.0000
  S   S343      1.0  0.92505  0.17512  0.51021  1.0000
  H   H2028     1.0  0.79050  0.14750  0.78051  1.0000
  S   S344      1.0  0.79922  0.01644  0.56481  1.0000
  C   C1195     1.0  0.91865  0.39044  0.84607  1.0000
  C   C1196     1.0  0.92850  0.42173  0.84588  1.0000
  H   H2029     1.0  0.77999  0.13312  0.51352  1.0000
  H   H2030     1.0  0.96374  0.33284  0.55839  1.0000
  C   C1197     1.0  0.79173  0.13361  0.54191  1.0000
  H   H2031     1.0  0.82320  0.12690  0.76443  1.0000
  C   C1198     1.0  0.97623  0.29600  0.52678  1.0000
  H   H2032     1.0  0.94385  0.39011  0.81617  1.0000
  H   H2033     1.0  0.75526  0.19023  0.54807  1.0000
  H   H2034     1.0  0.78997  0.15635  0.82452  1.0000
  C   C1199     1.0  0.82480  0.05220  0.67536  1.0000
  H   H2035     1.0  0.80020  0.08748  0.79344  1.0000
  H   H2036     1.0  0.75214  0.04862  0.80765  1.0000
  C   C1200     1.0  0.77160  0.07251  0.54198  1.0000
  H   H2037     1.0  0.83362  0.13273  0.80281  1.0000
  H   H2038     1.0  0.81600  0.32894  0.93707  1.0000
  S   S345      1.0  0.74174  0.27115  0.85629  1.0000
  H   H2039     1.0  0.81505  0.20407  0.79902  1.0000
  C   C1201     1.0  0.86383  0.03637  0.76427  1.0000
  C   C1202     1.0  0.81815  0.07495  0.80403  1.0000
  H   H2040     1.0  0.80345  0.10757  0.81967  1.0000
  C   C1203     1.0  0.83693  0.41373  0.92031  1.0000
  H   H2041     1.0  0.78198  0.19418  0.80785  1.0000
  H   H2042     1.0  0.96469  0.10994  0.52030  1.0000
  C   C1204     1.0  0.80718  0.10414  0.80162  1.0000
  H   H2043     1.0  0.97750  0.29946  0.60081  1.0000
  H   H2044     1.0  0.94386  0.39821  0.96570  1.0000
  C   C1205     1.0  0.83044  0.16464  0.79956  1.0000
  H   H2045     1.0  0.84502  0.39918  0.88557  1.0000
  H   H2046     1.0  0.79446  0.10099  0.54418  1.0000
  C   C1206     1.0  0.81424  0.14213  0.76499  1.0000
  H   H2047     1.0  0.85081  0.33973  0.97673  1.0000
  H   H2048     1.0  0.92499  0.08294  0.58621  1.0000
  C   C1207     1.0  0.85232  0.04871  0.75735  1.0000
  S   S346      1.0  0.90212  0.00743  0.82521  1.0000
  H   H2049     1.0  0.80779  0.39766  0.93712  1.0000
  H   H2050     1.0  0.82474  0.07715  0.78924  1.0000
  H   H2051     1.0  0.75380  0.38723  0.85917  1.0000
  H   H2052     1.0  0.92080  0.13832  0.97972  1.0000
  H   H2053     1.0  0.95239  0.33572  0.95279  1.0000
  Fe  Fe173     1.0  0.79794  0.99943  0.52641  1.0000
  C   C1208     1.0  0.95209  0.07916  0.60841  1.0000
  H   H2054     1.0  0.75019  0.11462  0.54183  1.0000
  N   N86       1.0  0.98022  0.29782  0.55131  1.0000
  Fe  Fe174     1.0  0.98059  0.16341  0.59390  1.0000
  C   C1209     1.0  0.73551  0.40647  0.85234  1.0000
  H   H2055     1.0  0.75456  0.04491  0.53665  1.0000
  Fe  Fe175     1.0  0.81097  0.46792  0.98863  1.0000
  C   C1210     1.0  0.97149  0.32104  0.59137  1.0000
  H   H2056     1.0  0.82260  0.07959  0.82042  1.0000
  C   C1211     1.0  0.83698  0.03140  0.66888  1.0000
  C   C1212     1.0  0.79845  0.02280  0.61259  1.0000
  H   H2057     1.0  0.79236  0.14908  0.55847  1.0000
  H   H2058     1.0  0.97187  0.32568  0.52117  1.0000
  H   H2059     1.0  0.93070  0.10225  0.94671  1.0000
  C   C1213     1.0  0.94729  0.13771  0.51580  1.0000
  H   H2060     1.0  0.75837  0.11883  0.51474  1.0000
  H   H2061     1.0  0.87286  0.44173  0.95930  1.0000
  H   H2062     1.0  0.82451  0.01455  0.63094  1.0000
  C   C1214     1.0  0.77516  0.10231  0.58776  1.0000
  H   H2063     1.0  0.83487  0.18319  0.81199  1.0000
  S   S347      1.0  0.79764  0.47570  0.96073  1.0000
  H   H2064     1.0  0.95054  0.35180  0.90200  1.0000
  Fe  Fe176     1.0  0.74115  0.20245  0.85647  1.0000
  S   S348      1.0  0.73631  0.31079  0.92025  1.0000
  H   H2065     1.0  0.91780  0.09716  0.89923  1.0000
  H   H2066     1.0  0.98230  0.04956  0.57449  1.0000
  H   H2067     1.0  0.95794  0.43226  0.85586  1.0000
  C   C1215     1.0  0.96927  0.30774  0.56663  1.0000
  H   H2068     1.0  0.74213  0.00316  0.75214  1.0000
  H   H2069     1.0  0.93611  0.12657  0.98382  1.0000
  C   C1216     1.0  0.96759  0.26188  0.52282  1.0000
  H   H2070     1.0  0.94559  0.12048  0.50084  1.0000
  H   H2071     1.0  0.97850  0.07029  0.49773  1.0000
  H   H2072     1.0  0.84100  0.98982  0.70837  1.0000
  C   C1217     1.0  0.94917  0.38105  0.97891  1.0000
  H   H2073     1.0  0.94580  0.46058  0.86835  1.0000
  H   H2074     1.0  0.96141  0.32709  0.97706  1.0000
  C   C1218     1.0  0.80608  0.45340  0.90064  1.0000
  H   H2075     1.0  0.97160  0.23108  0.52681  1.0000
  H   H2076     1.0  0.86115  0.01500  0.67949  1.0000
  H   H2077     1.0  0.95092  0.45592  0.81515  1.0000
  H   H2078     1.0  0.80560  0.43931  0.88361  1.0000
  H   H2079     1.0  0.82439  0.46581  0.89485  1.0000
  H   H2080     1.0  0.97861  0.23437  0.56362  1.0000
  C   C1219     1.0  0.94892  0.47189  0.83148  1.0000
  H   H2081     1.0  0.93935  0.47530  0.98153  1.0000
  H   H2082     1.0  0.75640  0.32834  0.99163  1.0000
  H   H2083     1.0  0.77423  0.28505  0.98839  1.0000
  H   H2084     1.0  0.98451  0.07304  0.53687  1.0000
  H   H2085     1.0  0.98390  0.36198  0.55284  1.0000
  H   H2086     1.0  0.81918  0.47165  0.92403  1.0000
  H   H2087     1.0  0.74169  0.48019  0.88414  1.0000
  S   S349      1.0  0.93088  0.27702  0.99005  1.0000
  C   C1220     1.0  0.96496  0.48051  0.98909  1.0000
  N   N87       1.0  0.95503  0.40979  0.99419  1.0000
  N   N88       1.0  0.83768  0.98549  0.67182  1.0000
  S   S350      1.0  0.78132  0.98436  0.50859  1.0000
  H   H2088     1.0  0.75594  0.54635  0.35494  1.0000
  H   H2089     1.0  0.83856  0.95445  0.46078  1.0000
  C   C1221     1.0  0.95852  0.50106  0.28086  1.0000
  C   C1222     1.0  0.96402  0.59904  0.27382  1.0000
  S   S351      1.0  0.75052  0.82346  0.40565  1.0000
  C   C1223     1.0  0.81846  0.53656  0.30843  1.0000
  H   H2090     1.0  0.96670  0.77265  0.44116  1.0000
  H   H2091     1.0  0.93428  0.53491  0.23441  1.0000
  H   H2092     1.0  0.94619  0.76283  0.43370  1.0000
  H   H2093     1.0  0.97631  0.95885  0.20620  1.0000
  S   S352      1.0  0.80494  0.52890  0.22269  1.0000
  H   H2094     1.0  0.80773  0.87864  0.43055  1.0000
  Fe  Fe177     1.0  0.79260  0.52369  0.25466  1.0000
  S   S353      1.0  0.78931  0.57441  0.28065  1.0000
  H   H2095     1.0  0.83875  0.58235  0.22212  1.0000
  H   H2096     1.0  0.82910  0.62195  0.23334  1.0000
  S   S354      1.0  0.92363  0.56600  0.32128  1.0000
  H   H2097     1.0  0.94944  0.81155  0.42085  1.0000
  S   S355      1.0  0.78983  0.88315  0.47259  1.0000
  C   C1224     1.0  0.78789  0.50473  0.12040  1.0000
  C   C1225     1.0  0.95339  0.97217  0.40996  1.0000
  H   H2098     1.0  0.96442  0.49982  0.21041  1.0000
  H   H2099     1.0  0.97267  0.76363  0.49021  1.0000
  Fe  Fe178     1.0  0.96121  0.83124  0.36984  1.0000
  S   S356      1.0  0.96545  0.76849  0.38589  1.0000
  S   S357      1.0  0.94433  0.86672  0.38172  1.0000
  Fe  Fe179     1.0  0.96959  0.74944  0.34921  1.0000
  S   S358      1.0  0.96664  0.68420  0.33745  1.0000
  S   S359      1.0  0.96420  0.81130  0.33292  1.0000
  H   H2100     1.0  0.83928  0.84061  0.40629  1.0000
  C   C1226     1.0  0.81777  0.51334  0.07172  1.0000
  C   C1227     1.0  0.93276  0.93089  0.40334  1.0000
  C   C1228     1.0  0.94378  0.91451  0.39492  1.0000
  C   C1229     1.0  0.95407  0.93574  0.39793  1.0000
  C   C1230     1.0  0.94701  0.88324  0.45757  1.0000
  H   H2101     1.0  0.83233  0.80232  0.42472  1.0000
  H   H2102     1.0  0.92473  0.91470  0.40107  1.0000
  H   H2103     1.0  0.96255  0.92396  0.39104  1.0000
  C   C1231     1.0  0.75653  0.53836  0.33639  1.0000
  H   H2104     1.0  0.96464  0.62967  0.28106  1.0000
  C   C1232     1.0  0.93569  0.59788  0.32683  1.0000
  C   C1233     1.0  0.94742  0.58277  0.32858  1.0000
  C   C1234     1.0  0.95666  0.60953  0.33219  1.0000
  C   C1235     1.0  0.95437  0.65179  0.33436  1.0000
  C   C1236     1.0  0.94261  0.66679  0.33300  1.0000
  C   C1237     1.0  0.93338  0.64007  0.32920  1.0000
  H   H2105     1.0  0.94938  0.55045  0.32732  1.0000
  H   H2106     1.0  0.96568  0.59736  0.33338  1.0000
  H   H2107     1.0  0.94063  0.69909  0.33458  1.0000
  H   H2108     1.0  0.92436  0.65229  0.32803  1.0000
  H   H2109     1.0  0.74653  0.69195  0.45001  1.0000
  H   H2110     1.0  0.82898  0.56363  0.05744  1.0000
  N   N89       1.0  0.83136  0.58678  0.28205  1.0000
  C   C1238     1.0  0.97526  0.89479  0.43637  1.0000
  H   H2111     1.0  0.96248  0.85829  0.42155  1.0000
  S   S360      1.0  0.74212  0.70274  0.39020  1.0000
  H   H2112     1.0  0.83854  0.51624  0.08629  1.0000
  H   H2113     1.0  0.93820  0.87948  0.46683  1.0000
  H   H2114     1.0  0.81090  0.66479  0.29922  1.0000
  H   H2115     1.0  0.82508  0.56889  0.23679  1.0000
  H   H2116     1.0  0.76574  0.54400  0.32970  1.0000
  C   C1239     1.0  0.76206  0.83943  0.42313  1.0000
  C   C1240     1.0  0.76251  0.88106  0.42794  1.0000
  C   C1241     1.0  0.77095  0.89502  0.44280  1.0000
  C   C1242     1.0  0.77916  0.86752  0.45310  1.0000
  C   C1243     1.0  0.77881  0.82595  0.44811  1.0000
  C   C1244     1.0  0.77035  0.81196  0.43328  1.0000
  H   H2117     1.0  0.75617  0.90271  0.42028  1.0000
  H   H2118     1.0  0.77106  0.92709  0.44635  1.0000
  H   H2119     1.0  0.78511  0.80432  0.45588  1.0000
  H   H2120     1.0  0.77023  0.77992  0.42973  1.0000
  C   C1245     1.0  0.75567  0.64227  0.31119  1.0000
  C   C1246     1.0  0.75507  0.61945  0.29120  1.0000
  C   C1247     1.0  0.76521  0.59840  0.28166  1.0000
  C   C1248     1.0  0.77617  0.60017  0.29189  1.0000
  C   C1249     1.0  0.77681  0.62331  0.31174  1.0000
  C   C1250     1.0  0.76663  0.64404  0.32142  1.0000
  H   H2121     1.0  0.74666  0.61808  0.28302  1.0000
  H   H2122     1.0  0.76458  0.58129  0.26622  1.0000
  H   H2123     1.0  0.78523  0.62511  0.31978  1.0000
  H   H2124     1.0  0.76726  0.66142  0.33675  1.0000
  C   C1251     1.0  0.83842  0.92118  0.41727  1.0000
  H   H2125     1.0  0.92796  0.61431  0.25922  1.0000
  H   H2126     1.0  0.78629  0.53703  0.12277  1.0000
  H   H2127     1.0  0.95100  0.62249  0.25025  1.0000
  H   H2128     1.0  0.81614  0.55435  0.27224  1.0000
  H   H2129     1.0  0.80864  0.61231  0.30557  1.0000
  H   H2130     1.0  0.82066  0.63789  0.31836  1.0000
  H   H2131     1.0  0.94088  0.80686  0.44840  1.0000
  H   H2132     1.0  0.84253  0.86982  0.48505  1.0000
  H   H2133     1.0  0.74926  0.76808  0.44577  1.0000
  H   H2134     1.0  0.96910  0.91691  0.44514  1.0000
  C   C1252     1.0  0.81567  0.63495  0.30251  1.0000
  C   C1253     1.0  0.82375  0.62562  0.28088  1.0000
  H   H2135     1.0  0.94875  0.50991  0.21070  1.0000
  C   C1254     1.0  0.83903  0.58549  0.25972  1.0000
  C   C1255     1.0  0.84832  0.55042  0.30448  1.0000
  S   S361      1.0  0.73645  0.77720  0.35154  1.0000
  H   H2136     1.0  0.75313  0.74418  0.47229  1.0000
  Fe  Fe180     1.0  0.98318  0.82888  0.33668  1.0000
  Fe  Fe181     1.0  0.74050  0.77191  0.38969  1.0000
  C   C1256     1.0  0.84049  0.92125  0.45910  1.0000
  H   H2137     1.0  0.73598  0.65580  0.01924  1.0000
  C   C1257     1.0  0.96002  0.79179  0.45115  1.0000
  H   H2138     1.0  0.96516  0.57678  0.28866  1.0000
  C   C1258     1.0  0.83975  0.58801  0.30160  1.0000
  C   C1259     1.0  0.81153  0.90913  0.42666  1.0000
  H   H2139     1.0  0.94594  0.87520  0.43946  1.0000
  S   S362      1.0  0.78953  0.49947  0.16834  1.0000
  C   C1260     1.0  0.82371  0.54983  0.28392  1.0000
  C   C1261     1.0  0.93204  0.96767  0.41510  1.0000
  S   S363      1.0  0.97970  0.85284  0.37259  1.0000
  C   C1262     1.0  0.74534  0.75389  0.46220  1.0000
  H   H2140     1.0  0.95912  0.57167  0.22099  1.0000
  N   N90       1.0  0.96529  0.83170  0.45646  1.0000
  H   H2141     1.0  0.81965  0.95194  0.44788  1.0000
  S   S364      1.0  0.74235  0.66641  0.32288  1.0000
  H   H2142     1.0  0.84354  0.52148  0.30612  1.0000
  H   H2143     1.0  0.82246  0.50652  0.31422  1.0000
  H   H2144     1.0  0.84386  0.84895  0.44633  1.0000
  Fe  Fe182     1.0  0.92032  0.49952  0.31213  1.0000
  H   H2145     1.0  0.81754  0.62525  0.26645  1.0000
  H   H2146     1.0  0.74358  0.49271  0.34095  1.0000
  H   H2147     1.0  0.74972  0.53254  0.29194  1.0000
  H   H2148     1.0  0.98038  0.89461  0.21805  1.0000
  H   H2149     1.0  0.80859  0.50359  0.06893  1.0000
  C   C1263     1.0  0.83218  0.83564  0.42014  1.0000
  C   C1264     1.0  0.94851  0.79425  0.43775  1.0000
  C   C1265     1.0  0.78796  0.48984  0.09772  1.0000
  H   H2150     1.0  0.98307  0.80458  0.45964  1.0000
  H   H2151     1.0  0.81334  0.57417  0.05731  1.0000
  H   H2152     1.0  0.82916  0.90105  0.48991  1.0000
  H   H2153     1.0  0.94168  0.49937  0.26524  1.0000
  N   N91       1.0  0.83328  0.90473  0.44042  1.0000
  H   H2154     1.0  0.82883  0.52272  0.27736  1.0000
  C   C1266     1.0  0.82037  0.54996  0.05449  1.0000
  H   H2155     1.0  0.96709  0.51426  0.27515  1.0000
  H   H2156     1.0  0.85021  0.91835  0.45442  1.0000
  H   H2157     1.0  0.82010  0.54229  0.03604  1.0000
  C   C1267     1.0  0.93738  0.56401  0.24081  1.0000
  H   H2158     1.0  0.97758  0.90820  0.41872  1.0000
  C   C1268     1.0  0.95175  0.59662  0.26346  1.0000
  H   H2159     1.0  0.92353  0.97961  0.42181  1.0000
  C   C1269     1.0  0.92677  0.58186  0.25553  1.0000
  N   N92       1.0  0.94893  0.55704  0.25297  1.0000
  H   H2160     1.0  0.75023  0.55961  0.32728  1.0000
  Fe  Fe183     1.0  0.73662  0.70801  0.35294  1.0000
  H   H2161     1.0  0.95763  0.77367  0.46740  1.0000
  C   C1270     1.0  0.75307  0.49361  0.33468  1.0000
  H   H2162     1.0  0.95803  0.50036  0.30020  1.0000
  H   H2163     1.0  0.98041  0.84979  0.47513  1.0000
  C   C1271     1.0  0.83802  0.96807  0.41356  1.0000
  H   H2164     1.0  0.94517  0.60387  0.27792  1.0000
  H   H2165     1.0  0.81927  0.55830  0.32218  1.0000
  C   C1272     1.0  0.75506  0.81753  0.49248  1.0000
  H   H2166     1.0  0.91856  0.58088  0.24573  1.0000
  H   H2167     1.0  0.92519  0.56390  0.27206  1.0000
  H   H2168     1.0  0.81515  0.91140  0.40850  1.0000
  H   H2169     1.0  0.83504  0.59173  0.31869  1.0000
  H   H2170     1.0  0.80406  0.93221  0.42724  1.0000
  H   H2171     1.0  0.84423  0.55604  0.25885  1.0000
  H   H2172     1.0  0.84531  0.61547  0.29915  1.0000
  C   C1273     1.0  0.83245  0.59012  0.23687  1.0000
  H   H2173     1.0  0.74661  0.83749  0.46107  1.0000
  H   H2174     1.0  0.97148  0.59617  0.26064  1.0000
  C   C1274     1.0  0.95647  0.50676  0.22195  1.0000
  H   H2175     1.0  0.80878  0.53182  0.30747  1.0000
  H   H2176     1.0  0.98370  0.89195  0.44545  1.0000
  H   H2177     1.0  0.83396  0.90930  0.40243  1.0000
  H   H2178     1.0  0.76939  0.51156  0.29579  1.0000
  H   H2179     1.0  0.84574  0.60971  0.25888  1.0000
  H   H2180     1.0  0.85319  0.55261  0.32064  1.0000
  H   H2181     1.0  0.78640  0.51071  0.08297  1.0000
  H   H2182     1.0  0.96156  0.87989  0.48033  1.0000
  C   C1275     1.0  0.94722  0.52350  0.27161  1.0000
  H   H2183     1.0  0.94872  0.91638  0.45762  1.0000
  H   H2184     1.0  0.84790  0.91055  0.41480  1.0000
  H   H2185     1.0  0.96735  0.54301  0.24143  1.0000
  C   C1276     1.0  0.83459  0.85866  0.44206  1.0000
  H   H2186     1.0  0.95190  0.83834  0.48443  1.0000
  S   S365      1.0  0.80026  0.50889  0.01288  1.0000
  C   C1277     1.0  0.95838  0.54629  0.23452  1.0000
  C   C1278     1.0  0.97618  0.82158  0.47030  1.0000
  H   H2187     1.0  0.74048  0.50510  0.25944  1.0000
  C   C1279     1.0  0.74388  0.82247  0.47817  1.0000
  H   H2188     1.0  0.82871  0.84585  0.45657  1.0000
  H   H2189     1.0  0.81733  0.52649  0.08917  1.0000
  H   H2190     1.0  0.85517  0.54890  0.28997  1.0000
  C   C1280     1.0  0.82047  0.91866  0.44489  1.0000
  H   H2191     1.0  0.82341  0.84356  0.41312  1.0000
  C   C1281     1.0  0.96961  0.85313  0.43398  1.0000
  H   H2192     1.0  0.93860  0.58495  0.22510  1.0000
  H   H2193     1.0  0.82942  0.65246  0.27699  1.0000
  C   C1282     1.0  0.95664  0.85769  0.47077  1.0000
  H   H2194     1.0  0.97632  0.83332  0.42461  1.0000
  C   C1283     1.0  0.74682  0.50055  0.29453  1.0000
  H   H2195     1.0  0.81681  0.90458  0.46156  1.0000
  H   H2196     1.0  0.94197  0.53530  0.28690  1.0000
  H   H2197     1.0  0.84136  0.97640  0.39554  1.0000
  H   H2198     1.0  0.73806  0.84537  0.48727  1.0000
  S   S366      1.0  0.91057  0.49122  0.27948  1.0000
  H   H2199     1.0  0.78085  0.49112  0.32668  1.0000
  H   H2200     1.0  0.84239  0.50660  0.05663  1.0000
  Fe  Fe184     1.0  0.98430  0.78919  0.38589  1.0000
  Fe  Fe185     1.0  0.79333  0.94768  0.48416  1.0000
  C   C1284     1.0  0.73950  0.71454  0.45568  1.0000
  H   H2201     1.0  0.86110  0.49231  0.22940  1.0000
  H   H2202     1.0  0.73754  0.50331  0.30208  1.0000
  N   N93       1.0  0.73721  0.78443  0.47452  1.0000
  H   H2203     1.0  0.76184  0.79576  0.48519  1.0000
  C   C1285     1.0  0.83863  0.90136  0.48384  1.0000
  C   C1286     1.0  0.97422  0.79607  0.49334  1.0000
  H   H2204     1.0  0.75941  0.84747  0.49209  1.0000
  C   C1287     1.0  0.83889  0.49197  0.07336  1.0000
  C   C1288     1.0  0.98355  0.97947  0.20969  1.0000
  H   H2205     1.0  0.98301  0.98056  0.22902  1.0000
  H   H2206     1.0  0.84389  0.98264  0.42536  1.0000
  H   H2207     1.0  0.82884  0.98135  0.41560  1.0000
  H   H2208     1.0  0.74964  0.70743  0.96085  1.0000
  S   S367      1.0  0.79496  0.94621  0.67120  1.0000
  H   H2209     1.0  0.73699  0.79397  0.76645  1.0000
  H   H2210     1.0  0.95585  0.89129  0.88114  1.0000
  H   H2211     1.0  0.83054  0.93261  0.65694  1.0000
  H   H2212     1.0  0.88032  0.87437  0.82202  1.0000
  S   S368      1.0  0.92630  0.92428  0.83919  1.0000
  Fe  Fe186     1.0  0.78619  0.51192  0.98596  1.0000
  Fe  Fe187     1.0  0.95980  0.62277  0.85462  1.0000
  S   S369      1.0  0.95863  0.68156  0.87330  1.0000
  S   S370      1.0  0.94415  0.58080  0.85404  1.0000
  Fe  Fe188     1.0  0.96724  0.71000  0.84063  1.0000
  S   S371      1.0  0.96258  0.77186  0.82208  1.0000
  C   C1289     1.0  0.79580  0.96689  0.64180  1.0000
  S   S372      1.0  0.96724  0.65208  0.82090  1.0000
  C   C1290     1.0  0.73802  0.92829  0.82719  1.0000
  S   S373      1.0  0.77942  0.96974  0.73400  1.0000
  N   N94       1.0  0.97808  0.81468  0.89081  1.0000
  S   S374      1.0  0.97776  0.60365  0.86728  1.0000
  H   H2213     1.0  0.75249  0.95503  0.84338  1.0000
  H   H2214     1.0  0.73544  0.49118  0.85614  1.0000
  H   H2215     1.0  0.98341  0.78534  0.84572  1.0000
  Fe  Fe189     1.0  0.79234  0.94410  0.75984  1.0000
  H   H2216     1.0  0.85554  0.48908  0.96767  1.0000
  S   S375      1.0  0.78861  0.89592  0.78912  1.0000
  H   H2217     1.0  0.90763  0.90085  0.76166  1.0000
  S   S376      1.0  0.73816  0.75521  0.88632  1.0000
  H   H2218     1.0  0.88893  0.87153  0.76680  1.0000
  H   H2219     1.0  0.88987  0.89152  0.84373  1.0000
  H   H2220     1.0  0.96810  0.77333  0.87186  1.0000
  S   S377      1.0  0.80782  0.94111  0.73326  1.0000
  H   H2221     1.0  0.88448  0.82110  0.76311  1.0000
  H   H2222     1.0  0.95040  0.50348  0.92815  1.0000
  H   H2223     1.0  0.83687  0.98044  0.62244  1.0000
  C   C1291     1.0  0.97149  0.77570  0.88953  1.0000
  C   C1292     1.0  0.83513  0.97377  0.69713  1.0000
  H   H2224     1.0  0.89933  0.79775  0.78622  1.0000
  C   C1293     1.0  0.79508  0.94031  0.62345  1.0000
  H   H2225     1.0  0.74941  0.74242  0.50929  1.0000
  C   C1294     1.0  0.96089  0.76838  0.90731  1.0000
  H   H2226     1.0  0.85039  0.93684  0.66234  1.0000
  C   C1295     1.0  0.94023  0.54635  0.87756  1.0000
  C   C1296     1.0  0.92963  0.52506  0.87717  1.0000
  H   H2227     1.0  0.96260  0.73986  0.91807  1.0000
  C   C1297     1.0  0.94458  0.50930  0.91390  1.0000
  S   S378      1.0  0.77750  0.57419  0.97562  1.0000
  C   C1298     1.0  0.94766  0.53852  0.89610  1.0000
  H   H2228     1.0  0.92379  0.53124  0.86297  1.0000
  Fe  Fe190     1.0  0.97733  0.66451  0.88367  1.0000
  H   H2229     1.0  0.95580  0.55484  0.89663  1.0000
  C   C1299     1.0  0.93646  0.88220  0.83399  1.0000
  C   C1300     1.0  0.93698  0.84935  0.85069  1.0000
  C   C1301     1.0  0.94472  0.81501  0.84721  1.0000
  C   C1302     1.0  0.95221  0.81336  0.82711  1.0000
  C   C1303     1.0  0.95171  0.84624  0.81046  1.0000
  C   C1304     1.0  0.94385  0.88029  0.81378  1.0000
  H   H2230     1.0  0.93128  0.85034  0.86636  1.0000
  H   H2231     1.0  0.94489  0.78989  0.86007  1.0000
  H   H2232     1.0  0.95746  0.84542  0.79485  1.0000
  H   H2233     1.0  0.94361  0.90525  0.80077  1.0000
  H   H2234     1.0  0.90809  0.84818  0.75322  1.0000
  H   H2235     1.0  0.73759  0.90515  0.84195  1.0000
  S   S379      1.0  0.80987  0.95867  0.50383  1.0000
  H   H2236     1.0  0.95868  0.79295  0.91931  1.0000
  C   C1305     1.0  0.95960  0.86495  0.89164  1.0000
  C   C1306     1.0  0.75222  0.61429  0.91706  1.0000
  C   C1307     1.0  0.75814  0.64309  0.92887  1.0000
  C   C1308     1.0  0.76585  0.63025  0.94662  1.0000
  C   C1309     1.0  0.76803  0.58847  0.95241  1.0000
  C   C1310     1.0  0.76234  0.55965  0.94016  1.0000
  C   C1311     1.0  0.75445  0.57252  0.92271  1.0000
  H   H2237     1.0  0.75671  0.67524  0.92443  1.0000
  H   H2238     1.0  0.77026  0.65283  0.95583  1.0000
  H   H2239     1.0  0.76388  0.52745  0.94437  1.0000
  H   H2240     1.0  0.75000  0.54992  0.91362  1.0000
  C   C1312     1.0  0.75378  0.83052  0.81008  1.0000
  C   C1313     1.0  0.76343  0.82748  0.82447  1.0000
  C   C1314     1.0  0.77405  0.84736  0.81768  1.0000
  C   C1315     1.0  0.77515  0.87055  0.79650  1.0000
  C   C1316     1.0  0.76550  0.87350  0.78208  1.0000
  C   C1317     1.0  0.75488  0.85369  0.78888  1.0000
  H   H2241     1.0  0.76274  0.80978  0.84081  1.0000
  H   H2242     1.0  0.78148  0.84477  0.82894  1.0000
  H   H2243     1.0  0.76624  0.89090  0.76565  1.0000
  H   H2244     1.0  0.74748  0.85637  0.77760  1.0000
  H   H2245     1.0  0.83453  0.92301  0.72280  1.0000
  H   H2246     1.0  0.92062  0.87606  0.79579  1.0000
  H   H2247     1.0  0.97712  0.87734  0.87719  1.0000
  H   H2248     1.0  0.74285  0.65624  0.99086  1.0000
  H   H2249     1.0  0.90488  0.91353  0.81487  1.0000
  C   C1318     1.0  0.83615  0.92764  0.70369  1.0000
  C   C1319     1.0  0.91385  0.79214  0.82715  1.0000
  H   H2250     1.0  0.87696  0.84995  0.78483  1.0000
  H   H2251     1.0  0.89899  0.82886  0.83943  1.0000
  H   H2252     1.0  0.74927  0.76012  0.96660  1.0000
  H   H2253     1.0  0.91913  0.82563  0.78667  1.0000
  H   H2254     1.0  0.79542  0.93379  0.58611  1.0000
  H   H2255     1.0  0.97770  0.74868  0.89171  1.0000
  H   H2256     1.0  0.75670  0.92041  0.82153  1.0000
  H   H2257     1.0  0.88868  0.81061  0.80876  1.0000
  H   H2258     1.0  0.91243  0.85511  0.83611  1.0000
  H   H2259     1.0  0.95273  0.76353  0.89789  1.0000
  H   H2260     1.0  0.89551  0.91041  0.79191  1.0000
  H   H2261     1.0  0.95280  0.84142  0.89225  1.0000
  C   C1320     1.0  0.89450  0.82409  0.79436  1.0000
  C   C1321     1.0  0.88589  0.84358  0.77642  1.0000
  H   H2262     1.0  0.73805  0.65705  0.95507  1.0000
  H   H2263     1.0  0.83954  0.95636  0.75939  1.0000
  H   H2264     1.0  0.98248  0.79594  0.50312  1.0000
  C   C1322     1.0  0.79598  0.95478  0.59989  1.0000
  H   H2265     1.0  0.98330  0.76040  0.92951  1.0000
  C   C1323     1.0  0.91253  0.87104  0.76300  1.0000
  C   C1324     1.0  0.91430  0.85556  0.78830  1.0000
  H   H2266     1.0  0.96080  0.87612  0.90916  1.0000
  H   H2267     1.0  0.77332  0.95402  0.83357  1.0000
  C   C1325     1.0  0.97137  0.85034  0.87940  1.0000
  H   H2268     1.0  0.74982  0.76148  0.77041  1.0000
  H   H2269     1.0  0.76848  0.95615  0.79104  1.0000
  C   C1326     1.0  0.89805  0.89407  0.80820  1.0000
  H   H2270     1.0  0.88295  0.92749  0.82405  1.0000
  H   H2271     1.0  0.80327  0.48607  0.89796  1.0000
  H   H2272     1.0  0.82932  0.91055  0.69539  1.0000
  H   H2273     1.0  0.91435  0.77937  0.84532  1.0000
  C   C1327     1.0  0.90690  0.83366  0.82737  1.0000
  S   S380      1.0  0.74173  0.62857  0.89562  1.0000
  C   C1328     1.0  0.74622  0.97604  0.78616  1.0000
  H   H2274     1.0  0.96897  0.84308  0.86156  1.0000
  S   S381      1.0  0.98183  0.66852  0.92169  1.0000
  C   C1329     1.0  0.75047  0.94662  0.82554  1.0000
  H   H2275     1.0  0.79383  0.90815  0.62750  1.0000
  H   H2276     1.0  0.96692  0.80888  0.50472  1.0000
  H   H2277     1.0  0.95888  0.50556  0.98263  1.0000
  C   C1330     1.0  0.88716  0.89632  0.82551  1.0000
  H   H2278     1.0  0.92141  0.87559  0.75411  1.0000
  N   N95       1.0  0.90323  0.85182  0.80407  1.0000
  C   C1331     1.0  0.84625  0.97879  0.76058  1.0000
  H   H2279     1.0  0.92320  0.79566  0.82046  1.0000
  S   S382      1.0  0.88118  0.97708  0.77689  1.0000
  H   H2280     1.0  0.90949  0.76947  0.81712  1.0000
  H   H2281     1.0  0.74928  0.94650  0.77869  1.0000
  H   H2282     1.0  0.73546  0.72711  0.79442  1.0000
  H   H2283     1.0  0.95604  0.49396  0.83316  1.0000
  H   H2284     1.0  0.84513  0.91427  0.69943  1.0000
  H   H2285     1.0  0.73778  0.74593  0.53116  1.0000
  C   C1332     1.0  0.73975  0.73921  0.51260  1.0000
  H   H2286     1.0  0.74194  0.75926  0.74447  1.0000
  C   C1333     1.0  0.98072  0.82403  0.91538  1.0000
  H   H2287     1.0  0.73640  0.91169  0.81137  1.0000
  H   H2288     1.0  0.97259  0.83103  0.92622  1.0000
  H   H2289     1.0  0.73757  0.70669  0.51118  1.0000
  S   S383      1.0  0.74009  0.80678  0.81766  1.0000
  H   H2290     1.0  0.94051  0.49055  0.83027  1.0000
  H   H2291     1.0  0.75277  0.80947  0.51103  1.0000
  C   C1334     1.0  0.85780  0.96639  0.76717  1.0000
  H   H2292     1.0  0.73727  0.69956  0.76928  1.0000
  H   H2293     1.0  0.85987  0.93434  0.77090  1.0000
  Fe  Fe191     1.0  0.92011  0.97902  0.81554  1.0000
  S   S384      1.0  0.91550  0.97643  0.77832  1.0000
  H   H2294     1.0  0.74591  0.72446  0.99007  1.0000
  C   C1335     1.0  0.74483  0.73092  0.97120  1.0000
  C   C1336     1.0  0.86028  0.98158  0.67867  1.0000
  Fe  Fe192     1.0  0.79516  0.97150  0.70781  1.0000
  H   H2295     1.0  0.97403  0.48920  0.98262  1.0000
  H   H2296     1.0  0.73651  0.97327  0.78951  1.0000
  C   C1337     1.0  0.74077  0.76299  0.76346  1.0000
  C   C1338     1.0  0.92657  0.49572  0.89499  1.0000
  C   C1339     1.0  0.93411  0.48748  0.91330  1.0000
  H   H2297     1.0  0.85949  0.96752  0.69657  1.0000
  H   H2298     1.0  0.86878  0.96941  0.67064  1.0000
  H   H2299     1.0  0.81959  0.96868  0.66582  1.0000
  H   H2300     1.0  0.82191  0.96401  0.62301  1.0000
  C   C1340     1.0  0.82872  0.96614  0.65757  1.0000
  C   C1341     1.0  0.84996  0.97062  0.66368  1.0000
  C   C1342     1.0  0.82812  0.98262  0.63209  1.0000
  H   H2301     1.0  0.85220  0.98303  0.64572  1.0000
  H   H2302     1.0  0.78343  0.98178  0.81495  1.0000
  C   C1343     1.0  0.77409  0.98204  0.82209  1.0000
  H   H2303     1.0  0.82595  0.98418  0.70275  1.0000
  N   N96       1.0  0.75254  0.98208  0.80816  1.0000
  C   C1344     1.0  0.76570  0.98263  0.80164  1.0000
  H   H2304     1.0  0.84329  0.91938  0.49622  1.0000
