data_image0
_chemical_formula_structural       HSFeSFeS2FeS2FeSFeS3Fe2S2FeSHS2FeS2FeS2FeSFeS3FeS2FeSCHFeS2FeSCSC8H6C6H5C6H4CH2CH3C6H4C6H5C2H2C6H6SCH5C2NC8H19NC8H20CHSHCNHSCHCHNH3CHSCHC2H4C3HC2H3NC8H27C2H7CNCHC2FeH2C2HNC2HC2H2CH3FeSH2CFeHCH4CH3SH3CH3CH2C2H2C4H2CH2NCH3CH3CH4NH4CH2C2H2C2HCH2CHSHCH3CHCH2CH13C3H2S2FeHSCHSHFeS2FeS2FeSFeS3H2SH2FeS2Fe2SCFeHSHSCFeS2H3FeCNHSH3CH3CHNC2H3CH3C6H4C3H2C6H4C6H5CH5CHCH4NC8H20NC6HCH3CH8SHCH3CHSNC4HC5H9CH8C2H2CH2CH2SCH2SC2H2CH8CNSHCHFeSCHCH3FeC2H2CH2CH7C2SH2CH3CH4CSH2C4HCHNCHCHCHCHCHC2H3SH2SH4C2HSFeH4FeHCH2C2HCH2CHSHC2H3CHSCHCH2C2HCHCH4NHCNFeHSFeSCHS2HCH2CSH3FeS2FeHSFeSCS2CHSHC2H2FeSH4CHCSH2CHCH2C2SC6HCH3SHSC6HCH4SFeH2CFeH3C3FeCH2C2H3C2S2H3C4H6NH3NHCHSH2FeCHCHC6H3NCH3CHCHCFeHCFeNC8H20NC7H19CHCH2CHC2SNHCFeH3CH2C3FeCHCH6CH2CSHNHSCH5SCHS2HCHSH2CH3C2H3FeC2SHCH3C2HCH2S2CHCHCFeHSCH3CHCH2CH3C2H2FeSHSHCFeS2FeS2FeHFeS4H2FeS2CFeSFeSH2SCFeHSHCS2CHC5H3C6H4CH3FeC2HC6H6C2HC2H9SH2CHCHC6H7C6H4NC4HCHCH10CH9CH3CH2C3H3SC2HCH2CHCH4FeH4CHCHC3H13NC2HCH2C2HCHC2H3CNH2C3H5NC3HCHCH6C2H4C3HC2HC2H4CH2SHCFeSH2CH7CS2H2CSCNCH2CH2SH6CHCSHNCH2C3H3C2H3CH3CH4CHC3HCH4CHCH2SFeCH3SHC2HFeNH2NFeHCH2C2H2CH6CNHCH6SNCSH6CH5SFeS2CS2FeHFeSH2SFe2SFeSH2CSH4S2HSFeSFeSC2H2FeS2FeSCFeSFeS3C2H4C8H3C6H4C3H4CH4C6H4CNHS2H3FeH3CHCHC4H6CFeH2C2H4C6H3NC7H13SCH6C2H3C2HCH4C2SH2NC6NH4CH7NCH3CHC2NC4FeH2CH4SH3CH4CFeC2H3NC4HC3H20NCHC2HCH13C2HCHCH5CHSHFeSCH2C2H2C2H4CHCHSCHSCHFeSH8CSCH2C3HC2NH2FeH2CH4C2HCHFeSCHCSH2FeHSH4FeSFeCS2HS2H2FeHSFeS2FeSFeSCSCHSHSCSHSHSCH2CSH3CH2C3HCH4C2H4C6H4C3H3CH2SH3C3H3C4H3CHC3H6C6H3CH2CH3FeHCFeC2H2NC7H12FeH2C3H3CH2CNH4S2CSHCHCH4FeHCH2NCHCH4CHNHCH2FeC4HCH3CH3CH3SHCHCH4NH3NH3CS2HCHC2H5SHCHCH3NCH3C2HCHCH2C3H2C2HCHCH3C2H3SHCSH5CHCH2CH6CH8CFeC2FeH3CSHCH2CH2C2H2CHC3H3CH2SH2FeSFeSHFeSFeH3SFeS2FeS2FeSFeS3HSFeSHFeSH2S2FeHSFeS2FeS2CH2C3HCH6SFeCH2C6H4C2HCH2C7H4CHC2H2C6H8CSHC2H4CHC3H6NC8H20NCFeHCHCH2C3HC4HC2H3CH2CHNC6H15CH3C3HSHCHCH2SCH4CH2CH2SC3H5SH2CH2FeH3CH2NC4H5C2H2CSHC2H2NC8H20NCH2C4SH2CH2CH7NC7H2NH4CH3SHC2H2CH2FeH3CSHSH2CHNHFeS2FeS2Fe2S3FeS2FeS2FeSFeS3CSFeSHFeS2FeSFeS3CHCFeS2FeS2C2HC6H4C6H4C6H5FeHC6H4C6H2CHC6H4C3H2CHC2H3CHFeC2H5FeH2CHCHNH2SC2HC2H11CHSHCHC2H3CH8CHC2HCH4NC8H20NC8H22C4H3CHSH6CH3SH2SC2H3CHCNHSH4CH2SH2CH2CH3CNH3C2NHCSCHCH4C2NC2H2CH3CH8CFeH3C2HSHCSH5CH4FeCHC2HCHCHCH6S3FeS2FeS2FeSFeS3H2SH6CHSCSFeSFeH3CH2CFeHC6H4C6H5C3HC6H7C6H4NC8H20SFeNHCH3CH6CHNC8H17CH2CH5CH2SCH3SH2C2H2CHSNH2CHSCH5CHCH6C6NHCHC5H2CH2CH2FeH2CH5CHCH3CFeCHCH3CH2FeH3CH2SCHCH3SHCFeSH3C2H3FeS2FeS2FeSFeS3H3CSHFeS2FeS2FeSFeS3CNSFeS2FeS2FeSFeS3C6H6C6H4C2H3C3HCH2C2H3C6H4CH3C6H4CH2C3HCH6CH2CNC2HCFeH11SHC2H2CH5NC8H20C2HC3HCH2CH10CH3C2H2CH6C2H4CH2CH3CH10CH3C3HCH4NH6CSH2C3H4CH6NC2HC2HCH3CH3FeCH2C3H2CH2CHNHSHC2HCNHC2HC3H5CHCH2CH3CH2C2HFeS2FeS2FeS2FeSFeS3FeS2FeS2FeSFeS3FeS2FeS2FeSFeS3C3HCH3CNC2HC5HSH4C4HC2HCHC2NHC6H4C6H4C6H4C6H5CH2CH2NH4NHCH2NH4C3H2CH8C2H2SH2C2HCH2CNC6HCH4CH7CHNCH7C2NH7CHCHC3H4C2H2CNCH2CH3CH7CHCH4CH3NHCH6NC7H16CH3CH2CHC2SCH5CH11CH3C2H7C2H2C2HC2HCSH3C2H5C3H3CHCH3CH4CH9CH2FeS2FeS2FeSFeS3FeSFeSCFeSFeS2H3FeHS3HCSHSFeSFeSFeHS2HSCH2SHFeHCH5CH2C2HCHSHCH4CHSH3C2SC2H2CSC7H4C6H4C6H4C6H3CH2CHC2H4CH2CH2CH3CHCH3CH8CH2CH3NH2CHCHNH2C2HC3SH2CHCH8CH2NH2SHC5H2FeHCH4CH2CSHNC8H22CHCFeC3HCH3CH3SH3C3H4NHCHC2H2CH2CH2NFe2HFeCHSHCHSH4FeH2FeS2FeS2FeSFeS3FeHSNHFeSHSFeS2FeC2FeH2S2FeHS3H2CSFeHFe2SHNS2CHSCH4SH8CHSC3H4CSC3H3CH2CH2C6H4C6H4C6H4C6H6CH3C3HCH4C2H2C2NC8H20NC8H12C2H2SH4CHCH4CH6SHCH2CHCH3NH3C3HNHCH2CH3CFeH3NCFeH5CHCH2CH5CH2CH3C2HCH2CHC4H3CH2CH5CH3FeHFeSCSH2CFeHCHNHCSFeS2FeS2FeS2FeSFeS3FeS2FeS2FeSFeS3FeS2FeSHFeSFeS3C2H3C2HC3H6C2HC4H5C3H4C7H4C6H4C6H5C6H4NC8H23CH20C3H2CH3CH2CHSC2HC3HNH2CH2CHC2H2CHSC2H2NC8H10CH10CH2C2H4CHSH2CH2FeSH5C3H2CH3CH3C3NHCHNCH5CNCHCHCHCHCHCHC2H3FeCH7CNH6C2H6C2H3CH4CH3CSH2C3H2CHCNH12CH4CFeS2FeS2FeSFeS3FeS2FeS2FeSFeS3FeCSHFeS2H3FeS2FeS2FeSFeS3C6H7C6H7C6H5C5H4CH3C6H6CHCH6SC2H3C2HCHC2HC2HC2H3C2HCH4C2H3NC2H2CH2CH3CH4NHCHCH5NH9CH3CHCH3CH2CH7CHNH2CHFeHNH2C2H11C2H2C2H2CH2NCH3CHNC8H4SH5CH12C5H2CH5CHCH2CHCH4C3HCH2C2H2C2HSCHCH2SC2H3CHCH2C3SCSCFeS2FeS2FeSFeS3HFeCH2C2SH2CSFeCFeHSHCSCH2C11H4C6H4SH2SC6H4CH3CH3C6H3CNC8H20CH4CHCH2NCHC3HCFeH3CH9CH4CHSH10SNH2CHCHCHFeH2NH2CHNH7C4H5CSCH2C2SHC2HC2HNCH3CH7C2H3CH2NH11SH6FeH2SH2CHC2HCSHCHCHSHCH3CHFeH3CHCHCHCSCHFeS3FeS2FeS2FeSFeS3HCFeS2FeSNSHFeS2FeS2Fe2S3FeHSH2FeS2FeS2HNSCH3C3H2C2H3C6H4C6H3CHCHC6H4C6H4C4H2C6H4C2H4FeSHCH2C3HCH5CSH2CHCH2C2H3FeHCH4FeH3CH8SH3CH3NC8H18NC8H20NC8H11CH7CH4CHNC3H2C2HC2HCH7CH6CHSCH2C5H2CNSH2CHN2CH2SHSHCH2CH8SHFeC2HCHCHCH2CHCHCH4CSHCH2CHC3HCHCS2HFeSFeS2FeS2FeSFeS3CHFeS2FeSFeSFeHS2HSFeS2FeSFeS2HCSH3SC6H3C2HCHCH2C2HNFeC6H4CSCH2C6H4SC6H4CH2C3H7C2HCH2NCHC2H3C2SCH2CH6CH10NC7H16CHC2SNC6H14NC8H18C2FeH3CH2NC2H3C2H2CHC2HCFeH3CHSNCH2CHCHCH3CFeH3CH4SH3CH2CH3NSHC4HFeNCH4CH6FeCH2CH5CHC3SH2CH4CH2C2HCH2CH5C2H3SH8C2H6CH4CHCH5C5HC3H4NC2H2NSH2NH2SFeSFeSHSH2S2FeSHC2HCHSHSFeS2FeCSHFeS4H2CH2FeCSHFeSC2H2C7H4C3H2CH2CSH4CHC4H10CHC2HCH3CHCH2FeH3C2HSHFeC6H4NHC2HN2CHC5H14FeC2SH2C3SHSH5CHCHCH3CH2C2HC2HC2H3CH3CH3C2H2SH3CHCH3SHCHSHCH2C2HFeC2H3C4H4CHCH3SCHC3HFeHCH2SH2FeC2SHSHCH2CH2C2H5C3H2CHCH2FeHCFeH5S2HS3FeSHCH2CFeS2FeSCFeSFeS3HCH4SH4CHSFeSHFeSFeSFeSC6H4CHNHSCH4C6H6CFeC2HC4HC4H2C2HCFeHCH7CHCH2CHSHCHC4SH2CHCHC7H2NC8H14NH5C2H2CH7CH8CHCH4SH3C2HSHNH6CNC2H4C3HC4H2CH2SNC6HCH4SH3CH4CHCH2CH2CNH3CSH5NCHCH2FeHC2HCH2FeSHFeHC3HCH6SC2HC2HCNH6CH5CH3CH3CH2CH2CHCH3CHC3H6CHCHCSH3CHCHSCS2H3SH2CSCHSCHC2SH2FeNSH3S2FeS2FeS2FeSFeHS2C2H3CHC7H5C4H4FeH2CH3C9HSH2C3FeH3CSHCH2SCHSCHC4SH3C9HCH3CHC2H2SHNC4HCHCH5C2H2CH3CH5NC4HC3H8CHCH6CHNHC3HC3H23CHCNC5H7C2H2SCH2NSCH10CH2SFeNHCFeH8FeH6CH2CH2C3H6CH2FeC2H6CHCHCNH7CH9SCHCHSCFeH3C3S3FeSHFeS2FeCHCFeS3HSH3C2SH2SHFeSCH2S2HFeS2FeC2Fe2SHSFeC3HC2H3SH2C2SFeHFeCHC6H4C3H2CHSH3CHCH2C4H6C4H2C2HCHNCSC3H4SH4C7H2NHC3SC2H6C3H6NC8H22C3H3C2FeH3C3SHC2H5FeH3CH3SHCHCNCHSNH2CHC2S2H2C3H4C2HCHCH2SH4CNCHCHCHCH6C2SCH3CHCH2CH3SH3CH2C2H8CFeH3CH2CFeNH2SC2H2C2FeH4FeCNHNH5CH9SH3SHSH2CFeS2FeS2FeSFeS3FeSFeS2FeSFeHS2FeHFeS2HFeSH2C5H4CHNHCH5C6H4CH2CH3C6H4C2H2NHC6H5C2H2CHCH5CHNC7H6C2H9S2H7CH2SFeSCNC5HC2H3C2H6C2HCH2CH3SCHNHCHSHCHFeH5CH5SH5CHCHC3HC4HCH7CFeCHC2H4CHNC2FeCHCHCH4CSH2CH5C2HC2SCH2C2H2CHCH2CHSCH9C2SH2CH6CSH2CH2SH6CH2SC2FeH3CHC5H2SH2SFeCSFeS2FeHSCFeSCFeS2FeSFeS3HCSCFeS2FeS2FeS2FeSFeS3CS2FeS2FeS2HFeS2H2C6H4C6H4C6H7C6H4C6H4C6H5CFeH3CH3FeH3C3HCHCH3SCHCH4CH3CH5CH3NCH2C3NCH3CH5C2HCH2C2FeH2CH3C2H6C2H5CH2CHC3HCNH4CHSH2CHCH6NHCH2C2HCH2NC4HNHCH8NHCHSCH2CH3SHC2FeCH6CHCSH3C2H7N2C8H24CH3CH5C3H5FeHC2H2NC7H11CH4SH2C2H3CH6
_chemical_formula_sum              "H4608 S768 Fe384 C2688 N192"
_cell_length_a       67.978
_cell_length_b       67.8103
_cell_length_c       86.7084
_cell_angle_alpha    80.225
_cell_angle_beta     80.2291
_cell_angle_gamma    79.9683

_space_group_name_H-M_alt    "P 1"
_space_group_IT_number       1

loop_
  _space_group_symop_operation_xyz
  'x, y, z'

loop_
  _atom_site_type_symbol
  _atom_site_label
  _atom_site_symmetry_multiplicity
  _atom_site_fract_x
  _atom_site_fract_y
  _atom_site_fract_z
  _atom_site_occupancy
  H   H1        1.0  0.23326  0.45391  0.21095  1.0000
  S   S1        1.0  0.18782  0.99198  0.07126  1.0000
  Fe  Fe1       1.0  0.18779  0.00145  0.09507  1.0000
  S   S2        1.0  0.18801  0.03543  0.09379  1.0000
  Fe  Fe2       1.0  0.15158  0.15400  0.16983  1.0000
  S   S3        1.0  0.14687  0.18212  0.15205  1.0000
  S   S4        1.0  0.14371  0.14807  0.19658  1.0000
  Fe  Fe3       1.0  0.17148  0.12707  0.14470  1.0000
  S   S5        1.0  0.16931  0.15323  0.12497  1.0000
  S   S6        1.0  0.18123  0.09289  0.14628  1.0000
  Fe  Fe4       1.0  0.17878  0.17152  0.14120  1.0000
  S   S7        1.0  0.19778  0.19693  0.13263  1.0000
  Fe  Fe5       1.0  0.13764  0.16223  0.13700  1.0000
  S   S8        1.0  0.11464  0.16801  0.11975  1.0000
  S   S9        1.0  0.18389  0.14454  0.15985  1.0000
  S   S10       1.0  0.13943  0.13505  0.15580  1.0000
  Fe  Fe6       1.0  0.24590  0.44220  0.07705  1.0000
  Fe  Fe7       1.0  0.23355  0.41382  0.10687  1.0000
  S   S11       1.0  0.20455  0.43449  0.11257  1.0000
  S   S12       1.0  0.23855  0.38511  0.12445  1.0000
  Fe  Fe8       1.0  0.20145  0.43714  0.08678  1.0000
  S   S13       1.0  0.16937  0.43388  0.08315  1.0000
  H   H2        1.0  0.18044  0.23532  0.18135  1.0000
  S   S14       1.0  0.22972  0.41497  0.08155  1.0000
  S   S15       1.0  0.25203  0.43925  0.10225  1.0000
  Fe  Fe9       1.0  0.07969  0.37748  0.00486  1.0000
  S   S16       1.0  0.04804  0.38129  0.01767  1.0000
  S   S17       1.0  0.08882  0.36721  0.98060  1.0000
  Fe  Fe10      1.0  0.09747  0.38929  0.03219  1.0000
  S   S18       1.0  0.06676  0.39371  0.04699  1.0000
  S   S19       1.0  0.12841  0.39604  0.03566  1.0000
  Fe  Fe11      1.0  0.06185  0.36484  0.03902  1.0000
  S   S20       1.0  0.04592  0.34101  0.05630  1.0000
  Fe  Fe12      1.0  0.05534  0.40954  0.02443  1.0000
  S   S21       1.0  0.03737  0.44057  0.01773  1.0000
  S   S22       1.0  0.09333  0.35937  0.02583  1.0000
  S   S23       1.0  0.08625  0.40668  0.01008  1.0000
  Fe  Fe13      1.0  0.00797  0.21313  0.09870  1.0000
  S   S24       1.0  0.02269  0.20293  0.07569  1.0000
  S   S25       1.0  0.02358  0.21175  0.12020  1.0000
  Fe  Fe14      1.0  0.00975  0.23403  0.06461  1.0000
  S   S26       1.0  0.02990  0.25378  0.04693  1.0000
  C   C1        1.0  0.20811  0.21510  0.20793  1.0000
  H   H3        1.0  0.04521  0.34969  0.98971  1.0000
  Fe  Fe15      1.0  0.30109  0.27808  0.12842  1.0000
  S   S27       1.0  0.28022  0.26856  0.15037  1.0000
  S   S28       1.0  0.29211  0.30266  0.10844  1.0000
  Fe  Fe16      1.0  0.29532  0.23688  0.14753  1.0000
  S   S29       1.0  0.27965  0.20878  0.15410  1.0000
  C   C2        1.0  0.28677  0.35376  0.15545  1.0000
  S   S30       1.0  0.99086  0.16088  0.07084  1.0000
  C   C3        1.0  0.29541  0.45248  0.02922  1.0000
  C   C4        1.0  0.01899  0.45577  0.02951  1.0000
  C   C5        1.0  0.04189  0.31673  0.05341  1.0000
  C   C6        1.0  0.05375  0.30622  0.04168  1.0000
  C   C7        1.0  0.05015  0.28680  0.04010  1.0000
  C   C8        1.0  0.03450  0.27780  0.04999  1.0000
  C   C9        1.0  0.02288  0.28818  0.06187  1.0000
  C   C10       1.0  0.02666  0.30743  0.06362  1.0000
  H   H4        1.0  0.06581  0.31298  0.03396  1.0000
  H   H5        1.0  0.05956  0.27864  0.03116  1.0000
  H   H6        1.0  0.01073  0.28158  0.06955  1.0000
  H   H7        1.0  0.01747  0.31535  0.07279  1.0000
  H   H8        1.0  0.12144  0.44825  0.04121  1.0000
  H   H9        1.0  0.02201  0.43652  0.05169  1.0000
  C   C11       1.0  0.25198  0.36195  0.11911  1.0000
  C   C12       1.0  0.25188  0.34451  0.13046  1.0000
  C   C13       1.0  0.26357  0.32606  0.12713  1.0000
  C   C14       1.0  0.27548  0.32491  0.11240  1.0000
  C   C15       1.0  0.27493  0.34215  0.10081  1.0000
  C   C16       1.0  0.26328  0.36066  0.10416  1.0000
  H   H10       1.0  0.24291  0.34534  0.14196  1.0000
  H   H11       1.0  0.26362  0.31278  0.13603  1.0000
  H   H12       1.0  0.28406  0.34135  0.08936  1.0000
  H   H13       1.0  0.26344  0.37399  0.09531  1.0000
  H   H14       1.0  0.16484  0.11038  0.18423  1.0000
  C   C17       1.0  0.13939  0.40637  0.04922  1.0000
  C   C18       1.0  0.15913  0.41109  0.04473  1.0000
  C   C19       1.0  0.16852  0.41953  0.05487  1.0000
  C   C20       1.0  0.15840  0.42313  0.06981  1.0000
  C   C21       1.0  0.13866  0.41837  0.07433  1.0000
  C   C22       1.0  0.12920  0.41004  0.06414  1.0000
  H   H15       1.0  0.16716  0.40840  0.03321  1.0000
  H   H16       1.0  0.18351  0.42346  0.05103  1.0000
  H   H17       1.0  0.13059  0.42118  0.08581  1.0000
  H   H18       1.0  0.11409  0.40640  0.06785  1.0000
  C   C23       1.0  0.14331  0.18520  0.20591  1.0000
  H   H19       1.0  0.99648  0.98881  0.06749  1.0000
  H   H20       1.0  0.00192  0.02032  0.98973  1.0000
  C   C24       1.0  0.05209  0.30848  0.99606  1.0000
  H   H21       1.0  0.07463  0.32864  0.99447  1.0000
  H   H22       1.0  0.04911  0.39143  0.97850  1.0000
  H   H23       1.0  0.19000  0.22628  0.16258  1.0000
  C   C25       1.0  0.08909  0.17963  0.12079  1.0000
  C   C26       1.0  0.07868  0.17891  0.10826  1.0000
  C   C27       1.0  0.05855  0.18831  0.10815  1.0000
  C   C28       1.0  0.04859  0.19876  0.12051  1.0000
  C   C29       1.0  0.05895  0.19946  0.13310  1.0000
  C   C30       1.0  0.07913  0.18991  0.13327  1.0000
  H   H24       1.0  0.08626  0.17111  0.09851  1.0000
  H   H25       1.0  0.05080  0.18747  0.09845  1.0000
  H   H26       1.0  0.05138  0.20748  0.14274  1.0000
  H   H27       1.0  0.08699  0.19061  0.14297  1.0000
  C   C31       1.0  0.22122  0.19943  0.13796  1.0000
  C   C32       1.0  0.22836  0.21815  0.13360  1.0000
  C   C33       1.0  0.24646  0.22115  0.13813  1.0000
  C   C34       1.0  0.25769  0.20536  0.14699  1.0000
  C   C35       1.0  0.25077  0.18651  0.15109  1.0000
  C   C36       1.0  0.23258  0.18355  0.14666  1.0000
  H   H28       1.0  0.21973  0.23049  0.12680  1.0000
  H   H29       1.0  0.25164  0.23571  0.13486  1.0000
  H   H30       1.0  0.25946  0.17417  0.15783  1.0000
  H   H31       1.0  0.22738  0.16901  0.14993  1.0000
  H   H32       1.0  0.22219  0.99605  0.99536  1.0000
  C   C37       1.0  0.99117  0.25750  0.14695  1.0000
  C   C38       1.0  0.31699  0.36821  0.14330  1.0000
  H   H33       1.0  0.13731  0.19194  0.19511  1.0000
  H   H34       1.0  0.02245  0.31536  0.02156  1.0000
  C   C39       1.0  0.18719  0.05070  0.10869  1.0000
  C   C40       1.0  0.18882  0.07135  0.10407  1.0000
  C   C41       1.0  0.18691  0.08449  0.11539  1.0000
  C   C42       1.0  0.18357  0.07705  0.13152  1.0000
  C   C43       1.0  0.18237  0.05632  0.13617  1.0000
  C   C44       1.0  0.18402  0.04322  0.12483  1.0000
  H   H35       1.0  0.19144  0.07723  0.09161  1.0000
  H   H36       1.0  0.18825  0.10031  0.11165  1.0000
  H   H37       1.0  0.18000  0.05036  0.14861  1.0000
  H   H38       1.0  0.18277  0.02737  0.12856  1.0000
  H   H39       1.0  0.00530  0.28659  0.02249  1.0000
  H   H40       1.0  0.13711  0.09462  0.18144  1.0000
  S   S31       1.0  0.16237  0.98439  0.10691  1.0000
  C   C45       1.0  0.25520  0.45174  0.19023  1.0000
  H   H41       1.0  0.25998  0.34068  0.16709  1.0000
  H   H42       1.0  0.22293  0.07623  0.19758  1.0000
  H   H43       1.0  0.27849  0.32304  0.15726  1.0000
  H   H44       1.0  0.05536  0.30316  0.00834  1.0000
  H   H45       1.0  0.15171  0.10340  0.20322  1.0000
  C   C46       1.0  0.26378  0.47858  0.01662  1.0000
  C   C47       1.0  0.10679  0.45352  0.01396  1.0000
  N   N1        1.0  0.18988  0.36332  0.09199  1.0000
  C   C48       1.0  0.18884  0.36864  0.07448  1.0000
  C   C49       1.0  0.17445  0.34947  0.09888  1.0000
  C   C50       1.0  0.21101  0.35263  0.09408  1.0000
  C   C51       1.0  0.18530  0.38271  0.09909  1.0000
  C   C52       1.0  0.20505  0.38093  0.06473  1.0000
  C   C53       1.0  0.15228  0.35810  0.09691  1.0000
  C   C54       1.0  0.21334  0.33624  0.10865  1.0000
  C   C55       1.0  0.18417  0.38062  0.11714  1.0000
  H   H46       1.0  0.18996  0.35466  0.06902  1.0000
  H   H47       1.0  0.17409  0.37785  0.07224  1.0000
  H   H48       1.0  0.17457  0.34467  0.11175  1.0000
  H   H49       1.0  0.17829  0.33524  0.09347  1.0000
  H   H50       1.0  0.21789  0.34450  0.08386  1.0000
  H   H51       1.0  0.22125  0.36377  0.09425  1.0000
  H   H52       1.0  0.19687  0.39263  0.09410  1.0000
  H   H53       1.0  0.17084  0.39163  0.09596  1.0000
  H   H54       1.0  0.22071  0.37350  0.06587  1.0000
  H   H55       1.0  0.20341  0.38271  0.05202  1.0000
  H   H56       1.0  0.20287  0.39639  0.06787  1.0000
  H   H57       1.0  0.14977  0.36073  0.08436  1.0000
  H   H58       1.0  0.14249  0.34684  0.10317  1.0000
  H   H59       1.0  0.14689  0.37216  0.10226  1.0000
  H   H60       1.0  0.20672  0.32272  0.10769  1.0000
  H   H61       1.0  0.20680  0.34174  0.11999  1.0000
  H   H62       1.0  0.22967  0.33098  0.10909  1.0000
  H   H63       1.0  0.18034  0.39599  0.12069  1.0000
  H   H64       1.0  0.19894  0.37407  0.12096  1.0000
  N   N2        1.0  0.07269  0.24800  0.08914  1.0000
  C   C56       1.0  0.05991  0.25386  0.10417  1.0000
  C   C57       1.0  0.09088  0.23347  0.09389  1.0000
  C   C58       1.0  0.06025  0.23756  0.08105  1.0000
  C   C59       1.0  0.07820  0.26712  0.07887  1.0000
  C   C60       1.0  0.03926  0.26703  0.10225  1.0000
  C   C61       1.0  0.10507  0.24203  0.10230  1.0000
  C   C62       1.0  0.07178  0.22328  0.06935  1.0000
  C   C63       1.0  0.09347  0.26480  0.06374  1.0000
  H   H65       1.0  0.05686  0.24010  0.11273  1.0000
  H   H66       1.0  0.06793  0.26254  0.11025  1.0000
  H   H67       1.0  0.10047  0.22717  0.08368  1.0000
  H   H68       1.0  0.08595  0.21999  0.10187  1.0000
  H   H69       1.0  0.05058  0.22812  0.08993  1.0000
  H   H70       1.0  0.04953  0.24886  0.07456  1.0000
  H   H71       1.0  0.06452  0.27666  0.07471  1.0000
  H   H72       1.0  0.08362  0.27707  0.08572  1.0000
  H   H73       1.0  0.02947  0.25936  0.09701  1.0000
  H   H74       1.0  0.03122  0.26975  0.11414  1.0000
  H   H75       1.0  0.04086  0.28207  0.09521  1.0000
  H   H76       1.0  0.11848  0.23036  0.10409  1.0000
  H   H77       1.0  0.11068  0.25564  0.09515  1.0000
  H   H78       1.0  0.09788  0.24532  0.11424  1.0000
  H   H79       1.0  0.06092  0.21921  0.06262  1.0000
  H   H80       1.0  0.07891  0.20891  0.07573  1.0000
  H   H81       1.0  0.08326  0.23017  0.06052  1.0000
  H   H82       1.0  0.08567  0.26380  0.05370  1.0000
  H   H83       1.0  0.10566  0.25182  0.06510  1.0000
  H   H84       1.0  0.10133  0.27830  0.06059  1.0000
  C   C64       1.0  0.03360  0.34298  0.99859  1.0000
  H   H85       1.0  0.19694  0.19084  0.16880  1.0000
  S   S32       1.0  0.27400  0.44381  0.05865  1.0000
  H   H86       1.0  0.22659  0.17709  0.20343  1.0000
  C   C65       1.0  0.19682  0.08272  0.18403  1.0000
  N   N3        1.0  0.18175  0.08620  0.19856  1.0000
  H   H87       1.0  0.10903  0.43736  0.01917  1.0000
  S   S33       1.0  0.31456  0.24608  0.12437  1.0000
  C   C66       1.0  0.27645  0.45545  0.03864  1.0000
  H   H88       1.0  0.17531  0.22670  0.21088  1.0000
  C   C67       1.0  0.26215  0.99890  0.97251  1.0000
  H   H89       1.0  0.28696  0.47093  0.19348  1.0000
  N   N4        1.0  0.03180  0.32186  0.99621  1.0000
  H   H90       1.0  0.00814  0.36019  0.98677  1.0000
  H   H91       1.0  0.01966  0.99890  0.98685  1.0000
  H   H92       1.0  0.21359  0.47218  0.19134  1.0000
  C   C68       1.0  0.28282  0.47569  0.00725  1.0000
  H   H93       1.0  0.23250  0.99741  0.96845  1.0000
  S   S34       1.0  0.99625  0.24443  0.08767  1.0000
  C   C69       1.0  0.00953  0.47430  0.02223  1.0000
  H   H94       1.0  0.31669  0.37489  0.15425  1.0000
  C   C70       1.0  0.24751  0.46019  0.20605  1.0000
  C   C71       1.0  0.17919  0.06597  0.20833  1.0000
  H   H95       1.0  0.00211  0.32193  0.01037  1.0000
  H   H96       1.0  0.17503  0.05557  0.20117  1.0000
  H   H97       1.0  0.21086  0.11493  0.19125  1.0000
  H   H98       1.0  0.09532  0.43327  0.04375  1.0000
  C   C72       1.0  0.29857  0.46243  0.01357  1.0000
  C   C73       1.0  0.23940  0.45864  0.98255  1.0000
  C   C74       1.0  0.14815  0.16416  0.20923  1.0000
  H   H99       1.0  0.24591  0.47088  0.03936  1.0000
  C   C75       1.0  0.15009  0.08442  0.18611  1.0000
  C   C76       1.0  0.25009  0.98402  0.04315  1.0000
  H   H100      1.0  0.14167  0.21376  0.21427  1.0000
  H   H101      1.0  0.30782  0.44253  0.03410  1.0000
  H   H102      1.0  0.24986  0.19996  0.20566  1.0000
  N   N5        1.0  0.12645  0.09806  0.10952  1.0000
  C   C77       1.0  0.13328  0.07544  0.11164  1.0000
  C   C78       1.0  0.12871  0.10543  0.12452  1.0000
  C   C79       1.0  0.14039  0.10742  0.09584  1.0000
  C   C80       1.0  0.10493  0.10206  0.10606  1.0000
  C   C81       1.0  0.13562  0.06506  0.09677  1.0000
  C   C82       1.0  0.11740  0.09502  0.13986  1.0000
  C   C83       1.0  0.13816  0.13066  0.09271  1.0000
  C   C84       1.0  0.09208  0.12231  0.10987  1.0000
  H   H103      1.0  0.14799  0.07167  0.11623  1.0000
  H   H104      1.0  0.12262  0.06744  0.12073  1.0000
  H   H105      1.0  0.12376  0.12191  0.12420  1.0000
  H   H106      1.0  0.14496  0.10331  0.12600  1.0000
  H   H107      1.0  0.15640  0.10189  0.09748  1.0000
  H   H108      1.0  0.13853  0.10275  0.08454  1.0000
  H   H109      1.0  0.10456  0.10111  0.09341  1.0000
  H   H110      1.0  0.09640  0.09004  0.11299  1.0000
  H   H111      1.0  0.14910  0.06877  0.08826  1.0000
  H   H112      1.0  0.13827  0.04836  0.10028  1.0000
  H   H113      1.0  0.99984  0.26385  0.13582  1.0000
  H   H114      1.0  0.10158  0.09419  0.13874  1.0000
  H   H115      1.0  0.12542  0.07962  0.14343  1.0000
  H   H116      1.0  0.11701  0.10380  0.14963  1.0000
  H   H117      1.0  0.12353  0.13754  0.08874  1.0000
  H   H118      1.0  0.15002  0.13514  0.08286  1.0000
  H   H119      1.0  0.14068  0.13720  0.10295  1.0000
  H   H120      1.0  0.08172  0.12784  0.10091  1.0000
  H   H121      1.0  0.10065  0.13469  0.10981  1.0000
  H   H122      1.0  0.08213  0.12004  0.12139  1.0000
  H   H123      1.0  0.99682  0.26241  0.15676  1.0000
  H   H124      1.0  0.28603  0.36408  0.16433  1.0000
  H   H125      1.0  0.30214  0.32451  0.13633  1.0000
  H   H126      1.0  0.30129  0.46238  0.10044  1.0000
  H   H127      1.0  0.20062  0.09040  0.21538  1.0000
  H   H128      1.0  0.00234  0.35494  0.00823  1.0000
  H   H129      1.0  0.27800  0.23671  0.20605  1.0000
  C   C85       1.0  0.07085  0.31783  0.98752  1.0000
  C   C86       1.0  0.05395  0.38444  0.96788  1.0000
  H   H130      1.0  0.26243  0.25900  0.21157  1.0000
  H   H131      1.0  0.02295  0.30568  0.97966  1.0000
  H   H132      1.0  0.00662  0.32803  0.98264  1.0000
  H   H133      1.0  0.21967  0.05580  0.18789  1.0000
  H   H134      1.0  0.22155  0.22232  0.20803  1.0000
  H   H135      1.0  0.20376  0.16789  0.18207  1.0000
  H   H136      1.0  0.06929  0.32542  0.97538  1.0000
  C   C87       1.0  0.16212  0.09703  0.19330  1.0000
  N   N6        1.0  0.99464  0.99365  0.00571  1.0000
  C   C88       1.0  0.19305  0.18221  0.18063  1.0000
  H   H137      1.0  0.17805  0.20539  0.19410  1.0000
  C   C89       1.0  0.31005  0.28343  0.20091  1.0000
  C   C90       1.0  0.01473  0.45066  0.04592  1.0000
  Fe  Fe17      1.0  0.30585  0.27018  0.16330  1.0000
  H   H138      1.0  0.28213  0.32984  0.17571  1.0000
  H   H139      1.0  0.22941  0.07800  0.17682  1.0000
  C   C91       1.0  0.00312  0.00376  0.98971  1.0000
  C   C92       1.0  0.23186  0.98162  0.99923  1.0000
  H   H140      1.0  0.03014  0.28074  0.01244  1.0000
  N   N7        1.0  0.21023  0.20540  0.19319  1.0000
  C   C93       1.0  0.22872  0.18938  0.19324  1.0000
  C   C94       1.0  0.19230  0.19472  0.19405  1.0000
  H   H141      1.0  0.26358  0.46164  0.18093  1.0000
  C   C95       1.0  0.21308  0.22071  0.17845  1.0000
  C   C96       1.0  0.08077  0.44332  0.04595  1.0000
  H   H142      1.0  0.03898  0.34256  0.01012  1.0000
  H   H143      1.0  0.17793  0.17791  0.18101  1.0000
  C   C97       1.0  0.19384  0.23304  0.17230  1.0000
  H   H144      1.0  0.25146  0.21014  0.18478  1.0000
  H   H145      1.0  0.23130  0.18191  0.18245  1.0000
  H   H146      1.0  0.25822  0.00689  0.98302  1.0000
  Fe  Fe18      1.0  0.22276  0.46022  0.10626  1.0000
  S   S35       1.0  0.29188  0.99413  0.00414  1.0000
  H   H147      1.0  0.22280  0.23166  0.18000  1.0000
  H   H148      1.0  0.22135  0.21291  0.16847  1.0000
  C   C98       1.0  0.25246  0.47188  0.97011  1.0000
  Fe  Fe19      1.0  0.99279  0.19319  0.07453  1.0000
  H   H149      1.0  0.98960  0.27223  0.11014  1.0000
  C   C99       1.0  0.11677  0.46149  0.04754  1.0000
  H   H150      1.0  0.99495  0.24077  0.14834  1.0000
  H   H151      1.0  0.18524  0.12833  0.19286  1.0000
  H   H152      1.0  0.15913  0.07734  0.17607  1.0000
  H   H153      1.0  0.25963  0.00955  0.02685  1.0000
  C   C100      1.0  0.21831  0.07253  0.18692  1.0000
  H   H154      1.0  0.26861  0.46534  0.97046  1.0000
  H   H155      1.0  0.17222  0.37186  0.12356  1.0000
  H   H156      1.0  0.27673  0.36214  0.14682  1.0000
  S   S36       1.0  0.29714  0.28750  0.18435  1.0000
  H   H157      1.0  0.98957  0.02400  0.02726  1.0000
  H   H158      1.0  0.12915  0.47082  0.04414  1.0000
  H   H159      1.0  0.25668  0.47904  0.13102  1.0000
  C   C101      1.0  0.27762  0.98165  0.02092  1.0000
  H   H160      1.0  0.31445  0.39802  0.12908  1.0000
  H   H161      1.0  0.29055  0.38997  0.13630  1.0000
  H   H162      1.0  0.23983  0.44337  0.97945  1.0000
  C   C102      1.0  0.27646  0.33564  0.16427  1.0000
  H   H163      1.0  0.05206  0.29454  0.99088  1.0000
  H   H164      1.0  0.19378  0.05820  0.21214  1.0000
  C   C103      1.0  0.29272  0.47790  0.09845  1.0000
  C   C104      1.0  0.00718  0.99683  0.01766  1.0000
  H   H165      1.0  0.19715  0.24835  0.16676  1.0000
  H   H166      1.0  0.22353  0.46614  0.98467  1.0000
  C   C105      1.0  0.00131  0.46414  0.05493  1.0000
  C   C106      1.0  0.19672  0.11845  0.19943  1.0000
  C   C107      1.0  0.01414  0.35853  0.99812  1.0000
  C   C108      1.0  0.30300  0.29556  0.21291  1.0000
  H   H167      1.0  0.27944  0.47846  0.10777  1.0000
  H   H168      1.0  0.28037  0.46834  0.08024  1.0000
  C   C109      1.0  0.99291  0.00194  0.97555  1.0000
  H   H169      1.0  0.00919  0.02961  0.01091  1.0000
  H   H170      1.0  0.26155  0.18454  0.19093  1.0000
  N   N8        1.0  0.30821  0.34871  0.14738  1.0000
  C   C110      1.0  0.00498  0.01866  0.02146  1.0000
  H   H171      1.0  0.29556  0.34859  0.12604  1.0000
  H   H172      1.0  0.08408  0.30567  0.98663  1.0000
  H   H173      1.0  0.19792  0.09692  0.17551  1.0000
  C   C111      1.0  0.24885  0.19674  0.19372  1.0000
  H   H174      1.0  0.08963  0.48051  0.05535  1.0000
  H   H175      1.0  0.05771  0.44541  0.06701  1.0000
  H   H176      1.0  0.19152  0.24553  0.20167  1.0000
  C   C112      1.0  0.30731  0.33952  0.13289  1.0000
  H   H177      1.0  0.01532  0.01887  0.03005  1.0000
  H   H178      1.0  0.08262  0.44869  0.07013  1.0000
  H   H179      1.0  0.20018  0.12730  0.20805  1.0000
  H   H180      1.0  0.07000  0.43666  0.04072  1.0000
  N   N9        1.0  0.08171  0.46484  0.03809  1.0000
  H   H181      1.0  0.11952  0.46096  0.01540  1.0000
  H   H182      1.0  0.23827  0.99318  0.04998  1.0000
  H   H183      1.0  0.12195  0.06883  0.09085  1.0000
  H   H184      1.0  0.30690  0.37938  0.11998  1.0000
  C   C113      1.0  0.30643  0.38464  0.13150  1.0000
  H   H185      1.0  0.27716  0.98949  0.97270  1.0000
  H   H186      1.0  0.19161  0.07274  0.17711  1.0000
  C   C114      1.0  0.01769  0.31347  0.01026  1.0000
  C   C115      1.0  0.01560  0.29090  0.01147  1.0000
  H   H187      1.0  0.08631  0.48088  0.01418  1.0000
  H   H188      1.0  0.24541  0.45649  0.99398  1.0000
  C   C116      1.0  0.26224  0.99326  0.03002  1.0000
  C   C117      1.0  0.07420  0.44055  0.06401  1.0000
  H   H189      1.0  0.24256  0.44755  0.18548  1.0000
  C   C118      1.0  0.18875  0.09916  0.20848  1.0000
  H   H190      1.0  0.01766  0.37364  0.99906  1.0000
  H   H191      1.0  0.11639  0.45643  0.06045  1.0000
  C   C119      1.0  0.24598  0.98623  0.97108  1.0000
  H   H192      1.0  0.05683  0.47764  0.05454  1.0000
  S   S37       1.0  0.21747  0.46475  0.08063  1.0000
  H   H193      1.0  0.26566  0.43738  0.19254  1.0000
  C   C120      1.0  0.26055  0.46841  0.03222  1.0000
  H   H194      1.0  0.14374  0.07260  0.19507  1.0000
  H   H195      1.0  0.31566  0.31846  0.15988  1.0000
  H   H196      1.0  0.07715  0.42421  0.06878  1.0000
  C   C121      1.0  0.02294  0.32154  0.98146  1.0000
  H   H197      1.0  0.10737  0.45377  0.00105  1.0000
  C   C122      1.0  0.09661  0.47478  0.04405  1.0000
  H   H198      1.0  0.31329  0.46010  0.00651  1.0000
  H   H199      1.0  0.02356  0.99225  0.01373  1.0000
  C   C123      1.0  0.08633  0.46515  0.02041  1.0000
  H   H200      1.0  0.98872  0.98684  0.97589  1.0000
  H   H201      1.0  0.19027  0.18426  0.20542  1.0000
  H   H202      1.0  0.03985  0.34517  0.96696  1.0000
  H   H203      1.0  0.31562  0.33814  0.17104  1.0000
  H   H204      1.0  0.25844  0.45329  0.21440  1.0000
  H   H205      1.0  0.99822  0.46021  0.06764  1.0000
  H   H206      1.0  0.07433  0.45908  0.01610  1.0000
  H   H207      1.0  0.00882  0.28790  0.00151  1.0000
  H   H208      1.0  0.00352  0.98704  0.02912  1.0000
  H   H209      1.0  0.04930  0.46868  0.03876  1.0000
  H   H210      1.0  0.01283  0.47844  0.00955  1.0000
  H   H211      1.0  0.29041  0.30759  0.21152  1.0000
  H   H212      1.0  0.24408  0.98636  0.00418  1.0000
  C   C124      1.0  0.06084  0.47662  0.04168  1.0000
  C   C125      1.0  0.18997  0.23185  0.21056  1.0000
  C   C126      1.0  0.98724  0.98155  0.06183  1.0000
  H   H213      1.0  0.30153  0.48125  0.07365  1.0000
  H   H214      1.0  0.18954  0.23649  0.22232  1.0000
  S   S38       1.0  0.00930  0.29811  0.44738  1.0000
  S   S39       1.0  0.00086  0.35833  0.44874  1.0000
  Fe  Fe20      1.0  0.01821  0.23463  0.35040  1.0000
  H   H215      1.0  0.18892  0.01616  0.44435  1.0000
  S   S40       1.0  0.04755  0.24109  0.33452  1.0000
  C   C127      1.0  0.27519  0.05769  0.36122  1.0000
  H   H216      1.0  0.24456  0.31598  0.32279  1.0000
  S   S41       1.0  0.01438  0.22932  0.37706  1.0000
  H   H217      1.0  0.01089  0.26109  0.40306  1.0000
  Fe  Fe21      1.0  0.15407  0.18004  0.30234  1.0000
  S   S42       1.0  0.16596  0.20720  0.28729  1.0000
  S   S43       1.0  0.12700  0.17695  0.32165  1.0000
  Fe  Fe22      1.0  0.18580  0.14980  0.28541  1.0000
  S   S44       1.0  0.19961  0.17448  0.26873  1.0000
  S   S45       1.0  0.19707  0.11693  0.28242  1.0000
  Fe  Fe23      1.0  0.19702  0.18993  0.29016  1.0000
  S   S46       1.0  0.22664  0.19872  0.29374  1.0000
  Fe  Fe24      1.0  0.16788  0.18959  0.26704  1.0000
  S   S47       1.0  0.15701  0.20480  0.24400  1.0000
  S   S48       1.0  0.18498  0.16409  0.30700  1.0000
  S   S49       1.0  0.15412  0.16370  0.28184  1.0000
  H   H218      1.0  0.16892  0.07403  0.23229  1.0000
  H   H219      1.0  0.24168  0.11960  0.33143  1.0000
  S   S50       1.0  0.25070  0.00832  0.36134  1.0000
  H   H220      1.0  0.07273  0.45844  0.46010  1.0000
  H   H221      1.0  0.23974  0.27442  0.26271  1.0000
  Fe  Fe25      1.0  0.23355  0.01910  0.34066  1.0000
  S   S51       1.0  0.21658  0.05111  0.34145  1.0000
  S   S52       1.0  0.25998  0.00956  0.32289  1.0000
  Fe  Fe26      1.0  0.25665  0.47407  0.36237  1.0000
  Fe  Fe27      1.0  0.30331  0.47038  0.35367  1.0000
  S   S53       1.0  0.28214  0.44880  0.36635  1.0000
  C   C128      1.0  0.07993  0.32296  0.41330  1.0000
  Fe  Fe28      1.0  0.28021  0.44173  0.34216  1.0000
  H   H222      1.0  0.03990  0.44978  0.44258  1.0000
  S   S54       1.0  0.25293  0.46573  0.33907  1.0000
  H   H223      1.0  0.11893  0.47124  0.40187  1.0000
  S   S55       1.0  0.30107  0.29969  0.30999  1.0000
  C   C129      1.0  0.04518  0.45059  0.45390  1.0000
  Fe  Fe29      1.0  0.28655  0.28632  0.29348  1.0000
  S   S56       1.0  0.25322  0.28317  0.29748  1.0000
  S   S57       1.0  0.29660  0.30784  0.27202  1.0000
  H   H224      1.0  0.00894  0.47104  0.44720  1.0000
  H   H225      1.0  0.26030  0.45840  0.39869  1.0000
  H   H226      1.0  0.02513  0.27078  0.42484  1.0000
  Fe  Fe30      1.0  0.99824  0.32622  0.45954  1.0000
  C   C130      1.0  0.19431  0.47662  0.42243  1.0000
  N   N10       1.0  0.28877  0.47855  0.40923  1.0000
  H   H227      1.0  0.26664  0.11524  0.32086  1.0000
  S   S58       1.0  0.22042  0.99024  0.34265  1.0000
  H   H228      1.0  0.12195  0.19723  0.26999  1.0000
  H   H229      1.0  0.25890  0.09375  0.34824  1.0000
  H   H230      1.0  0.06965  0.37803  0.42603  1.0000
  C   C131      1.0  0.09490  0.16584  0.29201  1.0000
  H   H231      1.0  0.20215  0.42899  0.41298  1.0000
  H   H232      1.0  0.22870  0.33254  0.33519  1.0000
  H   H233      1.0  0.25545  0.45444  0.42025  1.0000
  C   C132      1.0  0.29400  0.40229  0.31014  1.0000
  H   H234      1.0  0.14854  0.07442  0.22120  1.0000
  N   N11       1.0  0.05869  0.33117  0.41999  1.0000
  C   C133      1.0  0.27049  0.06771  0.31651  1.0000
  C   C134      1.0  0.30063  0.39001  0.29808  1.0000
  H   H235      1.0  0.10034  0.29566  0.40815  1.0000
  H   H236      1.0  0.08394  0.33094  0.40111  1.0000
  H   H237      1.0  0.24871  0.27171  0.23386  1.0000
  C   C135      1.0  0.10989  0.20599  0.27756  1.0000
  H   H238      1.0  0.10206  0.17393  0.26692  1.0000
  H   H239      1.0  0.02186  0.42199  0.45586  1.0000
  H   H240      1.0  0.20191  0.99913  0.38464  1.0000
  C   C136      1.0  0.23313  0.22241  0.29532  1.0000
  C   C137      1.0  0.25308  0.22319  0.29724  1.0000
  C   C138      1.0  0.25935  0.24167  0.29797  1.0000
  C   C139      1.0  0.24566  0.25961  0.29692  1.0000
  C   C140      1.0  0.22560  0.25886  0.29522  1.0000
  C   C141      1.0  0.21936  0.24035  0.29430  1.0000
  H   H241      1.0  0.26379  0.20937  0.29817  1.0000
  H   H242      1.0  0.27474  0.24197  0.29952  1.0000
  H   H243      1.0  0.21486  0.27266  0.29449  1.0000
  H   H244      1.0  0.20394  0.23994  0.29287  1.0000
  C   C142      1.0  0.15344  0.18891  0.23086  1.0000
  C   C143      1.0  0.29484  0.37221  0.32960  1.0000
  C   C144      1.0  0.15828  0.16788  0.23417  1.0000
  H   H245      1.0  0.28518  0.04197  0.34125  1.0000
  H   H246      1.0  0.16417  0.16107  0.24500  1.0000
  C   C145      1.0  0.20371  0.09885  0.29864  1.0000
  C   C146      1.0  0.20983  0.07845  0.29662  1.0000
  C   C147      1.0  0.21426  0.06362  0.30955  1.0000
  C   C148      1.0  0.21221  0.06910  0.32464  1.0000
  C   C149      1.0  0.20632  0.08953  0.32660  1.0000
  C   C150      1.0  0.20245  0.10439  0.31361  1.0000
  H   H247      1.0  0.21097  0.07406  0.28504  1.0000
  H   H248      1.0  0.21881  0.04791  0.30791  1.0000
  H   H249      1.0  0.20487  0.09390  0.33822  1.0000
  H   H250      1.0  0.19828  0.12010  0.31517  1.0000
  C   C151      1.0  0.06967  0.22314  0.33145  1.0000
  C   C152      1.0  0.08703  0.22951  0.32197  1.0000
  C   C153      1.0  0.10480  0.21565  0.31897  1.0000
  C   C154      1.0  0.10533  0.19522  0.32539  1.0000
  C   C155      1.0  0.08804  0.18888  0.33496  1.0000
  C   C156      1.0  0.07028  0.20274  0.33794  1.0000
  H   H251      1.0  0.08672  0.24528  0.31697  1.0000
  H   H252      1.0  0.11806  0.22080  0.31175  1.0000
  H   H253      1.0  0.08831  0.17315  0.34005  1.0000
  H   H254      1.0  0.05704  0.19765  0.34527  1.0000
  H   H255      1.0  0.26929  0.08128  0.30734  1.0000
  C   C157      1.0  0.20351  0.44483  0.41209  1.0000
  H   H256      1.0  0.00829  0.13960  0.41232  1.0000
  H   H257      1.0  0.17385  0.01263  0.40421  1.0000
  H   H258      1.0  0.07589  0.17581  0.27370  1.0000
  H   H259      1.0  0.29166  0.44775  0.42159  1.0000
  H   H260      1.0  0.08286  0.16866  0.30209  1.0000
  C   C158      1.0  0.01471  0.47674  0.45660  1.0000
  H   H261      1.0  0.30053  0.00160  0.37609  1.0000
  C   C159      1.0  0.99943  0.29299  0.43110  1.0000
  H   H262      1.0  0.22620  0.00604  0.43860  1.0000
  H   H263      1.0  0.30277  0.39701  0.28586  1.0000
  H   H264      1.0  0.29260  0.36521  0.34182  1.0000
  H   H265      1.0  0.31794  0.06520  0.34295  1.0000
  N   N12       1.0  0.14267  0.11179  0.33961  1.0000
  C   C160      1.0  0.14872  0.10211  0.32469  1.0000
  C   C161      1.0  0.14736  0.09568  0.35334  1.0000
  C   C162      1.0  0.15569  0.12802  0.33852  1.0000
  C   C163      1.0  0.12056  0.12074  0.34073  1.0000
  C   C164      1.0  0.14763  0.11657  0.30897  1.0000
  C   C165      1.0  0.13818  0.07612  0.35442  1.0000
  C   C166      1.0  0.15208  0.14013  0.35248  1.0000
  C   C167      1.0  0.10868  0.12225  0.35745  1.0000
  H   H266      1.0  0.16435  0.09365  0.32421  1.0000
  H   H267      1.0  0.13894  0.09061  0.32448  1.0000
  H   H268      1.0  0.14244  0.10142  0.36483  1.0000
  H   H269      1.0  0.16402  0.09103  0.35278  1.0000
  H   H270      1.0  0.17193  0.12138  0.33698  1.0000
  H   H271      1.0  0.15363  0.13962  0.32801  1.0000
  H   H272      1.0  0.11869  0.13622  0.33386  1.0000
  H   H273      1.0  0.11206  0.11194  0.33511  1.0000
  H   H274      1.0  0.14929  0.10754  0.29913  1.0000
  H   H275      1.0  0.13311  0.12696  0.30892  1.0000
  H   H276      1.0  0.16035  0.12545  0.30620  1.0000
  H   H277      1.0  0.14723  0.06628  0.34593  1.0000
  H   H278      1.0  0.13864  0.06735  0.36644  1.0000
  H   H279      1.0  0.12228  0.07923  0.35217  1.0000
  H   H280      1.0  0.13753  0.15054  0.35264  1.0000
  H   H281      1.0  0.16396  0.15000  0.35071  1.0000
  H   H282      1.0  0.15306  0.13046  0.36404  1.0000
  H   H283      1.0  0.10620  0.10716  0.36401  1.0000
  H   H284      1.0  0.09350  0.13114  0.35630  1.0000
  H   H285      1.0  0.11585  0.13004  0.36470  1.0000
  N   N13       1.0  0.27167  0.24953  0.24440  1.0000
  C   C168      1.0  0.26126  0.27102  0.24076  1.0000
  C   C169      1.0  0.28726  0.45639  0.41031  1.0000
  C   C170      1.0  0.28694  0.24950  0.25522  1.0000
  C   C171      1.0  0.25575  0.23671  0.25240  1.0000
  C   C172      1.0  0.25197  0.28190  0.25517  1.0000
  C   C173      1.0  0.25279  0.10830  0.32536  1.0000
  H   H286      1.0  0.27192  0.28062  0.23321  1.0000
  C   C174      1.0  0.26234  0.21366  0.25572  1.0000
  H   H287      1.0  0.17446  0.47831  0.39558  1.0000
  H   H288      1.0  0.02166  0.18437  0.42786  1.0000
  H   H289      1.0  0.26780  0.43450  0.40956  1.0000
  C   C175      1.0  0.06552  0.31963  0.44913  1.0000
  H   H290      1.0  0.29396  0.26360  0.25211  1.0000
  H   H291      1.0  0.27947  0.24960  0.26766  1.0000
  H   H292      1.0  0.24916  0.24128  0.26413  1.0000
  H   H293      1.0  0.24244  0.23953  0.24598  1.0000
  H   H294      1.0  0.26089  0.06577  0.36690  1.0000
  H   H295      1.0  0.24509  0.29754  0.25089  1.0000
  H   H296      1.0  0.24894  0.20595  0.25667  1.0000
  H   H297      1.0  0.07338  0.22575  0.28944  1.0000
  S   S59       1.0  0.15699  0.99646  0.43538  1.0000
  H   H298      1.0  0.12623  0.45733  0.41991  1.0000
  C   C176      1.0  0.19229  0.45621  0.42365  1.0000
  H   H299      1.0  0.19170  0.98278  0.45636  1.0000
  H   H300      1.0  0.11192  0.20352  0.24684  1.0000
  H   H301      1.0  0.26851  0.20933  0.26709  1.0000
  C   C177      1.0  0.14572  0.19751  0.21680  1.0000
  H   H302      1.0  0.24236  0.08217  0.34017  1.0000
  S   S60       1.0  0.30890  0.00452  0.34144  1.0000
  N   N14       1.0  0.24194  0.34785  0.31275  1.0000
  C   C178      1.0  0.24297  0.33110  0.32668  1.0000
  C   C179      1.0  0.22182  0.34923  0.30718  1.0000
  C   C180      1.0  0.24358  0.36746  0.31829  1.0000
  C   C181      1.0  0.25930  0.34238  0.30013  1.0000
  H   H303      1.0  0.26004  0.31631  0.34564  1.0000
  C   C182      1.0  0.21780  0.33003  0.30160  1.0000
  C   C183      1.0  0.23321  0.38738  0.30965  1.0000
  C   C184      1.0  0.26042  0.35682  0.28439  1.0000
  C   C185      1.0  0.02057  0.20033  0.42204  1.0000
  C   C186      1.0  0.00733  0.21494  0.43282  1.0000
  H   H304      1.0  0.21974  0.36160  0.29718  1.0000
  H   H305      1.0  0.20933  0.35315  0.31680  1.0000
  H   H306      1.0  0.23672  0.36752  0.33091  1.0000
  H   H307      1.0  0.25968  0.36906  0.31787  1.0000
  H   H308      1.0  0.27396  0.34154  0.30438  1.0000
  H   H309      1.0  0.25921  0.32697  0.29736  1.0000
  H   H310      1.0  0.26346  0.28336  0.26241  1.0000
  H   H311      1.0  0.01417  0.33373  0.40348  1.0000
  H   H312      1.0  0.21763  0.31691  0.31116  1.0000
  C   C187      1.0  0.30171  0.35996  0.31757  1.0000
  H   H313      1.0  0.22880  0.32589  0.29124  1.0000
  H   H314      1.0  0.23822  0.40033  0.31347  1.0000
  H   H315      1.0  0.21656  0.38897  0.31297  1.0000
  H   H316      1.0  0.23690  0.38897  0.29665  1.0000
  H   H317      1.0  0.24657  0.35881  0.27884  1.0000
  H   H318      1.0  0.27299  0.35030  0.27589  1.0000
  H   H319      1.0  0.26408  0.37162  0.28586  1.0000
  H   H320      1.0  0.25584  0.06182  0.31812  1.0000
  C   C188      1.0  0.25173  0.98253  0.43843  1.0000
  C   C189      1.0  0.31322  0.06657  0.33111  1.0000
  H   H321      1.0  0.29100  0.41858  0.30716  1.0000
  H   H322      1.0  0.30502  0.34372  0.32056  1.0000
  C   C190      1.0  0.00240  0.27262  0.40981  1.0000
  H   H323      1.0  0.06330  0.04606  0.45324  1.0000
  H   H324      1.0  0.30613  0.30132  0.23608  1.0000
  C   C191      1.0  0.98593  0.16464  0.40510  1.0000
  H   H325      1.0  0.27797  0.04263  0.36856  1.0000
  H   H326      1.0  0.08087  0.29096  0.42431  1.0000
  S   S61       1.0  0.00204  0.20925  0.34852  1.0000
  C   C192      1.0  0.31183  0.29200  0.22686  1.0000
  H   H327      1.0  0.10195  0.23822  0.28094  1.0000
  H   H328      1.0  0.05473  0.36214  0.40807  1.0000
  S   S62       1.0  0.11924  0.46256  0.45345  1.0000
  C   C193      1.0  0.27339  0.05457  0.34433  1.0000
  C   C194      1.0  0.21617  0.45384  0.39918  1.0000
  H   H329      1.0  0.01387  0.21277  0.44401  1.0000
  H   H330      1.0  0.23191  0.01380  0.46268  1.0000
  C   C195      1.0  0.08408  0.30002  0.41251  1.0000
  H   H331      1.0  0.27536  0.32776  0.32903  1.0000
  H   H332      1.0  0.29798  0.44970  0.40063  1.0000
  H   H333      1.0  0.09784  0.41557  0.46083  1.0000
  H   H334      1.0  0.25908  0.34310  0.34252  1.0000
  H   H335      1.0  0.98646  0.12669  0.43656  1.0000
  H   H336      1.0  0.99416  0.16374  0.45424  1.0000
  H   H337      1.0  0.05034  0.43467  0.45883  1.0000
  H   H338      1.0  0.30022  0.21696  0.25749  1.0000
  C   C196      1.0  0.26041  0.32977  0.33635  1.0000
  N   N15       1.0  0.27408  0.07303  0.33191  1.0000
  S   S63       1.0  0.31305  0.26225  0.28900  1.0000
  H   H339      1.0  0.07845  0.35408  0.43640  1.0000
  C   C197      1.0  0.07474  0.39707  0.46110  1.0000
  H   H340      1.0  0.31286  0.05132  0.32841  1.0000
  Fe  Fe31      1.0  0.99616  0.20541  0.37505  1.0000
  S   S64       1.0  0.31186  0.35395  0.28606  1.0000
  C   C198      1.0  0.00885  0.43127  0.46212  1.0000
  H   H341      1.0  0.29382  0.25288  0.22353  1.0000
  C   C199      1.0  0.05285  0.20451  0.29169  1.0000
  H   H342      1.0  0.04419  0.20984  0.30269  1.0000
  H   H343      1.0  0.00981  0.23050  0.42713  1.0000
  H   H344      1.0  0.31061  0.47196  0.43539  1.0000
  Fe  Fe32      1.0  0.27658  0.99709  0.34373  1.0000
  C   C200      1.0  0.05216  0.32042  0.43628  1.0000
  C   C201      1.0  0.07463  0.20908  0.29001  1.0000
  H   H345      1.0  0.08078  0.39286  0.44955  1.0000
  H   H346      1.0  0.05216  0.18811  0.29293  1.0000
  C   C202      1.0  0.31063  0.48004  0.40950  1.0000
  H   H347      1.0  0.29266  0.09162  0.33916  1.0000
  H   H348      1.0  0.25903  0.04847  0.34503  1.0000
  C   C203      1.0  0.11303  0.22838  0.27357  1.0000
  H   H349      1.0  0.09597  0.14972  0.29053  1.0000
  H   H350      1.0  0.31558  0.23374  0.24412  1.0000
  H   H351      1.0  0.08024  0.20264  0.30137  1.0000
  H   H352      1.0  0.02130  0.35475  0.40994  1.0000
  H   H353      1.0  0.12824  0.22970  0.27597  1.0000
  H   H354      1.0  0.22440  0.44499  0.39021  1.0000
  H   H355      1.0  0.04493  0.21283  0.28182  1.0000
  C   C204      1.0  0.26637  0.45106  0.40964  1.0000
  C   C205      1.0  0.23514  0.47992  0.23593  1.0000
  S   S65       1.0  0.30316  0.46170  0.32963  1.0000
  H   H356      1.0  0.03616  0.20413  0.41941  1.0000
  H   H357      1.0  0.16209  0.05093  0.22916  1.0000
  C   C206      1.0  0.01045  0.27819  0.42211  1.0000
  H   H358      1.0  0.05074  0.33275  0.39650  1.0000
  H   H359      1.0  0.20264  0.33304  0.29778  1.0000
  H   H360      1.0  0.04989  0.30466  0.43590  1.0000
  C   C207      1.0  0.30437  0.36879  0.30171  1.0000
  H   H361      1.0  0.09104  0.19470  0.24138  1.0000
  H   H362      1.0  0.11358  0.20068  0.28973  1.0000
  H   H363      1.0  0.06705  0.20896  0.26017  1.0000
  H   H364      1.0  0.01512  0.33288  0.42389  1.0000
  C   C208      1.0  0.29348  0.08178  0.32992  1.0000
  S   S66       1.0  0.00263  0.17421  0.38886  1.0000
  H   H365      1.0  0.31351  0.23291  0.26493  1.0000
  H   H366      1.0  0.24587  0.10565  0.31532  1.0000
  C   C209      1.0  0.29091  0.39343  0.32598  1.0000
  C   C210      1.0  0.02272  0.33801  0.41194  1.0000
  C   C211      1.0  0.08210  0.21261  0.26109  1.0000
  C   C212      1.0  0.09019  0.17934  0.27646  1.0000
  H   H367      1.0  0.10957  0.16771  0.29504  1.0000
  C   C213      1.0  0.98994  0.18004  0.45554  1.0000
  H   H368      1.0  0.29093  0.22760  0.23050  1.0000
  N   N16       1.0  0.08919  0.20175  0.27626  1.0000
  C   C214      1.0  0.99302  0.14722  0.41505  1.0000
  H   H369      1.0  0.07553  0.29579  0.40406  1.0000
  C   C215      1.0  0.18255  0.99793  0.40725  1.0000
  H   H370      1.0  0.28787  0.06581  0.36153  1.0000
  C   C216      1.0  0.19846  0.99032  0.39614  1.0000
  H   H371      1.0  0.15883  0.13928  0.22626  1.0000
  C   C217      1.0  0.04485  0.32763  0.40909  1.0000
  H   H372      1.0  0.20080  0.02480  0.45845  1.0000
  C   C218      1.0  0.05663  0.35373  0.42007  1.0000
  H   H373      1.0  0.07929  0.22934  0.26086  1.0000
  C   C219      1.0  0.30490  0.23209  0.25532  1.0000
  C   C220      1.0  0.25668  0.08874  0.33717  1.0000
  H   H374      1.0  0.01507  0.20160  0.41053  1.0000
  H   H375      1.0  0.09129  0.32595  0.42004  1.0000
  H   H376      1.0  0.08776  0.36078  0.41563  1.0000
  S   S67       1.0  0.17543  0.44448  0.43898  1.0000
  H   H377      1.0  0.03696  0.32765  0.44116  1.0000
  H   H378      1.0  0.08184  0.31829  0.44477  1.0000
  S   S68       1.0  0.04501  0.37452  0.46049  1.0000
  H   H379      1.0  0.27322  0.20739  0.24616  1.0000
  H   H380      1.0  0.04277  0.35909  0.42805  1.0000
  H   H381      1.0  0.06376  0.30584  0.45791  1.0000
  H   H382      1.0  0.04406  0.31120  0.40994  1.0000
  C   C221      1.0  0.07429  0.36174  0.42486  1.0000
  C   C222      1.0  0.28224  0.24303  0.22891  1.0000
  H   H383      1.0  0.28991  0.03775  0.31651  1.0000
  S   S69       1.0  0.28094  0.40792  0.34157  1.0000
  Fe  Fe33      1.0  0.31295  0.31974  0.28828  1.0000
  H   H384      1.0  0.14393  0.45634  0.40242  1.0000
  H   H385      1.0  0.25635  0.23414  0.22077  1.0000
  H   H386      1.0  0.15769  0.47746  0.38229  1.0000
  H   H387      1.0  0.11268  0.23414  0.26084  1.0000
  Fe  Fe34      1.0  0.15175  0.45949  0.45716  1.0000
  H   H388      1.0  0.24021  0.46337  0.23736  1.0000
  C   C223      1.0  0.09572  0.20749  0.24565  1.0000
  H   H389      1.0  0.25548  0.98617  0.42538  1.0000
  H   H390      1.0  0.09471  0.22096  0.23637  1.0000
  C   C224      1.0  0.15540  0.15556  0.22348  1.0000
  C   C225      1.0  0.21770  0.47439  0.39770  1.0000
  H   H391      1.0  0.28138  0.04858  0.29825  1.0000
  C   C226      1.0  0.13178  0.46654  0.40868  1.0000
  H   H392      1.0  0.99227  0.25035  0.44571  1.0000
  H   H393      1.0  0.29552  0.09183  0.31837  1.0000
  C   C227      1.0  0.28680  0.05226  0.30867  1.0000
  H   H394      1.0  0.05422  0.00012  0.45603  1.0000
  S   S70       1.0  0.99000  0.25785  0.34941  1.0000
  H   H395      1.0  0.30097  0.05867  0.30416  1.0000
  C   C228      1.0  0.31397  0.00861  0.37197  1.0000
  C   C229      1.0  0.16371  0.06667  0.22354  1.0000
  H   H396      1.0  0.20720  0.20337  0.21865  1.0000
  H   H397      1.0  0.99965  0.44077  0.45345  1.0000
  H   H398      1.0  0.07509  0.45257  0.44062  1.0000
  C   C230      1.0  0.19091  0.01413  0.45701  1.0000
  H   H399      1.0  0.06079  0.33298  0.45547  1.0000
  S   S71       1.0  0.02307  0.06523  0.46246  1.0000
  C   C231      1.0  0.06461  0.46044  0.44972  1.0000
  H   H400      1.0  0.03265  0.98764  0.45837  1.0000
  C   C232      1.0  0.17770  0.98659  0.42213  1.0000
  H   H401      1.0  0.17616  0.01886  0.46409  1.0000
  H   H402      1.0  0.17620  0.10431  0.21764  1.0000
  C   C233      1.0  0.22902  0.98960  0.44322  1.0000
  C   C234      1.0  0.19876  0.99177  0.46290  1.0000
  H   H403      1.0  0.22050  0.98246  0.43634  1.0000
  C   C235      1.0  0.05903  0.04050  0.46561  1.0000
  H   H404      1.0  0.27648  0.47639  0.43412  1.0000
  C   C236      1.0  0.04333  0.99224  0.46495  1.0000
  H   H405      1.0  0.00382  0.18498  0.45760  1.0000
  H   H406      1.0  0.26121  0.99051  0.44378  1.0000
  H   H407      1.0  0.15229  0.47878  0.41956  1.0000
  H   H408      1.0  0.06195  0.47664  0.44478  1.0000
  N   N17       1.0  0.22136  0.98589  0.46067  1.0000
  H   H409      1.0  0.98749  0.18276  0.43068  1.0000
  C   C237      1.0  0.26866  0.24332  0.21630  1.0000
  N   N18       1.0  0.02814  0.45998  0.46527  1.0000
  Fe  Fe35      1.0  0.02425  0.19663  0.60014  1.0000
  H   H410      1.0  0.16247  0.46319  0.59023  1.0000
  S   S72       1.0  0.05039  0.18725  0.61465  1.0000
  Fe  Fe36      1.0  0.00513  0.18898  0.57129  1.0000
  S   S73       1.0  0.01033  0.17529  0.54806  1.0000
  C   C238      1.0  0.99764  0.15787  0.54165  1.0000
  H   H411      1.0  0.18736  0.46600  0.50727  1.0000
  S   S74       1.0  0.02889  0.20706  0.57400  1.0000
  S   S75       1.0  0.00317  0.17577  0.59709  1.0000
  H   H412      1.0  0.05518  0.11246  0.51919  1.0000
  C   C239      1.0  0.03977  0.04745  0.47327  1.0000
  H   H413      1.0  0.22117  0.98527  0.49387  1.0000
  H   H414      1.0  0.99693  0.22672  0.65888  1.0000
  C   C240      1.0  0.04114  0.10734  0.52616  1.0000
  S   S76       1.0  0.99998  0.22236  0.60546  1.0000
  H   H415      1.0  0.00410  0.18058  0.69253  1.0000
  H   H416      1.0  0.19551  0.43946  0.61861  1.0000
  H   H417      1.0  0.02667  0.23691  0.50888  1.0000
  Fe  Fe37      1.0  0.09925  0.23108  0.67900  1.0000
  S   S77       1.0  0.10250  0.20644  0.69982  1.0000
  S   S78       1.0  0.07267  0.23608  0.66473  1.0000
  Fe  Fe38      1.0  0.13428  0.25130  0.68634  1.0000
  H   H418      1.0  0.14034  0.28206  0.71112  1.0000
  S   S79       1.0  0.15464  0.27582  0.67817  1.0000
  Fe  Fe39      1.0  0.13620  0.20521  0.69200  1.0000
  S   S80       1.0  0.16035  0.17872  0.68588  1.0000
  C   C241      1.0  0.21067  0.17452  0.71578  1.0000
  S   S81       1.0  0.13263  0.22866  0.67045  1.0000
  S   S82       1.0  0.10060  0.25607  0.69283  1.0000
  C   C242      1.0  0.22017  0.42972  0.59086  1.0000
  H   H419      1.0  0.04436  0.06762  0.50582  1.0000
  S   S83       1.0  0.08468  0.00236  0.50076  1.0000
  H   H420      1.0  0.18414  0.40737  0.62911  1.0000
  C   C243      1.0  0.02111  0.07950  0.53412  1.0000
  C   C244      1.0  0.01371  0.06116  0.52967  1.0000
  H   H421      1.0  0.02424  0.17254  0.66709  1.0000
  H   H422      1.0  0.24899  0.42799  0.59923  1.0000
  Fe  Fe40      1.0  0.22470  0.38852  0.69995  1.0000
  S   S84       1.0  0.23948  0.40374  0.67611  1.0000
  H   H423      1.0  0.05838  0.08767  0.50176  1.0000
  H   H424      1.0  0.23964  0.99777  0.66616  1.0000
  H   H425      1.0  0.02536  0.05062  0.52349  1.0000
  H   H426      1.0  0.24792  0.30028  0.70866  1.0000
  C   C245      1.0  0.18993  0.40964  0.61625  1.0000
  H   H427      1.0  0.05700  0.07438  0.54516  1.0000
  C   C246      1.0  0.04966  0.39524  0.48445  1.0000
  S   S85       1.0  0.26665  0.05920  0.67167  1.0000
  H   H428      1.0  0.99188  0.27542  0.48106  1.0000
  H   H429      1.0  0.20789  0.43724  0.56045  1.0000
  C   C247      1.0  0.07677  0.41561  0.48235  1.0000
  H   H430      1.0  0.02924  0.28427  0.53790  1.0000
  C   C248      1.0  0.22168  0.00021  0.48642  1.0000
  H   H431      1.0  0.20559  0.40151  0.61475  1.0000
  H   H432      1.0  0.00872  0.09243  0.53250  1.0000
  C   C249      1.0  0.00137  0.27825  0.55258  1.0000
  C   C250      1.0  0.18871  0.43255  0.61039  1.0000
  S   S86       1.0  0.25452  0.00629  0.58459  1.0000
  C   C251      1.0  0.26252  0.03981  0.66154  1.0000
  C   C252      1.0  0.25188  0.02406  0.66905  1.0000
  C   C253      1.0  0.24804  0.00976  0.66025  1.0000
  C   C254      1.0  0.25493  0.01082  0.64389  1.0000
  C   C255      1.0  0.26568  0.02648  0.63642  1.0000
  C   C256      1.0  0.26933  0.04091  0.64518  1.0000
  H   H433      1.0  0.24646  0.02301  0.68159  1.0000
  C   C257      1.0  0.16648  0.32190  0.70792  1.0000
  H   H434      1.0  0.27102  0.02760  0.62386  1.0000
  H   H435      1.0  0.27750  0.05304  0.63921  1.0000
  H   H436      1.0  0.24741  0.99165  0.46963  1.0000
  S   S87       1.0  0.08765  0.43263  0.49066  1.0000
  H   H437      1.0  0.03512  0.00345  0.47261  1.0000
  S   S88       1.0  0.13983  0.22775  0.70725  1.0000
  C   C258      1.0  0.23023  0.42487  0.66261  1.0000
  C   C259      1.0  0.24362  0.43239  0.64955  1.0000
  C   C260      1.0  0.23704  0.44899  0.63846  1.0000
  C   C261      1.0  0.21685  0.45817  0.64016  1.0000
  C   C262      1.0  0.20342  0.45059  0.65315  1.0000
  C   C263      1.0  0.21005  0.43412  0.66434  1.0000
  H   H438      1.0  0.25925  0.42538  0.64808  1.0000
  C   C264      1.0  0.02064  0.47675  0.49072  1.0000
  H   H439      1.0  0.18778  0.45755  0.65463  1.0000
  H   H440      1.0  0.19955  0.42853  0.67428  1.0000
  H   H441      1.0  0.99783  0.15237  0.67149  1.0000
  H   H442      1.0  0.21569  0.46328  0.52268  1.0000
  S   S89       1.0  0.24952  0.09727  0.70133  1.0000
  Fe  Fe41      1.0  0.00340  0.23193  0.57903  1.0000
  H   H443      1.0  0.04594  0.45411  0.48445  1.0000
  H   H444      1.0  0.02413  0.19526  0.68621  1.0000
  C   C265      1.0  0.16113  0.15238  0.71412  1.0000
  Fe  Fe42      1.0  0.11296  0.45100  0.47932  1.0000
  H   H445      1.0  0.03628  0.38965  0.49108  1.0000
  H   H446      1.0  0.08374  0.18045  0.63236  1.0000
  H   H447      1.0  0.20384  0.46592  0.57794  1.0000
  C   C266      1.0  0.16979  0.15704  0.69838  1.0000
  C   C267      1.0  0.18672  0.14416  0.69219  1.0000
  C   C268      1.0  0.01435  0.15991  0.64074  1.0000
  Fe  Fe43      1.0  0.25977  0.06478  0.69757  1.0000
  C   C269      1.0  0.05719  0.38979  0.46948  1.0000
  H   H448      1.0  0.19349  0.14773  0.68002  1.0000
  H   H449      1.0  0.20821  0.11722  0.69684  1.0000
  C   C270      1.0  0.01547  0.44379  0.47317  1.0000
  C   C271      1.0  0.15892  0.29335  0.68994  1.0000
  H   H450      1.0  0.17241  0.43898  0.61221  1.0000
  H   H451      1.0  0.23077  0.44837  0.60553  1.0000
  H   H452      1.0  0.01044  0.23452  0.54465  1.0000
  C   C272      1.0  0.17529  0.32213  0.69210  1.0000
  C   C273      1.0  0.17158  0.30789  0.68320  1.0000
  S   S90       1.0  0.98685  0.37157  0.48414  1.0000
  S   S91       1.0  0.20746  0.47877  0.62628  1.0000
  H   H453      1.0  0.18469  0.33348  0.68664  1.0000
  H   H454      1.0  0.17833  0.30832  0.67094  1.0000
  H   H455      1.0  0.02892  0.15850  0.64524  1.0000
  C   C274      1.0  0.03435  0.04012  0.48924  1.0000
  C   C275      1.0  0.04828  0.02630  0.49752  1.0000
  C   C276      1.0  0.06761  0.01953  0.48987  1.0000
  C   C277      1.0  0.03929  0.11294  0.54295  1.0000
  H   H456      1.0  0.24762  0.45466  0.62862  1.0000
  H   H457      1.0  0.01949  0.04522  0.49519  1.0000
  H   H458      1.0  0.04406  0.02079  0.50989  1.0000
  H   H459      1.0  0.20626  0.00900  0.48713  1.0000
  H   H460      1.0  0.22146  0.11579  0.66848  1.0000
  H   H461      1.0  0.02492  0.21455  0.53431  1.0000
  N   N19       1.0  0.22723  0.27819  0.71446  1.0000
  H   H462      1.0  0.24866  0.18367  0.70274  1.0000
  H   H463      1.0  0.03002  0.21476  0.71451  1.0000
  H   H464      1.0  0.18419  0.45415  0.56256  1.0000
  N   N20       1.0  0.99411  0.24002  0.51572  1.0000
  H   H465      1.0  0.99930  0.42037  0.46940  1.0000
  C   C278      1.0  0.02716  0.09610  0.49844  1.0000
  H   H466      1.0  0.23693  0.31818  0.68417  1.0000
  S   S92       1.0  0.14578  0.44552  0.48292  1.0000
  H   H467      1.0  0.03581  0.23613  0.53581  1.0000
  H   H468      1.0  0.00861  0.27482  0.49488  1.0000
  Fe  Fe44      1.0  0.01607  0.36054  0.46935  1.0000
  C   C279      1.0  0.24395  0.15814  0.69282  1.0000
  H   H469      1.0  0.16984  0.47813  0.60290  1.0000
  C   C280      1.0  0.99180  0.14148  0.51993  1.0000
  H   H470      1.0  0.03799  0.12966  0.54205  1.0000
  C   C281      1.0  0.05593  0.20044  0.62911  1.0000
  C   C282      1.0  0.04320  0.21760  0.63380  1.0000
  C   C283      1.0  0.04839  0.22796  0.64499  1.0000
  C   C284      1.0  0.06645  0.22149  0.65150  1.0000
  C   C285      1.0  0.07906  0.20419  0.64697  1.0000
  C   C286      1.0  0.07376  0.19371  0.63588  1.0000
  H   H471      1.0  0.02945  0.22302  0.62873  1.0000
  H   H472      1.0  0.03852  0.24130  0.64844  1.0000
  H   H473      1.0  0.09300  0.19902  0.65186  1.0000
  N   N21       1.0  0.99458  0.18372  0.66032  1.0000
  C   C287      1.0  0.19579  0.46087  0.58984  1.0000
  H   H474      1.0  0.17935  0.99243  0.55301  1.0000
  H   H475      1.0  0.01817  0.15935  0.62784  1.0000
  H   H476      1.0  0.00913  0.19218  0.63642  1.0000
  C   C288      1.0  0.20210  0.47386  0.52522  1.0000
  H   H477      1.0  0.01619  0.25855  0.51819  1.0000
  C   C289      1.0  0.00949  0.19274  0.68337  1.0000
  H   H478      1.0  0.20357  0.46695  0.59782  1.0000
  C   C290      1.0  0.99231  0.21773  0.51908  1.0000
  Fe  Fe45      1.0  0.10588  0.23131  0.71310  1.0000
  H   H479      1.0  0.05287  0.10647  0.54865  1.0000
  C   C291      1.0  0.29608  0.29884  0.70872  1.0000
  Fe  Fe46      1.0  0.14132  0.47772  0.48808  1.0000
  N   N22       1.0  0.06731  0.25754  0.59808  1.0000
  C   C292      1.0  0.06014  0.24118  0.59153  1.0000
  C   C293      1.0  0.04935  0.26821  0.60780  1.0000
  C   C294      1.0  0.08274  0.24721  0.60867  1.0000
  C   C295      1.0  0.07663  0.27158  0.58437  1.0000
  C   C296      1.0  0.07684  0.22631  0.58333  1.0000
  C   C297      1.0  0.03069  0.27608  0.59935  1.0000
  C   C298      1.0  0.08949  0.26012  0.61924  1.0000
  C   C299      1.0  0.07612  0.29368  0.58688  1.0000
  H   H480      1.0  0.05101  0.23196  0.60101  1.0000
  H   H481      1.0  0.04987  0.24783  0.58265  1.0000
  H   H482      1.0  0.05321  0.28128  0.61222  1.0000
  H   H483      1.0  0.04436  0.25796  0.61866  1.0000
  H   H484      1.0  0.07696  0.23425  0.61674  1.0000
  H   H485      1.0  0.09682  0.24049  0.60165  1.0000
  H   H486      1.0  0.09268  0.26541  0.58058  1.0000
  H   H487      1.0  0.06910  0.27266  0.57372  1.0000
  H   H488      1.0  0.08757  0.23426  0.57438  1.0000
  H   H489      1.0  0.08509  0.21563  0.59211  1.0000
  H   H490      1.0  0.25700  0.16004  0.68335  1.0000
  H   H491      1.0  0.03469  0.28347  0.58705  1.0000
  H   H492      1.0  0.02222  0.26354  0.59916  1.0000
  H   H493      1.0  0.02024  0.28733  0.60594  1.0000
  H   H494      1.0  0.09919  0.24991  0.62732  1.0000
  H   H495      1.0  0.07679  0.26758  0.62707  1.0000
  H   H496      1.0  0.09902  0.27111  0.61226  1.0000
  H   H497      1.0  0.06059  0.30222  0.58743  1.0000
  H   H498      1.0  0.08534  0.30147  0.57658  1.0000
  H   H499      1.0  0.08239  0.29496  0.59754  1.0000
  N   N23       1.0  0.20545  0.08606  0.65486  1.0000
  C   C300      1.0  0.22488  0.09493  0.65083  1.0000
  C   C301      1.0  0.21010  0.06410  0.65247  1.0000
  C   C302      1.0  0.19613  0.08727  0.67179  1.0000
  C   C303      1.0  0.19080  0.09799  0.64425  1.0000
  C   C304      1.0  0.21586  0.06007  0.63518  1.0000
  C   C305      1.0  0.20952  0.07652  0.68434  1.0000
  C   C306      1.0  0.17013  0.09064  0.64612  1.0000
  H   H500      1.0  0.23724  0.08474  0.65632  1.0000
  H   H501      1.0  0.23028  0.09619  0.63790  1.0000
  H   H502      1.0  0.19745  0.05567  0.65804  1.0000
  H   H503      1.0  0.22293  0.05624  0.65867  1.0000
  H   H504      1.0  0.19132  0.10330  0.67384  1.0000
  H   H505      1.0  0.18198  0.08041  0.67462  1.0000
  H   H506      1.0  0.18723  0.11400  0.64646  1.0000
  H   H507      1.0  0.19756  0.09928  0.63154  1.0000
  H   H508      1.0  0.20310  0.06530  0.62831  1.0000
  H   H509      1.0  0.22931  0.06693  0.62916  1.0000
  H   H510      1.0  0.21986  0.04347  0.63508  1.0000
  H   H511      1.0  0.22424  0.08203  0.68253  1.0000
  H   H512      1.0  0.21215  0.05985  0.68459  1.0000
  H   H513      1.0  0.20172  0.07957  0.69623  1.0000
  H   H514      1.0  0.15913  0.09805  0.65520  1.0000
  H   H515      1.0  0.17088  0.07406  0.64929  1.0000
  H   H516      1.0  0.16418  0.09440  0.63463  1.0000
  H   H517      1.0  0.00133  0.45042  0.48016  1.0000
  H   H518      1.0  0.21291  0.12766  0.64993  1.0000
  C   C307      1.0  0.01492  0.24234  0.51849  1.0000
  H   H519      1.0  0.00692  0.20844  0.51505  1.0000
  C   C308      1.0  0.05857  0.07307  0.53239  1.0000
  H   H520      1.0  0.02860  0.09070  0.48684  1.0000
  H   H521      1.0  0.18033  0.40262  0.61025  1.0000
  C   C309      1.0  0.22420  0.11606  0.65549  1.0000
  H   H522      1.0  0.20532  0.16329  0.71017  1.0000
  C   C310      1.0  0.15015  0.29309  0.70577  1.0000
  C   C311      1.0  0.25865  0.25045  0.71526  1.0000
  S   S93       1.0  0.21762  0.98259  0.56476  1.0000
  N   N24       1.0  0.04080  0.08537  0.52514  1.0000
  H   H523      1.0  0.02549  0.10860  0.55067  1.0000
  C   C312      1.0  0.00359  0.30215  0.52806  1.0000
  Fe  Fe47      1.0  0.99210  0.07955  0.47317  1.0000
  H   H524      1.0  0.06979  0.21691  0.57714  1.0000
  H   H525      1.0  0.02909  0.11230  0.49584  1.0000
  H   H526      1.0  0.22904  0.42284  0.61486  1.0000
  C   C313      1.0  0.05946  0.40801  0.49085  1.0000
  H   H527      1.0  0.22252  0.41322  0.59015  1.0000
  H   H528      1.0  0.01261  0.30947  0.51792  1.0000
  C   C314      1.0  0.19512  0.12691  0.70170  1.0000
  C   C315      1.0  0.21670  0.26678  0.70561  1.0000
  C   C316      1.0  0.17395  0.47235  0.59134  1.0000
  Fe  Fe48      1.0  0.25977  0.98656  0.60770  1.0000
  C   C317      1.0  0.01306  0.18663  0.66664  1.0000
  H   H529      1.0  0.06512  0.04652  0.51942  1.0000
  C   C318      1.0  0.23271  0.43250  0.60341  1.0000
  H   H530      1.0  0.30242  0.30122  0.69634  1.0000
  H   H531      1.0  0.02174  0.07655  0.54708  1.0000
  H   H532      1.0  0.24357  0.14168  0.69581  1.0000
  H   H533      1.0  0.05349  0.41215  0.50244  1.0000
  H   H534      1.0  0.18496  0.42936  0.55796  1.0000
  H   H535      1.0  0.98908  0.21275  0.53207  1.0000
  C   C319      1.0  0.07288  0.02653  0.47384  1.0000
  H   H536      1.0  0.21222  0.18786  0.70639  1.0000
  H   H537      1.0  0.19190  0.41291  0.58357  1.0000
  C   C320      1.0  0.99241  0.24827  0.49862  1.0000
  S   S94       1.0  0.01531  0.32762  0.47934  1.0000
  H   H538      1.0  0.99447  0.13993  0.50751  1.0000
  N   N25       1.0  0.19797  0.43815  0.59348  1.0000
  H   H539      1.0  0.07278  0.07900  0.52671  1.0000
  S   S95       1.0  0.01377  0.26150  0.56701  1.0000
  C   C321      1.0  0.06229  0.05015  0.53167  1.0000
  H   H540      1.0  0.21493  0.31784  0.69867  1.0000
  H   H541      1.0  0.22754  0.43676  0.57924  1.0000
  H   H542      1.0  0.99139  0.22226  0.64022  1.0000
  H   H543      1.0  0.99898  0.20708  0.68425  1.0000
  H   H544      1.0  0.02110  0.19815  0.65857  1.0000
  S   S96       1.0  0.19236  0.39386  0.71177  1.0000
  C   C322      1.0  0.19153  0.43820  0.56495  1.0000
  H   H545      1.0  0.00702  0.05217  0.54062  1.0000
  S   S97       1.0  0.28922  0.12000  0.71289  1.0000
  S   S98       1.0  0.24913  0.99262  0.63337  1.0000
  H   H546      1.0  0.07618  0.04333  0.53692  1.0000
  C   C323      1.0  0.01295  0.28784  0.53937  1.0000
  H   H547      1.0  0.23095  0.00848  0.49175  1.0000
  S   S99       1.0  0.14412  0.99571  0.48161  1.0000
  H   H548      1.0  0.17082  0.43168  0.58632  1.0000
  H   H549      1.0  0.01168  0.09475  0.50459  1.0000
  C   C324      1.0  0.00070  0.18013  0.64334  1.0000
  H   H550      1.0  0.00673  0.14661  0.64586  1.0000
  H   H551      1.0  0.02846  0.11720  0.52085  1.0000
  H   H552      1.0  0.22679  0.26161  0.69510  1.0000
  C   C325      1.0  0.18922  0.98305  0.54508  1.0000
  C   C326      1.0  0.15388  0.30731  0.71467  1.0000
  H   H553      1.0  0.01054  0.16488  0.51723  1.0000
  H   H554      1.0  0.27229  0.25802  0.71138  1.0000
  H   H555      1.0  0.23919  0.12102  0.65132  1.0000
  Fe  Fe49      1.0  0.28690  0.99415  0.57590  1.0000
  C   C327      1.0  0.02163  0.23117  0.53424  1.0000
  C   C328      1.0  0.04356  0.08340  0.50780  1.0000
  S   S100      1.0  0.22659  0.35438  0.70402  1.0000
  H   H556      1.0  0.04992  0.04254  0.53888  1.0000
  C   C329      1.0  0.00088  0.15564  0.52550  1.0000
  H   H557      1.0  0.25081  0.28355  0.69470  1.0000
  H   H558      1.0  0.21983  0.30109  0.68383  1.0000
  H   H559      1.0  0.23018  0.16569  0.68771  1.0000
  C   C330      1.0  0.18746  0.42963  0.58268  1.0000
  C   C331      1.0  0.23917  0.29223  0.70266  1.0000
  H   H560      1.0  0.27704  0.32803  0.70768  1.0000
  C   C332      1.0  0.28166  0.31401  0.71509  1.0000
  H   H561      1.0  0.02727  0.98971  0.49763  1.0000
  H   H562      1.0  0.20386  0.27696  0.70057  1.0000
  S   S101      1.0  0.30908  0.01278  0.55944  1.0000
  S   S102      1.0  0.98655  0.11216  0.47730  1.0000
  C   C333      1.0  0.22677  0.30813  0.69180  1.0000
  H   H563      1.0  0.04680  0.47823  0.47335  1.0000
  C   C334      1.0  0.08447  0.40996  0.46746  1.0000
  H   H564      1.0  0.01084  0.46595  0.49767  1.0000
  C   C335      1.0  0.03643  0.46703  0.47814  1.0000
  Fe  Fe50      1.0  0.11349  0.98569  0.48848  1.0000
  H   H565      1.0  0.00118  0.06640  0.52252  1.0000
  S   S103      1.0  0.28403  0.06083  0.71309  1.0000
  C   C336      1.0  0.18604  0.47537  0.51644  1.0000
  H   H566      1.0  0.16631  0.98376  0.53024  1.0000
  H   H567      1.0  0.19185  0.98776  0.47540  1.0000
  H   H568      1.0  0.30468  0.15747  0.70565  1.0000
  C   C337      1.0  0.99373  0.27107  0.49375  1.0000
  H   H569      1.0  0.02366  0.43272  0.48182  1.0000
  C   C338      1.0  0.23129  0.99825  0.46918  1.0000
  H   H570      1.0  0.00442  0.23982  0.49073  1.0000
  H   H571      1.0  0.26199  0.16002  0.71028  1.0000
  C   C339      1.0  0.24700  0.16752  0.70713  1.0000
  H   H572      1.0  0.19940  0.24212  0.70781  1.0000
  H   H573      1.0  0.25429  0.24605  0.70475  1.0000
  H   H574      1.0  0.08773  0.02141  0.46782  1.0000
  C   C340      1.0  0.20777  0.24835  0.71538  1.0000
  C   C341      1.0  0.98601  0.16594  0.67040  1.0000
  H   H575      1.0  0.98727  0.18116  0.63732  1.0000
  H   H576      1.0  0.18252  0.36651  0.81748  1.0000
  Fe  Fe51      1.0  0.01044  0.20954  0.80510  1.0000
  S   S104      1.0  0.03706  0.19192  0.79155  1.0000
  H   H577      1.0  0.25896  0.98291  0.76868  1.0000
  S   S105      1.0  0.00678  0.21378  0.83077  1.0000
  H   H578      1.0  0.16837  0.38021  0.83314  1.0000
  C   C342      1.0  0.01064  0.08523  0.87374  1.0000
  Fe  Fe52      1.0  0.03971  0.35171  0.87549  1.0000
  S   S106      1.0  0.04391  0.37847  0.85657  1.0000
  S   S107      1.0  0.04050  0.31895  0.87068  1.0000
  Fe  Fe53      1.0  0.03882  0.37782  0.90218  1.0000
  S   S108      1.0  0.04287  0.40606  0.88486  1.0000
  S   S109      1.0  0.03070  0.38253  0.92809  1.0000
  Fe  Fe54      1.0  0.02036  0.39647  0.87255  1.0000
  H   H579      1.0  0.00279  0.27816  0.75693  1.0000
  Fe  Fe55      1.0  0.06619  0.38575  0.87066  1.0000
  S   S110      1.0  0.09827  0.39094  0.85940  1.0000
  S   S111      1.0  0.01487  0.36931  0.89063  1.0000
  S   S112      1.0  0.06350  0.35789  0.88883  1.0000
  S   S113      1.0  0.19240  0.41544  0.75147  1.0000
  H   H580      1.0  0.19286  0.38535  0.82420  1.0000
  H   H581      1.0  0.21469  0.46574  0.74893  1.0000
  Fe  Fe56      1.0  0.17672  0.46635  0.85357  1.0000
  S   S114      1.0  0.20360  0.44243  0.85671  1.0000
  S   S115      1.0  0.14448  0.46303  0.86532  1.0000
  C   C343      1.0  0.99972  0.45280  0.87075  1.0000
  Fe  Fe57      1.0  0.21223  0.44987  0.83034  1.0000
  S   S116      1.0  0.22389  0.42494  0.81482  1.0000
  Fe  Fe58      1.0  0.22026  0.46770  0.85926  1.0000
  S   S117      1.0  0.23993  0.45997  0.87959  1.0000
  H   H582      1.0  0.99092  0.42130  0.94466  1.0000
  H   H583      1.0  0.12382  0.43459  0.80233  1.0000
  S   S118      1.0  0.17089  0.33911  0.71993  1.0000
  C   C344      1.0  0.25542  0.17162  0.73923  1.0000
  Fe  Fe59      1.0  0.26008  0.05126  0.73326  1.0000
  H   H584      1.0  0.01343  0.22179  0.76577  1.0000
  S   S119      1.0  0.26405  0.02096  0.74950  1.0000
  H   H585      1.0  0.15418  0.36265  0.80842  1.0000
  C   C345      1.0  0.13400  0.39645  0.81795  1.0000
  S   S120      1.0  0.25020  0.08280  0.73951  1.0000
  S   S121      1.0  0.23103  0.47313  0.83293  1.0000
  C   C346      1.0  0.24891  0.00239  0.80344  1.0000
  H   H586      1.0  0.19550  0.19597  0.73210  1.0000
  C   C347      1.0  0.25669  0.99410  0.77661  1.0000
  C   C348      1.0  0.25853  0.01435  0.77035  1.0000
  C   C349      1.0  0.25575  0.02860  0.78076  1.0000
  C   C350      1.0  0.25100  0.02262  0.79721  1.0000
  C   C351      1.0  0.00526  0.44493  0.94947  1.0000
  H   H587      1.0  0.07899  0.41465  0.90105  1.0000
  H   H588      1.0  0.25745  0.04416  0.77614  1.0000
  H   H589      1.0  0.24894  0.03373  0.80516  1.0000
  C   C352      1.0  0.21529  0.42288  0.79701  1.0000
  C   C353      1.0  0.22524  0.40764  0.78806  1.0000
  C   C354      1.0  0.21867  0.40533  0.77396  1.0000
  C   C355      1.0  0.20213  0.41838  0.76859  1.0000
  C   C356      1.0  0.19234  0.43381  0.77744  1.0000
  C   C357      1.0  0.19867  0.43585  0.79170  1.0000
  H   H590      1.0  0.23805  0.39744  0.79211  1.0000
  H   H591      1.0  0.22633  0.39336  0.76731  1.0000
  H   H592      1.0  0.17949  0.44395  0.77342  1.0000
  H   H593      1.0  0.19061  0.44729  0.79869  1.0000
  C   C358      1.0  0.00709  0.28759  0.84140  1.0000
  H   H594      1.0  0.15966  0.41305  0.78146  1.0000
  H   H595      1.0  0.07234  0.30711  0.82346  1.0000
  H   H596      1.0  0.00115  0.20749  0.86901  1.0000
  Fe  Fe60      1.0  0.23700  0.35544  0.72703  1.0000
  C   C359      1.0  0.04747  0.37870  0.94220  1.0000
  C   C360      1.0  0.06621  0.36638  0.94027  1.0000
  H   H597      1.0  0.07087  0.35907  0.92980  1.0000
  C   C361      1.0  0.11063  0.41139  0.86094  1.0000
  C   C362      1.0  0.13165  0.40981  0.85634  1.0000
  C   C363      1.0  0.14213  0.42570  0.85719  1.0000
  C   C364      1.0  0.13172  0.44327  0.86295  1.0000
  C   C365      1.0  0.11072  0.44480  0.86768  1.0000
  C   C366      1.0  0.10019  0.42899  0.86663  1.0000
  H   H598      1.0  0.13993  0.39609  0.85231  1.0000
  H   H599      1.0  0.15832  0.42421  0.85371  1.0000
  H   H600      1.0  0.10255  0.45834  0.87212  1.0000
  H   H601      1.0  0.08401  0.43048  0.87013  1.0000
  H   H602      1.0  0.18206  0.39966  0.79898  1.0000
  H   H603      1.0  0.29834  0.30837  0.76106  1.0000
  C   C367      1.0  0.00282  0.06608  0.88337  1.0000
  C   C368      1.0  0.04135  0.38760  0.95609  1.0000
  H   H604      1.0  0.13572  0.44264  0.89887  1.0000
  C   C369      1.0  0.26776  0.45700  0.90014  1.0000
  C   C370      1.0  0.00293  0.02896  0.90621  1.0000
  H   H605      1.0  0.22327  0.17903  0.74330  1.0000
  H   H606      1.0  0.26423  0.44181  0.90389  1.0000
  H   H607      1.0  0.04573  0.31094  0.82383  1.0000
  H   H608      1.0  0.19306  0.01288  0.78006  1.0000
  H   H609      1.0  0.25352  0.47700  0.78938  1.0000
  H   H610      1.0  0.02134  0.21886  0.87265  1.0000
  H   H611      1.0  0.19437  0.47704  0.78061  1.0000
  H   H612      1.0  0.31866  0.03060  0.84022  1.0000
  H   H613      1.0  0.19022  0.17031  0.73857  1.0000
  S   S122      1.0  0.24248  0.99572  0.82422  1.0000
  H   H614      1.0  0.02262  0.45622  0.89702  1.0000
  H   H615      1.0  0.13220  0.38618  0.93178  1.0000
  C   C371      1.0  0.25769  0.00254  0.86196  1.0000
  H   H616      1.0  0.25674  0.01288  0.85063  1.0000
  C   C372      1.0  0.28210  0.46377  0.90731  1.0000
  H   H617      1.0  0.22531  0.12374  0.75012  1.0000
  C   C373      1.0  0.17859  0.38141  0.82173  1.0000
  C   C374      1.0  0.02723  0.30743  0.85929  1.0000
  C   C375      1.0  0.03268  0.28658  0.85828  1.0000
  C   C376      1.0  0.02281  0.27675  0.84934  1.0000
  C   C377      1.0  0.19969  0.02397  0.74827  1.0000
  C   C378      1.0  0.29805  0.00869  0.84885  1.0000
  H   H618      1.0  0.21973  0.23609  0.71928  1.0000
  H   H619      1.0  0.04478  0.27802  0.86438  1.0000
  H   H620      1.0  0.02746  0.26082  0.84858  1.0000
  H   H621      1.0  0.13272  0.44306  0.92009  1.0000
  H   H622      1.0  0.07039  0.28169  0.77665  1.0000
  H   H623      1.0  0.99282  0.23521  0.90858  1.0000
  H   H624      1.0  0.00659  0.28704  0.79480  1.0000
  C   C379      1.0  0.07546  0.22707  0.75135  1.0000
  C   C380      1.0  0.06340  0.23696  0.76339  1.0000
  C   C381      1.0  0.05153  0.22628  0.77571  1.0000
  C   C382      1.0  0.05193  0.20553  0.77622  1.0000
  C   C383      1.0  0.06414  0.19554  0.76426  1.0000
  C   C384      1.0  0.07577  0.20633  0.75173  1.0000
  H   H625      1.0  0.06319  0.25297  0.76302  1.0000
  H   H626      1.0  0.04227  0.23400  0.78492  1.0000
  H   H627      1.0  0.06452  0.17945  0.76465  1.0000
  H   H628      1.0  0.08507  0.19863  0.74248  1.0000
  N   N26       1.0  0.19557  0.04450  0.77161  1.0000
  C   C385      1.0  0.20105  0.02492  0.78225  1.0000
  C   C386      1.0  0.20463  0.06143  0.77581  1.0000
  C   C387      1.0  0.20532  0.04157  0.75499  1.0000
  C   C388      1.0  0.17298  0.04919  0.77244  1.0000
  H   H629      1.0  0.99987  0.01396  0.91272  1.0000
  C   C389      1.0  0.19175  0.07408  0.78821  1.0000
  H   H630      1.0  0.15932  0.38818  0.90885  1.0000
  C   C390      1.0  0.16519  0.06718  0.76043  1.0000
  H   H631      1.0  0.00333  0.09850  0.87967  1.0000
  H   H632      1.0  0.21738  0.01911  0.77957  1.0000
  H   H633      1.0  0.20829  0.07274  0.76518  1.0000
  H   H634      1.0  0.21951  0.05546  0.77985  1.0000
  H   H635      1.0  0.20203  0.05556  0.74646  1.0000
  H   H636      1.0  0.98788  0.22225  0.76514  1.0000
  H   H637      1.0  0.16666  0.03582  0.77064  1.0000
  H   H638      1.0  0.16541  0.05180  0.78448  1.0000
  H   H639      1.0  0.29935  0.26410  0.74176  1.0000
  H   H640      1.0  0.03002  0.44544  0.91592  1.0000
  C   C391      1.0  0.27432  0.98411  0.85973  1.0000
  H   H641      1.0  0.18581  0.06486  0.79922  1.0000
  H   H642      1.0  0.20127  0.08401  0.79152  1.0000
  H   H643      1.0  0.17894  0.08419  0.78327  1.0000
  H   H644      1.0  0.24778  0.45760  0.93465  1.0000
  H   H645      1.0  0.00167  0.25074  0.87472  1.0000
  H   H646      1.0  0.22653  0.13542  0.71982  1.0000
  H   H647      1.0  0.16366  0.06203  0.74925  1.0000
  H   H648      1.0  0.17527  0.07888  0.75754  1.0000
  H   H649      1.0  0.15032  0.07487  0.76555  1.0000
  C   C392      1.0  0.01160  0.31826  0.85125  1.0000
  H   H650      1.0  0.14056  0.41008  0.92823  1.0000
  H   H651      1.0  0.21751  0.14917  0.75258  1.0000
  H   H652      1.0  0.10150  0.43429  0.90124  1.0000
  C   C393      1.0  0.00733  0.19563  0.75803  1.0000
  H   H653      1.0  0.13469  0.40850  0.78403  1.0000
  H   H654      1.0  0.25966  0.01120  0.87113  1.0000
  C   C394      1.0  0.24873  0.45512  0.94755  1.0000
  C   C395      1.0  0.11271  0.39477  0.81475  1.0000
  C   C396      1.0  0.98961  0.43193  0.91204  1.0000
  H   H655      1.0  0.24953  0.27309  0.73032  1.0000
  H   H656      1.0  0.01713  0.03170  0.90944  1.0000
  H   H657      1.0  0.26749  0.42629  0.94422  1.0000
  S   S123      1.0  0.19644  0.10028  0.72947  1.0000
  C   C397      1.0  0.15261  0.37527  0.79846  1.0000
  C   C398      1.0  0.16994  0.39821  0.80926  1.0000
  H   H658      1.0  0.25074  0.45118  0.78995  1.0000
  C   C399      1.0  0.15284  0.40066  0.90025  1.0000
  H   H659      1.0  0.20368  0.27910  0.73474  1.0000
  H   H660      1.0  0.12534  0.40992  0.89005  1.0000
  C   C400      1.0  0.17015  0.37099  0.78500  1.0000
  H   H661      1.0  0.26277  0.23610  0.72311  1.0000
  C   C401      1.0  0.23145  0.14380  0.72809  1.0000
  H   H662      1.0  0.11721  0.46068  0.90782  1.0000
  H   H663      1.0  0.14691  0.30702  0.72687  1.0000
  H   H664      1.0  0.98816  0.02738  0.88682  1.0000
  H   H665      1.0  0.19060  0.48072  0.75462  1.0000
  Fe  Fe61      1.0  0.20583  0.39268  0.73418  1.0000
  H   H666      1.0  0.99173  0.45414  0.95514  1.0000
  H   H667      1.0  0.02342  0.18968  0.75905  1.0000
  H   H668      1.0  0.02566  0.02693  0.84819  1.0000
  H   H669      1.0  0.00546  0.42620  0.90725  1.0000
  C   C402      1.0  0.00308  0.21870  0.75814  1.0000
  H   H670      1.0  0.01462  0.30334  0.77682  1.0000
  C   C403      1.0  0.30295  0.28104  0.71840  1.0000
  H   H671      1.0  0.00319  0.19074  0.74767  1.0000
  C   C404      1.0  0.30519  0.15227  0.71810  1.0000
  C   C405      1.0  0.03354  0.33172  0.96573  1.0000
  C   C406      1.0  0.00382  0.02872  0.88834  1.0000
  H   H672      1.0  0.16855  0.38203  0.77409  1.0000
  H   H673      1.0  0.00748  0.06035  0.85296  1.0000
  H   H674      1.0  0.09681  0.43540  0.92178  1.0000
  H   H675      1.0  0.99566  0.24310  0.85797  1.0000
  H   H676      1.0  0.04225  0.32107  0.76677  1.0000
  H   H677      1.0  0.29321  0.11364  0.74677  1.0000
  H   H678      1.0  0.18514  0.37073  0.78852  1.0000
  H   H679      1.0  0.17004  0.35582  0.78181  1.0000
  H   H680      1.0  0.06789  0.31955  0.77052  1.0000
  H   H681      1.0  0.98579  0.28163  0.87248  1.0000
  H   H682      1.0  0.28961  0.45371  0.91629  1.0000
  H   H683      1.0  0.03482  0.19849  0.73282  1.0000
  H   H684      1.0  0.16798  0.41258  0.81431  1.0000
  N   N27       1.0  0.01124  0.04640  0.87706  1.0000
  C   C407      1.0  0.05700  0.31116  0.76721  1.0000
  C   C408      1.0  0.00944  0.02857  0.85324  1.0000
  H   H685      1.0  0.16042  0.39777  0.88826  1.0000
  C   C409      1.0  0.03395  0.04323  0.87353  1.0000
  H   H686      1.0  0.09562  0.39293  0.89422  1.0000
  H   H687      1.0  0.02235  0.33751  0.95744  1.0000
  C   C410      1.0  0.31269  0.16396  0.72711  1.0000
  C   C411      1.0  0.04559  0.04425  0.88710  1.0000
  H   H688      1.0  0.27383  0.29080  0.75307  1.0000
  C   C412      1.0  0.21836  0.13848  0.74414  1.0000
  H   H689      1.0  0.01672  0.45476  0.94385  1.0000
  C   C413      1.0  0.99747  0.25375  0.74545  1.0000
  C   C414      1.0  0.03629  0.21341  0.72572  1.0000
  H   H690      1.0  0.23352  0.25473  0.73431  1.0000
  H   H691      1.0  0.03960  0.02805  0.86987  1.0000
  H   H692      1.0  0.03937  0.05388  0.86303  1.0000
  C   C415      1.0  0.12990  0.40090  0.90115  1.0000
  N   N28       1.0  0.00515  0.23223  0.74239  1.0000
  H   H693      1.0  0.00079  0.03042  0.84316  1.0000
  H   H694      1.0  0.02716  0.08438  0.87320  1.0000
  C   C416      1.0  0.31366  0.15734  0.74318  1.0000
  C   C417      1.0  0.00300  0.04740  0.86177  1.0000
  C   C418      1.0  0.19654  0.02548  0.80017  1.0000
  H   H695      1.0  0.15686  0.41506  0.90217  1.0000
  H   H696      1.0  0.01314  0.01414  0.88569  1.0000
  H   H697      1.0  0.04874  0.02907  0.89418  1.0000
  H   H698      1.0  0.03790  0.05526  0.89504  1.0000
  H   H699      1.0  0.06021  0.04957  0.88202  1.0000
  N   N29       1.0  0.04793  0.29248  0.79548  1.0000
  C   C419      1.0  0.04472  0.27172  0.80401  1.0000
  C   C420      1.0  0.02823  0.30661  0.79763  1.0000
  C   C421      1.0  0.06356  0.30062  0.80205  1.0000
  H   H700      1.0  0.04568  0.32085  0.96013  1.0000
  C   C422      1.0  0.06383  0.25572  0.80475  1.0000
  H   H701      1.0  0.99364  0.23855  0.72001  1.0000
  C   C423      1.0  0.05984  0.30091  0.82009  1.0000
  H   H702      1.0  0.06277  0.30790  0.75497  1.0000
  H   H703      1.0  0.03710  0.27251  0.81633  1.0000
  H   H704      1.0  0.03428  0.26524  0.79837  1.0000
  H   H705      1.0  0.03042  0.32261  0.79326  1.0000
  H   H706      1.0  0.02221  0.30636  0.81039  1.0000
  H   H707      1.0  0.07890  0.29209  0.79899  1.0000
  C   C424      1.0  0.24252  0.46691  0.78886  1.0000
  C   C425      1.0  0.99259  0.22750  0.73111  1.0000
  H   H708      1.0  0.23481  0.19454  0.72721  1.0000
  H   H709      1.0  0.07135  0.25260  0.79285  1.0000
  H   H710      1.0  0.07482  0.25990  0.81126  1.0000
  H   H711      1.0  0.05936  0.24121  0.81125  1.0000
  C   C426      1.0  0.01099  0.30208  0.78986  1.0000
  C   C427      1.0  0.00002  0.43278  0.93760  1.0000
  C   C428      1.0  0.31063  0.31639  0.76271  1.0000
  H   H712      1.0  0.05964  0.28560  0.82697  1.0000
  C   C429      1.0  0.05516  0.29094  0.77823  1.0000
  C   C430      1.0  0.23510  0.17845  0.73283  1.0000
  H   H713      1.0  0.29179  0.01094  0.83747  1.0000
  C   C431      1.0  0.29858  0.12764  0.74123  1.0000
  C   C432      1.0  0.29576  0.99940  0.88454  1.0000
  H   H714      1.0  0.03678  0.23108  0.74390  1.0000
  H   H715      1.0  0.25851  0.98224  0.91694  1.0000
  H   H716      1.0  0.20014  0.00986  0.80645  1.0000
  H   H717      1.0  0.99826  0.21257  0.72717  1.0000
  C   C433      1.0  0.21855  0.30461  0.73393  1.0000
  H   H718      1.0  0.02912  0.47177  0.90984  1.0000
  H   H719      1.0  0.00715  0.33426  0.85189  1.0000
  S   S124      1.0  0.25808  0.33096  0.74018  1.0000
  H   H720      1.0  0.12411  0.40445  0.95495  1.0000
  C   C434      1.0  0.02141  0.45873  0.90950  1.0000
  Fe  Fe62      1.0  0.22844  0.08562  0.72215  1.0000
  S   S125      1.0  0.99386  0.27616  0.82993  1.0000
  H   H721      1.0  0.22939  0.29699  0.74207  1.0000
  H   H722      1.0  0.16244  0.13120  0.73568  1.0000
  C   C435      1.0  0.18637  0.12210  0.71738  1.0000
  H   H723      1.0  0.24721  0.13615  0.72899  1.0000
  H   H724      1.0  0.10261  0.38086  0.92256  1.0000
  H   H725      1.0  0.01425  0.42364  0.93279  1.0000
  H   H726      1.0  0.00613  0.01443  0.86095  1.0000
  H   H727      1.0  0.28979  0.34465  0.76236  1.0000
  H   H728      1.0  0.01552  0.44653  0.86848  1.0000
  H   H729      1.0  0.10997  0.37877  0.81738  1.0000
  C   C436      1.0  0.30472  0.33886  0.75595  1.0000
  S   S126      1.0  0.18439  0.47230  0.82714  1.0000
  S   S127      1.0  0.23800  0.38902  0.72212  1.0000
  H   H730      1.0  0.02500  0.26702  0.74545  1.0000
  H   H731      1.0  0.10849  0.42470  0.94487  1.0000
  C   C437      1.0  0.02698  0.23126  0.73485  1.0000
  S   S128      1.0  0.08937  0.24160  0.73603  1.0000
  C   C438      1.0  0.14609  0.41199  0.79057  1.0000
  N   N30       1.0  0.15062  0.39546  0.80407  1.0000
  C   C439      1.0  0.12478  0.44474  0.90969  1.0000
  H   H732      1.0  0.14983  0.43832  0.80123  1.0000
  H   H733      1.0  0.13308  0.41030  0.82351  1.0000
  C   C440      1.0  0.12680  0.40279  0.92984  1.0000
  H   H734      1.0  0.99021  0.04022  0.91062  1.0000
  H   H735      1.0  0.10993  0.40081  0.80252  1.0000
  S   S129      1.0  0.20569  0.35929  0.74054  1.0000
  H   H736      1.0  0.22208  0.03897  0.75430  1.0000
  H   H737      1.0  0.30274  0.34083  0.74330  1.0000
  H   H738      1.0  0.01195  0.43421  0.95907  1.0000
  H   H739      1.0  0.24282  0.99724  0.86555  1.0000
  H   H740      1.0  0.13732  0.38388  0.82763  1.0000
  H   H741      1.0  0.13756  0.44437  0.78403  1.0000
  C   C441      1.0  0.07878  0.36315  0.95210  1.0000
  H   H742      1.0  0.12843  0.38499  0.90030  1.0000
  C   C442      1.0  0.11427  0.40830  0.94553  1.0000
  S   S130      1.0  0.99153  0.41601  0.86587  1.0000
  H   H743      1.0  0.13856  0.37382  0.79402  1.0000
  N   N31       1.0  0.11620  0.40821  0.91540  1.0000
  C   C443      1.0  0.10878  0.43060  0.91213  1.0000
  H   H744      1.0  0.25603  0.18052  0.74874  1.0000
  H   H745      1.0  0.20290  0.13694  0.74248  1.0000
  C   C444      1.0  0.13894  0.43343  0.79503  1.0000
  C   C445      1.0  0.29454  0.27799  0.73432  1.0000
  C   C446      1.0  0.99406  0.47275  0.87410  1.0000
  H   H746      1.0  0.10120  0.40384  0.82250  1.0000
  H   H747      1.0  0.25744  0.15544  0.74446  1.0000
  H   H748      1.0  0.04514  0.28287  0.77344  1.0000
  C   C447      1.0  0.16932  0.13484  0.72355  1.0000
  C   C448      1.0  0.27391  0.31133  0.73117  1.0000
  H   H749      1.0  0.00655  0.08858  0.86164  1.0000
  H   H750      1.0  0.09319  0.35345  0.95059  1.0000
  H   H751      1.0  0.30690  0.13403  0.76267  1.0000
  C   C449      1.0  0.09804  0.39731  0.91861  1.0000
  H   H752      1.0  0.00581  0.06576  0.89558  1.0000
  H   H753      1.0  0.08677  0.40301  0.92836  1.0000
  H   H754      1.0  0.07379  0.38974  0.90836  1.0000
  C   C450      1.0  0.28005  0.29309  0.74067  1.0000
  H   H755      1.0  0.28187  0.44594  0.94389  1.0000
  H   H756      1.0  0.17903  0.18582  0.72267  1.0000
  H   H757      1.0  0.22514  0.31679  0.72560  1.0000
  H   H758      1.0  0.18040  0.03081  0.80410  1.0000
  C   C451      1.0  0.08621  0.39896  0.90461  1.0000
  H   H759      1.0  0.27940  0.99970  0.88850  1.0000
  C   C452      1.0  0.23374  0.47179  0.77315  1.0000
  C   C453      1.0  0.26804  0.43977  0.94976  1.0000
  C   C454      1.0  0.25178  0.98815  0.79302  1.0000
  H   H760      1.0  0.02675  0.39689  0.95780  1.0000
  C   C455      1.0  0.00161  0.30840  0.84243  1.0000
  H   H761      1.0  0.06463  0.31654  0.79659  1.0000
  H   H762      1.0  0.19677  0.25257  0.72571  1.0000
  H   H763      1.0  0.28895  0.02048  0.85563  1.0000
  H   H764      1.0  0.20640  0.03462  0.80396  1.0000
  C   C456      1.0  0.01114  0.26356  0.75355  1.0000
  H   H765      1.0  0.22540  0.45918  0.77284  1.0000
  C   C457      1.0  0.25815  0.46952  0.88800  1.0000
  H   H766      1.0  0.05276  0.21391  0.72232  1.0000
  H   H767      1.0  0.99738  0.31337  0.79250  1.0000
  S   S131      1.0  0.99789  0.24170  0.79689  1.0000
  Fe  Fe63      1.0  0.27220  0.09272  0.71819  1.0000
  C   C458      1.0  0.21130  0.28969  0.72534  1.0000
  H   H768      1.0  0.30957  0.31586  0.77571  1.0000
  H   H769      1.0  0.27822  0.47894  0.94327  1.0000
  H   H770      1.0  0.31766  0.17814  0.72162  1.0000
  S   S132      1.0  0.31614  0.45970  0.95421  1.0000
  H   H771      1.0  0.20530  0.31219  0.74126  1.0000
  C   C459      1.0  0.29813  0.13404  0.72508  1.0000
  C   C460      1.0  0.19308  0.18192  0.72821  1.0000
  H   H772      1.0  0.23561  0.44737  0.95321  1.0000
  Fe  Fe64      1.0  0.99182  0.24542  0.82272  1.0000
  N   N32       1.0  0.29610  0.98769  0.85750  1.0000
  H   H773      1.0  0.18324  0.02534  0.74816  1.0000
  H   H774      1.0  0.99795  0.18816  0.76841  1.0000
  N   N33       1.0  0.24754  0.47504  0.95348  1.0000
  Fe  Fe65      1.0  0.19513  0.35969  0.71723  1.0000
  H   H775      1.0  0.00173  0.21314  0.88859  1.0000
  C   C461      1.0  0.24161  0.26420  0.72431  1.0000
  H   H776      1.0  0.19902  0.29838  0.71890  1.0000
  H   H777      1.0  0.10169  0.39936  0.94959  1.0000
  C   C462      1.0  0.99903  0.46321  0.91691  1.0000
  C   C463      1.0  0.00483  0.21857  0.87576  1.0000
  H   H778      1.0  0.00378  0.00407  0.96450  1.0000
  H   H779      1.0  0.31557  0.34850  0.75756  1.0000
  C   C464      1.0  0.99342  0.23996  0.87114  1.0000
  H   H780      1.0  0.02915  0.24511  0.72613  1.0000
  H   H781      1.0  0.24656  0.47018  0.76338  1.0000
  H   H782      1.0  0.01551  0.25405  0.76446  1.0000
  H   H783      1.0  0.20710  0.02421  0.73581  1.0000
  H   H784      1.0  0.20546  0.00904  0.75467  1.0000
  H   H785      1.0  0.14804  0.16218  0.71896  1.0000
  C   C465      1.0  0.30636  0.13922  0.75021  1.0000
  N   N34       1.0  0.98911  0.44504  0.92452  1.0000
  H   H786      1.0  0.30311  0.99477  0.89539  1.0000
  C   C466      1.0  0.30406  0.98385  0.87314  1.0000
  H   H787      1.0  0.26832  0.17466  0.72994  1.0000
  H   H788      1.0  0.98950  0.31703  0.83637  1.0000
  H   H789      1.0  0.31643  0.28356  0.78625  1.0000
  H   H790      1.0  0.99509  0.26397  0.73419  1.0000
  H   H791      1.0  0.29916  0.01478  0.87949  1.0000
  H   H792      1.0  0.99747  0.47455  0.92512  1.0000
  S   S133      1.0  0.23656  0.05350  0.71726  1.0000
  N   N35       1.0  0.23076  0.16591  0.72134  1.0000
  C   C467      1.0  0.20601  0.48125  0.74803  1.0000
  S   S134      1.0  0.31677  0.99993  0.96090  1.0000
  H   H793      1.0  0.31761  0.30976  0.73432  1.0000
  H   H794      1.0  0.99106  0.47180  0.90709  1.0000
  H   H795      1.0  0.21518  0.47656  0.96000  1.0000
  H   H796      1.0  0.23052  0.46762  0.79921  1.0000
  H   H797      1.0  0.98618  0.05007  0.86384  1.0000
  H   H798      1.0  0.26940  0.43431  0.96238  1.0000
  C   C468      1.0  0.07269  0.37211  0.96596  1.0000
  H   H799      1.0  0.98942  0.26030  0.89739  1.0000
  H   H800      1.0  0.22128  0.48091  0.92988  1.0000
  H   H801      1.0  0.26369  0.01059  0.96190  1.0000
  H   H802      1.0  0.98607  0.06878  0.88432  1.0000
  H   H803      1.0  0.98608  0.40238  0.92658  1.0000
  S   S135      1.0  0.12614  0.73762  0.18954  1.0000
  Fe  Fe66      1.0  0.09451  0.73274  0.20005  1.0000
  S   S136      1.0  0.06672  0.73876  0.18725  1.0000
  S   S137      1.0  0.00259  0.67738  0.12342  1.0000
  C   C469      1.0  0.21450  0.66772  0.21065  1.0000
  S   S138      1.0  0.01663  0.71140  0.09455  1.0000
  S   S139      1.0  0.99506  0.72492  0.12926  1.0000
  Fe  Fe67      1.0  0.99535  0.68783  0.09870  1.0000
  H   H804      1.0  0.25238  0.95129  0.09524  1.0000
  Fe  Fe68      1.0  0.02095  0.70274  0.12022  1.0000
  S   S140      1.0  0.05134  0.69942  0.12916  1.0000
  H   H805      1.0  0.99016  0.63463  0.18478  1.0000
  H   H806      1.0  0.99921  0.67706  0.15894  1.0000
  S   S141      1.0  0.23338  0.90805  0.19148  1.0000
  Fe  Fe69      1.0  0.18681  0.95819  0.11228  1.0000
  Fe  Fe70      1.0  0.31485  0.98058  0.98480  1.0000
  S   S142      1.0  0.18199  0.93459  0.13421  1.0000
  Fe  Fe71      1.0  0.21079  0.96571  0.07893  1.0000
  S   S143      1.0  0.23831  0.95057  0.06376  1.0000
  H   H807      1.0  0.02543  0.81252  0.98031  1.0000
  H   H808      1.0  0.99439  0.78840  0.13729  1.0000
  C   C470      1.0  0.24173  0.64820  0.18307  1.0000
  S   S144      1.0  0.18703  0.94598  0.08966  1.0000
  H   H809      1.0  0.29271  0.95150  0.01838  1.0000
  H   H810      1.0  0.01589  0.94303  0.00271  1.0000
  H   H811      1.0  0.22353  0.97189  0.02450  1.0000
  H   H812      1.0  0.22208  0.94652  0.99004  1.0000
  S   S145      1.0  0.24586  0.58703  0.18217  1.0000
  S   S146      1.0  0.21233  0.97598  0.10210  1.0000
  H   H813      1.0  0.98878  0.50187  0.02547  1.0000
  S   S147      1.0  0.28004  0.55076  0.19427  1.0000
  Fe  Fe72      1.0  0.27227  0.58406  0.19555  1.0000
  S   S148      1.0  0.29639  0.60490  0.18863  1.0000
  Fe  Fe73      1.0  0.25210  0.55282  0.18292  1.0000
  S   S149      1.0  0.25839  0.53126  0.16394  1.0000
  C   C471      1.0  0.03928  0.64810  0.14941  1.0000
  C   C472      1.0  0.22618  0.95894  0.98066  1.0000
  H   H814      1.0  0.21959  0.95388  0.01321  1.0000
  H   H815      1.0  0.08632  0.69576  0.14471  1.0000
  Fe  Fe74      1.0  0.04043  0.86367  0.05106  1.0000
  S   S150      1.0  0.07072  0.87199  0.03960  1.0000
  S   S151      1.0  0.04191  0.82900  0.05728  1.0000
  Fe  Fe75      1.0  0.02142  0.90858  0.04577  1.0000
  S   S152      1.0  0.05055  0.91958  0.03395  1.0000
  C   C473      1.0  0.99306  0.80486  0.08312  1.0000
  Fe  Fe76      1.0  0.05484  0.89262  0.02104  1.0000
  S   S153      1.0  0.06961  0.89262  0.99539  1.0000
  Fe  Fe77      1.0  0.06440  0.89810  0.05349  1.0000
  S   S154      1.0  0.09098  0.90034  0.06599  1.0000
  S   S155      1.0  0.02500  0.88295  0.03143  1.0000
  S   S156      1.0  0.03483  0.88857  0.06631  1.0000
  C   C474      1.0  0.05719  0.88754  0.98047  1.0000
  C   C475      1.0  0.03624  0.88826  0.98242  1.0000
  H   H816      1.0  0.00017  0.76945  0.12469  1.0000
  H   H817      1.0  0.02712  0.89215  0.99329  1.0000
  H   H818      1.0  0.26463  0.96138  0.10798  1.0000
  H   H819      1.0  0.27825  0.94109  0.09813  1.0000
  C   C476      1.0  0.99768  0.69783  0.17518  1.0000
  C   C477      1.0  0.06880  0.88251  0.96629  1.0000
  C   C478      1.0  0.22808  0.49839  0.13337  1.0000
  C   C479      1.0  0.31892  0.77805  0.21142  1.0000
  C   C480      1.0  0.25708  0.50237  0.14522  1.0000
  C   C481      1.0  0.24607  0.51898  0.15232  1.0000
  C   C482      1.0  0.22587  0.52502  0.15004  1.0000
  C   C483      1.0  0.21706  0.51493  0.14053  1.0000
  H   H820      1.0  0.98925  0.96424  0.01816  1.0000
  H   H821      1.0  0.21709  0.53769  0.15537  1.0000
  H   H822      1.0  0.20153  0.52004  0.13867  1.0000
  C   C484      1.0  0.12372  0.95293  0.07034  1.0000
  C   C485      1.0  0.10452  0.95700  0.06544  1.0000
  C   C486      1.0  0.09459  0.94118  0.06341  1.0000
  C   C487      1.0  0.10371  0.92103  0.06639  1.0000
  C   C488      1.0  0.12308  0.91699  0.07100  1.0000
  C   C489      1.0  0.13311  0.93281  0.07284  1.0000
  H   H823      1.0  0.00989  0.64349  0.16123  1.0000
  H   H824      1.0  0.07966  0.94454  0.05995  1.0000
  H   H825      1.0  0.13028  0.90146  0.07329  1.0000
  H   H826      1.0  0.14795  0.92944  0.07644  1.0000
  C   C490      1.0  0.28088  0.96063  0.02521  1.0000
  C   C491      1.0  0.26883  0.95139  0.03843  1.0000
  C   C492      1.0  0.25331  0.96301  0.04742  1.0000
  H   H827      1.0  0.05608  0.49893  0.02048  1.0000
  H   H828      1.0  0.27150  0.93513  0.04165  1.0000
  H   H829      1.0  0.29759  0.51147  0.04838  1.0000
  H   H830      1.0  0.03377  0.67599  0.20118  1.0000
  C   C493      1.0  0.28784  0.50014  0.04793  1.0000
  H   H831      1.0  0.27710  0.67022  0.21209  1.0000
  H   H832      1.0  0.01548  0.79857  0.00722  1.0000
  H   H833      1.0  0.22329  0.51814  0.09366  1.0000
  H   H834      1.0  0.00867  0.95388  0.06112  1.0000
  C   C494      1.0  0.21793  0.91586  0.17628  1.0000
  C   C495      1.0  0.22150  0.93307  0.16520  1.0000
  C   C496      1.0  0.21020  0.93943  0.15254  1.0000
  C   C497      1.0  0.19538  0.92842  0.15069  1.0000
  C   C498      1.0  0.19167  0.91132  0.16184  1.0000
  C   C499      1.0  0.20283  0.90508  0.17459  1.0000
  H   H835      1.0  0.23308  0.94156  0.16645  1.0000
  H   H836      1.0  0.21305  0.95275  0.14419  1.0000
  H   H837      1.0  0.18025  0.90268  0.16053  1.0000
  H   H838      1.0  0.19994  0.89181  0.18301  1.0000
  C   C500      1.0  0.11565  0.96097  0.12051  1.0000
  N   N36       1.0  0.25048  0.91276  0.11520  1.0000
  H   H839      1.0  0.25059  0.48660  0.97461  1.0000
  S   S157      1.0  0.16204  0.68803  0.19355  1.0000
  S   S158      1.0  0.13850  0.78418  0.20546  1.0000
  H   H840      1.0  0.25421  0.50104  0.10055  1.0000
  H   H841      1.0  0.28188  0.51632  0.10414  1.0000
  H   H842      1.0  0.05004  0.67223  0.16620  1.0000
  Fe  Fe78      1.0  0.98981  0.73281  0.10378  1.0000
  H   H843      1.0  0.23583  0.92660  0.09461  1.0000
  H   H844      1.0  0.24768  0.48542  0.08866  1.0000
  H   H845      1.0  0.02973  0.77955  0.01889  1.0000
  C   C501      1.0  0.27232  0.90565  0.08836  1.0000
  H   H846      1.0  0.27343  0.92931  0.00160  1.0000
  C   C502      1.0  0.26309  0.94708  0.10395  1.0000
  H   H847      1.0  0.25890  0.51516  0.05667  1.0000
  C   C503      1.0  0.01842  0.77711  0.07573  1.0000
  C   C504      1.0  0.03101  0.79118  0.06752  1.0000
  C   C505      1.0  0.02481  0.81217  0.06717  1.0000
  C   C506      1.0  0.00568  0.81894  0.07494  1.0000
  H   H848      1.0  0.15522  0.82134  0.19846  1.0000
  H   H849      1.0  0.02341  0.76105  0.07586  1.0000
  H   H850      1.0  0.04575  0.78573  0.06152  1.0000
  H   H851      1.0  0.24905  0.92742  0.99772  1.0000
  H   H852      1.0  0.21122  0.49411  0.17666  1.0000
  H   H853      1.0  0.00609  0.63208  0.06250  1.0000
  C   C507      1.0  0.16983  0.66201  0.19976  1.0000
  Fe  Fe79      1.0  0.31444  0.48347  0.96979  1.0000
  H   H854      1.0  0.10144  0.91083  0.96662  1.0000
  H   H855      1.0  0.26788  0.95126  0.97709  1.0000
  C   C508      1.0  0.19306  0.63109  0.19472  1.0000
  C   C509      1.0  0.18431  0.65102  0.18956  1.0000
  H   H856      1.0  0.19870  0.98125  0.98534  1.0000
  H   H857      1.0  0.22008  0.92760  0.11273  1.0000
  H   H858      1.0  0.20441  0.62291  0.18685  1.0000
  H   H859      1.0  0.18912  0.65817  0.17770  1.0000
  C   C510      1.0  0.05539  0.71028  0.14544  1.0000
  C   C511      1.0  0.04016  0.72332  0.15323  1.0000
  C   C512      1.0  0.04399  0.73201  0.16588  1.0000
  C   C513      1.0  0.06296  0.72748  0.17113  1.0000
  C   C514      1.0  0.07816  0.71427  0.16346  1.0000
  C   C515      1.0  0.07440  0.70582  0.15063  1.0000
  H   H860      1.0  0.02550  0.72694  0.14940  1.0000
  H   H861      1.0  0.03212  0.74217  0.17174  1.0000
  H   H862      1.0  0.09285  0.71067  0.16734  1.0000
  N   N37       1.0  0.12275  0.92174  0.12465  1.0000
  C   C516      1.0  0.13506  0.90473  0.11639  1.0000
  C   C517      1.0  0.10076  0.92040  0.12484  1.0000
  C   C518      1.0  0.12771  0.91868  0.14137  1.0000
  C   C519      1.0  0.12853  0.94143  0.11560  1.0000
  C   C520      1.0  0.15812  0.90195  0.11633  1.0000
  C   C521      1.0  0.09375  0.92231  0.10855  1.0000
  C   C522      1.0  0.11098  0.92634  0.15433  1.0000
  H   H863      1.0  0.28291  0.50330  0.03605  1.0000
  H   H864      1.0  0.12995  0.89000  0.12177  1.0000
  H   H865      1.0  0.13293  0.90688  0.10374  1.0000
  H   H866      1.0  0.09068  0.93222  0.13104  1.0000
  H   H867      1.0  0.09707  0.90571  0.13167  1.0000
  H   H868      1.0  0.13190  0.90227  0.14572  1.0000
  H   H869      1.0  0.14124  0.92567  0.14177  1.0000
  H   H870      1.0  0.14439  0.94268  0.11646  1.0000
  H   H871      1.0  0.12809  0.94203  0.10281  1.0000
  H   H872      1.0  0.16475  0.91515  0.10951  1.0000
  H   H873      1.0  0.16236  0.89901  0.12840  1.0000
  H   H874      1.0  0.16531  0.88867  0.11039  1.0000
  H   H875      1.0  0.10020  0.90896  0.10251  1.0000
  S   S159      1.0  0.23265  0.54691  0.20653  1.0000
  C   C523      1.0  0.26899  0.50114  0.06071  1.0000
  H   H876      1.0  0.10406  0.94220  0.15122  1.0000
  H   H877      1.0  0.11761  0.92546  0.16534  1.0000
  H   H878      1.0  0.09896  0.91655  0.15718  1.0000
  H   H879      1.0  0.30295  0.48840  0.09974  1.0000
  H   H880      1.0  0.25153  0.48885  0.01182  1.0000
  H   H881      1.0  0.00274  0.69858  0.18646  1.0000
  C   C524      1.0  0.02425  0.64566  0.16484  1.0000
  C   C525      1.0  0.30379  0.62040  0.20052  1.0000
  H   H882      1.0  0.22864  0.51285  0.07379  1.0000
  H   H883      1.0  0.24259  0.94060  0.12538  1.0000
  H   H884      1.0  0.27048  0.96497  0.99226  1.0000
  C   C526      1.0  0.28054  0.48719  0.19270  1.0000
  C   C527      1.0  0.99940  0.78386  0.08373  1.0000
  H   H885      1.0  0.09946  0.96172  0.11966  1.0000
  C   C528      1.0  0.30581  0.79373  0.20393  1.0000
  H   H886      1.0  0.05008  0.65147  0.18182  1.0000
  H   H887      1.0  0.03563  0.66286  0.14206  1.0000
  H   H888      1.0  0.28884  0.90298  0.08430  1.0000
  H   H889      1.0  0.01716  0.64265  0.19680  1.0000
  C   C529      1.0  0.26850  0.90057  0.10663  1.0000
  C   C530      1.0  0.99419  0.96176  0.05825  1.0000
  S   S160      1.0  0.21618  0.48668  0.12106  1.0000
  H   H890      1.0  0.02984  0.63102  0.17188  1.0000
  H   H891      1.0  0.01577  0.84256  0.03297  1.0000
  N   N38       1.0  0.03960  0.82851  0.00467  1.0000
  C   C531      1.0  0.05175  0.84083  0.01134  1.0000
  C   C532      1.0  0.01768  0.83763  0.00809  1.0000
  C   C533      1.0  0.04654  0.83014  0.98702  1.0000
  C   C534      1.0  0.04363  0.80692  0.01257  1.0000
  C   C535      1.0  0.07496  0.83585  0.00747  1.0000
  C   C536      1.0  0.25991  0.95675  0.98827  1.0000
  N   N39       1.0  0.24066  0.97070  0.98524  1.0000
  H   H892      1.0  0.06897  0.50746  0.03436  1.0000
  H   H893      1.0  0.04767  0.85724  0.00717  1.0000
  H   H894      1.0  0.04834  0.83918  0.02442  1.0000
  H   H895      1.0  0.19555  0.96102  0.97559  1.0000
  C   C537      1.0  0.03118  0.79190  0.00873  1.0000
  H   H896      1.0  0.05058  0.84543  0.98219  1.0000
  H   H897      1.0  0.06064  0.81939  0.98440  1.0000
  H   H898      1.0  0.05968  0.80040  0.00930  1.0000
  H   H899      1.0  0.04205  0.80596  0.02569  1.0000
  H   H900      1.0  0.08075  0.82032  0.01275  1.0000
  H   H901      1.0  0.08035  0.83830  0.99459  1.0000
  H   H902      1.0  0.08189  0.84633  0.01274  1.0000
  N   N40       1.0  0.23679  0.66030  0.21036  1.0000
  C   C538      1.0  0.23490  0.49372  0.19079  1.0000
  H   H903      1.0  0.25370  0.88480  0.15305  1.0000
  H   H904      1.0  0.26697  0.92141  0.08344  1.0000
  H   H905      1.0  0.27712  0.65990  0.19411  1.0000
  C   C539      1.0  0.05726  0.49855  0.03315  1.0000
  H   H906      1.0  0.98637  0.60653  0.05776  1.0000
  C   C540      1.0  0.24592  0.79717  0.21059  1.0000
  C   C541      1.0  0.23251  0.91765  0.10638  1.0000
  N   N41       1.0  0.27278  0.50095  0.07743  1.0000
  C   C542      1.0  0.03157  0.82689  0.97648  1.0000
  C   C543      1.0  0.25287  0.50024  0.08811  1.0000
  C   C544      1.0  0.28693  0.48175  0.08170  1.0000
  C   C545      1.0  0.28207  0.51945  0.07806  1.0000
  Fe  Fe80      1.0  0.12657  0.75376  0.21014  1.0000
  H   H907      1.0  0.07710  0.92289  0.11023  1.0000
  H   H908      1.0  0.09713  0.97250  0.06344  1.0000
  C   C546      1.0  0.27811  0.52783  0.09401  1.0000
  H   H909      1.0  0.99833  0.71292  0.16793  1.0000
  H   H910      1.0  0.30314  0.79310  0.19209  1.0000
  H   H911      1.0  0.10036  0.48835  0.03558  1.0000
  H   H912      1.0  0.03869  0.78516  0.99801  1.0000
  S   S161      1.0  0.31269  0.95253  0.97510  1.0000
  H   H913      1.0  0.98771  0.59027  0.01188  1.0000
  H   H914      1.0  0.29874  0.51653  0.07457  1.0000
  H   H915      1.0  0.27670  0.53237  0.06923  1.0000
  C   C547      1.0  0.24797  0.67772  0.20297  1.0000
  H   H916      1.0  0.04246  0.50621  0.03850  1.0000
  H   H917      1.0  0.24465  0.63398  0.17775  1.0000
  H   H918      1.0  0.99469  0.61406  0.01333  1.0000
  H   H919      1.0  0.24034  0.53193  0.07960  1.0000
  C   C548      1.0  0.00538  0.78297  0.12732  1.0000
  Fe  Fe81      1.0  0.22838  0.58073  0.20659  1.0000
  C   C549      1.0  0.99592  0.48765  0.03121  1.0000
  C   C550      1.0  0.29609  0.81025  0.21164  1.0000
  H   H920      1.0  0.26219  0.53497  0.09675  1.0000
  H   H921      1.0  0.27264  0.49738  0.14697  1.0000
  H   H922      1.0  0.01086  0.88436  0.97182  1.0000
  N   N42       1.0  0.04401  0.77336  0.11938  1.0000
  C   C551      1.0  0.02665  0.77777  0.13235  1.0000
  C   C552      1.0  0.06287  0.76655  0.12706  1.0000
  C   C553      1.0  0.03969  0.75621  0.11204  1.0000
  C   C554      1.0  0.04519  0.79226  0.10741  1.0000
  H   H923      1.0  0.26217  0.74843  0.21119  1.0000
  C   C555      1.0  0.06777  0.78134  0.13706  1.0000
  C   C556      1.0  0.05618  0.74768  0.09939  1.0000
  C   C557      1.0  0.06574  0.79432  0.09688  1.0000
  H   H924      1.0  0.02625  0.76473  0.14207  1.0000
  H   H925      1.0  0.02853  0.79084  0.13789  1.0000
  H   H926      1.0  0.07648  0.76328  0.11835  1.0000
  H   H927      1.0  0.06188  0.75187  0.13492  1.0000
  H   H928      1.0  0.03645  0.74326  0.12135  1.0000
  H   H929      1.0  0.02589  0.76076  0.10626  1.0000
  H   H930      1.0  0.03359  0.79397  0.09946  1.0000
  H   H931      1.0  0.04143  0.80591  0.11353  1.0000
  H   H932      1.0  0.23265  0.63103  0.20554  1.0000
  H   H933      1.0  0.21426  0.89315  0.11489  1.0000
  H   H934      1.0  0.25905  0.90997  0.14850  1.0000
  H   H935      1.0  0.08344  0.77652  0.13979  1.0000
  H   H936      1.0  0.06673  0.79706  0.13078  1.0000
  H   H937      1.0  0.05777  0.78090  0.14862  1.0000
  H   H938      1.0  0.05135  0.73441  0.09595  1.0000
  H   H939      1.0  0.07078  0.74198  0.10380  1.0000
  H   H940      1.0  0.05795  0.75876  0.08848  1.0000
  H   H941      1.0  0.06290  0.80242  0.08501  1.0000
  H   H942      1.0  0.07561  0.77999  0.09487  1.0000
  H   H943      1.0  0.07409  0.80414  0.10159  1.0000
  N   N43       1.0  0.02071  0.66276  0.17462  1.0000
  C   C558      1.0  0.00837  0.65583  0.19015  1.0000
  H   H944      1.0  0.24096  0.88543  0.12932  1.0000
  C   C559      1.0  0.24260  0.64283  0.20097  1.0000
  C   C560      1.0  0.01009  0.68143  0.16552  1.0000
  H   H945      1.0  0.00781  0.83114  0.00199  1.0000
  C   C561      1.0  0.23545  0.51688  0.08339  1.0000
  H   H946      1.0  0.21117  0.67569  0.19884  1.0000
  H   H947      1.0  0.12073  0.97406  0.11217  1.0000
  H   H948      1.0  0.05739  0.68114  0.19030  1.0000
  H   H949      1.0  0.22942  0.90795  0.13679  1.0000
  H   H950      1.0  0.00495  0.66752  0.19810  1.0000
  H   H951      1.0  0.25354  0.65737  0.17700  1.0000
  H   H952      1.0  0.28757  0.53987  0.09322  1.0000
  H   H953      1.0  0.02668  0.95924  0.01184  1.0000
  H   H954      1.0  0.25806  0.63485  0.20245  1.0000
  H   H955      1.0  0.03851  0.63619  0.14226  1.0000
  H   H956      1.0  0.29281  0.49532  0.19417  1.0000
  H   H957      1.0  0.09714  0.93638  0.10071  1.0000
  H   H958      1.0  0.24328  0.68452  0.19128  1.0000
  C   C562      1.0  0.04111  0.66614  0.17745  1.0000
  C   C563      1.0  0.22353  0.89924  0.10386  1.0000
  H   H959      1.0  0.26586  0.89515  0.08276  1.0000
  C   C564      1.0  0.25578  0.93224  0.11844  1.0000
  H   H960      1.0  0.05510  0.64620  0.15177  1.0000
  C   C565      1.0  0.24396  0.90051  0.13095  1.0000
  H   H961      1.0  0.22671  0.65613  0.18052  1.0000
  H   H962      1.0  0.25965  0.50762  0.20622  1.0000
  H   H963      1.0  0.28603  0.82221  0.20575  1.0000
  H   H964      1.0  0.02096  0.68878  0.15626  1.0000
  H   H965      1.0  0.26691  0.88420  0.10910  1.0000
  C   C566      1.0  0.00820  0.83523  0.02567  1.0000
  H   H966      1.0  0.00454  0.79513  0.11705  1.0000
  S   S162      1.0  0.99735  0.66453  0.08143  1.0000
  H   H967      1.0  0.03530  0.69647  0.18461  1.0000
  Fe  Fe82      1.0  0.13607  0.70896  0.20551  1.0000
  S   S163      1.0  0.13478  0.97337  0.07393  1.0000
  C   C567      1.0  0.24812  0.49200  0.13602  1.0000
  H   H968      1.0  0.21327  0.90413  0.09477  1.0000
  H   H969      1.0  0.27757  0.68620  0.19358  1.0000
  C   C568      1.0  0.26287  0.49097  0.20604  1.0000
  C   C569      1.0  0.21879  0.97026  0.01319  1.0000
  H   H970      1.0  0.28255  0.90176  0.11119  1.0000
  H   H971      1.0  0.99183  0.59555  0.03038  1.0000
  C   C570      1.0  0.98797  0.64962  0.18886  1.0000
  C   C571      1.0  0.04142  0.68078  0.18914  1.0000
  H   H972      1.0  0.27438  0.89024  0.13798  1.0000
  H   H973      1.0  0.26093  0.48835  0.06013  1.0000
  H   H974      1.0  0.20584  0.65489  0.21313  1.0000
  H   H975      1.0  0.26817  0.92923  0.12578  1.0000
  C   C572      1.0  0.25805  0.93792  0.00082  1.0000
  H   H976      1.0  0.20272  0.97738  0.01388  1.0000
  C   C573      1.0  0.25888  0.89628  0.14311  1.0000
  H   H977      1.0  0.23306  0.51043  0.19050  1.0000
  S   S164      1.0  0.99035  0.92778  0.04560  1.0000
  C   C574      1.0  0.99588  0.97109  0.00625  1.0000
  H   H978      1.0  0.01562  0.85410  0.00335  1.0000
  S   S165      1.0  0.10426  0.70308  0.21482  1.0000
  C   C575      1.0  0.15555  0.79361  0.21485  1.0000
  H   H979      1.0  0.23529  0.88707  0.09967  1.0000
  Fe  Fe83      1.0  0.16413  0.97296  0.08370  1.0000
  S   S166      1.0  0.28641  0.48943  0.98794  1.0000
  H   H980      1.0  0.27741  0.76691  0.21188  1.0000
  H   H981      1.0  0.11774  0.96315  0.13245  1.0000
  H   H982      1.0  0.27651  0.49321  0.18078  1.0000
  H   H983      1.0  0.25714  0.79228  0.20060  1.0000
  H   H984      1.0  0.00065  0.83501  0.07478  1.0000
  H   H985      1.0  0.24511  0.49093  0.17979  1.0000
  H   H986      1.0  0.25224  0.94203  0.01275  1.0000
  H   H987      1.0  0.23326  0.80726  0.20535  1.0000
  C   C576      1.0  0.27122  0.67289  0.20063  1.0000
  S   S167      1.0  0.23821  0.85049  0.21396  1.0000
  C   C577      1.0  0.99074  0.63195  0.06837  1.0000
  H   H988      1.0  0.00805  0.81913  0.03086  1.0000
  H   H989      1.0  0.01903  0.83979  0.97577  1.0000
  C   C578      1.0  0.20614  0.97148  0.97634  1.0000
  C   C579      1.0  0.16352  0.65258  0.21500  1.0000
  C   C580      1.0  0.18721  0.62189  0.21013  1.0000
  H   H990      1.0  0.24399  0.69019  0.21029  1.0000
  C   C581      1.0  0.16100  0.81287  0.20891  1.0000
  C   C582      1.0  0.01722  0.95917  0.00261  1.0000
  N   N44       1.0  0.24374  0.48293  0.20533  1.0000
  H   H991      1.0  0.17756  0.83628  0.21178  1.0000
  H   H992      1.0  0.99033  0.63394  0.03238  1.0000
  Fe  Fe84      1.0  0.23043  0.88438  0.21370  1.0000
  H   H993      1.0  0.02496  0.96466  0.99075  1.0000
  H   H994      1.0  0.29680  0.48477  0.04871  1.0000
  C   C583      1.0  0.02706  0.88394  0.97023  1.0000
  H   H995      1.0  0.20185  0.49661  0.19682  1.0000
  H   H996      1.0  0.23125  0.77064  0.21413  1.0000
  H   H997      1.0  0.99223  0.84272  0.02665  1.0000
  H   H998      1.0  0.98805  0.65493  0.01621  1.0000
  C   C584      1.0  0.21422  0.48863  0.18900  1.0000
  C   C585      1.0  0.99183  0.48268  0.04764  1.0000
  H   H999      1.0  0.23353  0.95115  0.97034  1.0000
  C   C586      1.0  0.31895  0.63234  0.19392  1.0000
  H   H1000     1.0  0.98673  0.96732  0.99804  1.0000
  Fe  Fe85      1.0  0.00190  0.74210  0.32636  1.0000
  S   S168      1.0  0.02018  0.75495  0.30329  1.0000
  C   C587      1.0  0.23755  0.77922  0.22156  1.0000
  H   H1001     1.0  0.04794  0.71713  0.30904  1.0000
  C   C588      1.0  0.99809  0.76472  0.44308  1.0000
  S   S169      1.0  0.00820  0.73553  0.35164  1.0000
  H   H1002     1.0  0.29640  0.89427  0.29876  1.0000
  H   H1003     1.0  0.13001  0.79545  0.28783  1.0000
  Fe  Fe86      1.0  0.10562  0.72212  0.23350  1.0000
  H   H1004     1.0  0.06895  0.55215  0.43516  1.0000
  S   S170      1.0  0.09499  0.71246  0.25968  1.0000
  H   H1005     1.0  0.15647  0.52921  0.39409  1.0000
  H   H1006     1.0  0.01670  0.84719  0.37354  1.0000
  H   H1007     1.0  0.11118  0.53574  0.39623  1.0000
  H   H1008     1.0  0.29075  0.90254  0.26834  1.0000
  Fe  Fe87      1.0  0.01173  0.84296  0.43016  1.0000
  S   S171      1.0  0.02211  0.81951  0.41303  1.0000
  Fe  Fe88      1.0  0.02429  0.87789  0.44417  1.0000
  C   C589      1.0  0.18905  0.96762  0.42591  1.0000
  S   S172      1.0  0.04506  0.90206  0.44189  1.0000
  S   S173      1.0  0.11411  0.97395  0.46569  1.0000
  H   H1009     1.0  0.23462  0.79812  0.24700  1.0000
  S   S174      1.0  0.02768  0.84383  0.45098  1.0000
  S   S175      1.0  0.01125  0.87638  0.42215  1.0000
  H   H1010     1.0  0.21833  0.76787  0.25548  1.0000
  H   H1011     1.0  0.27297  0.78531  0.23316  1.0000
  Fe  Fe89      1.0  0.24834  0.97949  0.32607  1.0000
  H   H1012     1.0  0.20444  0.67438  0.23504  1.0000
  S   S176      1.0  0.20372  0.88274  0.23324  1.0000
  Fe  Fe90      1.0  0.25781  0.85134  0.23217  1.0000
  S   S177      1.0  0.23296  0.84814  0.25254  1.0000
  S   S178      1.0  0.28753  0.83164  0.23715  1.0000
  Fe  Fe91      1.0  0.21279  0.84868  0.23435  1.0000
  S   S179      1.0  0.19563  0.82128  0.24093  1.0000
  Fe  Fe92      1.0  0.22636  0.88222  0.24986  1.0000
  S   S180      1.0  0.22118  0.89646  0.27309  1.0000
  C   C590      1.0  0.13776  0.91600  0.41412  1.0000
  S   S181      1.0  0.25245  0.88532  0.23039  1.0000
  C   C591      1.0  0.12194  0.90524  0.42592  1.0000
  H   H1013     1.0  0.01786  0.66131  0.43870  1.0000
  S   S182      1.0  0.27253  0.51884  0.23437  1.0000
  H   H1014     1.0  0.09296  0.76440  0.25399  1.0000
  S   S183      1.0  0.25041  0.96574  0.30291  1.0000
  C   C592      1.0  0.28364  0.89047  0.26522  1.0000
  S   S184      1.0  0.26689  0.96639  0.34578  1.0000
  H   H1015     1.0  0.12634  0.49694  0.38227  1.0000
  S   S185      1.0  0.26905  0.51308  0.30881  1.0000
  H   H1016     1.0  0.06342  0.79481  0.28632  1.0000
  S   S186      1.0  0.98631  0.71496  0.32818  1.0000
  C   C593      1.0  0.17212  0.63257  0.22012  1.0000
  H   H1017     1.0  0.98806  0.74120  0.29428  1.0000
  H   H1018     1.0  0.15111  0.53751  0.42051  1.0000
  C   C594      1.0  0.11044  0.51940  0.39677  1.0000
  S   S187      1.0  0.23189  0.48707  0.38106  1.0000
  H   H1019     1.0  0.13189  0.93396  0.44313  1.0000
  H   H1020     1.0  0.11565  0.79823  0.23537  1.0000
  H   H1021     1.0  0.31576  0.79657  0.24607  1.0000
  C   C595      1.0  0.27006  0.51686  0.25522  1.0000
  H   H1022     1.0  0.99680  0.62302  0.41038  1.0000
  H   H1023     1.0  0.03102  0.49358  0.43585  1.0000
  C   C596      1.0  0.26876  0.51348  0.28836  1.0000
  C   C597      1.0  0.25899  0.53087  0.27979  1.0000
  C   C598      1.0  0.25948  0.53251  0.26332  1.0000
  H   H1024     1.0  0.00068  0.48198  0.46442  1.0000
  C   C599      1.0  0.98692  0.80650  0.40861  1.0000
  H   H1025     1.0  0.25103  0.54317  0.28597  1.0000
  H   H1026     1.0  0.25186  0.54594  0.25689  1.0000
  H   H1027     1.0  0.00864  0.71269  0.29624  1.0000
  H   H1028     1.0  0.29682  0.54290  0.26465  1.0000
  C   C600      1.0  0.20494  0.95997  0.41479  1.0000
  C   C601      1.0  0.10144  0.79326  0.24195  1.0000
  H   H1029     1.0  0.15462  0.78960  0.27720  1.0000
  H   H1030     1.0  0.01553  0.64693  0.39081  1.0000
  H   H1031     1.0  0.18542  0.95876  0.43730  1.0000
  H   H1032     1.0  0.21352  0.94518  0.41771  1.0000
  C   C602      1.0  0.22848  0.91673  0.28082  1.0000
  C   C603      1.0  0.22295  0.91825  0.29707  1.0000
  C   C604      1.0  0.22927  0.93314  0.30402  1.0000
  C   C605      1.0  0.24126  0.94691  0.29481  1.0000
  C   C606      1.0  0.24665  0.94549  0.27853  1.0000
  C   C607      1.0  0.24031  0.93063  0.27159  1.0000
  H   H1033     1.0  0.21381  0.90769  0.30441  1.0000
  H   H1034     1.0  0.22492  0.93391  0.31652  1.0000
  H   H1035     1.0  0.25581  0.95605  0.27121  1.0000
  H   H1036     1.0  0.24457  0.92997  0.25907  1.0000
  C   C608      1.0  0.00337  0.73148  0.24808  1.0000
  C   C609      1.0  0.23155  0.63511  0.23617  1.0000
  C   C610      1.0  0.21976  0.94842  0.45901  1.0000
  H   H1037     1.0  0.03286  0.77806  0.44226  1.0000
  H   H1038     1.0  0.00675  0.74365  0.26886  1.0000
  H   H1039     1.0  0.17716  0.92485  0.43774  1.0000
  C   C611      1.0  0.20692  0.48563  0.40950  1.0000
  H   H1040     1.0  0.30903  0.53809  0.21834  1.0000
  H   H1041     1.0  0.21423  0.48287  0.21965  1.0000
  S   S188      1.0  0.14917  0.49123  0.46253  1.0000
  H   H1042     1.0  0.14981  0.94999  0.43557  1.0000
  H   H1043     1.0  0.02081  0.71011  0.27632  1.0000
  H   H1044     1.0  0.30101  0.59581  0.24620  1.0000
  C   C612      1.0  0.06460  0.90529  0.45220  1.0000
  C   C613      1.0  0.17636  0.93043  0.40079  1.0000
  C   C614      1.0  0.07233  0.92378  0.44877  1.0000
  H   H1045     1.0  0.27604  0.91231  0.29109  1.0000
  H   H1046     1.0  0.06622  0.93558  0.44005  1.0000
  H   H1047     1.0  0.16678  0.51067  0.36654  1.0000
  C   C615      1.0  0.99409  0.87497  0.37546  1.0000
  C   C616      1.0  0.17537  0.79157  0.23613  1.0000
  C   C617      1.0  0.18072  0.81089  0.23024  1.0000
  C   C618      1.0  0.24213  0.74850  0.24151  1.0000
  H   H1048     1.0  0.27152  0.86802  0.30338  1.0000
  H   H1049     1.0  0.15937  0.76788  0.23285  1.0000
  H   H1050     1.0  0.18057  0.78342  0.24688  1.0000
  C   C619      1.0  0.15681  0.94486  0.40532  1.0000
  H   H1051     1.0  0.26117  0.82876  0.28204  1.0000
  C   C620      1.0  0.00764  0.80657  0.40379  1.0000
  C   C621      1.0  0.01724  0.79605  0.39122  1.0000
  C   C622      1.0  0.00626  0.78606  0.38328  1.0000
  H   H1052     1.0  0.06310  0.96362  0.46579  1.0000
  H   H1053     1.0  0.29380  0.63502  0.23716  1.0000
  H   H1054     1.0  0.15238  0.66087  0.22296  1.0000
  H   H1055     1.0  0.03328  0.79582  0.38745  1.0000
  H   H1056     1.0  0.01385  0.77832  0.37348  1.0000
  H   H1057     1.0  0.01456  0.63734  0.43463  1.0000
  C   C623      1.0  0.03961  0.74160  0.29094  1.0000
  C   C624      1.0  0.04422  0.74992  0.27499  1.0000
  C   C625      1.0  0.06053  0.74066  0.26503  1.0000
  C   C626      1.0  0.07271  0.72320  0.27105  1.0000
  C   C627      1.0  0.06784  0.71464  0.28691  1.0000
  C   C628      1.0  0.05127  0.72367  0.29678  1.0000
  H   H1058     1.0  0.03533  0.76384  0.27037  1.0000
  H   H1059     1.0  0.06397  0.74731  0.25282  1.0000
  H   H1060     1.0  0.07716  0.70111  0.29167  1.0000
  C   C629      1.0  0.27106  0.85815  0.27409  1.0000
  H   H1061     1.0  0.25250  0.80642  0.21718  1.0000
  H   H1062     1.0  0.01859  0.73591  0.24381  1.0000
  C   C630      1.0  0.27957  0.49934  0.26379  1.0000
  H   H1063     1.0  0.27884  0.85117  0.26365  1.0000
  H   H1064     1.0  0.25654  0.86638  0.27046  1.0000
  H   H1065     1.0  0.26800  0.89751  0.26334  1.0000
  Fe  Fe93      1.0  0.14598  0.98091  0.45989  1.0000
  H   H1066     1.0  0.25256  0.84630  0.29584  1.0000
  C   C631      1.0  0.06191  0.54405  0.44594  1.0000
  Fe  Fe94      1.0  0.26030  0.54622  0.21770  1.0000
  C   C632      1.0  0.16359  0.48807  0.38822  1.0000
  C   C633      1.0  0.26570  0.84082  0.28733  1.0000
  H   H1067     1.0  0.16146  0.95802  0.40909  1.0000
  H   H1068     1.0  0.00254  0.69416  0.43406  1.0000
  N   N45       1.0  0.11139  0.77425  0.26873  1.0000
  C   C634      1.0  0.11325  0.75333  0.27818  1.0000
  C   C635      1.0  0.09555  0.78798  0.27793  1.0000
  C   C636      1.0  0.13103  0.78259  0.26593  1.0000
  C   C637      1.0  0.10580  0.77297  0.25287  1.0000
  C   C638      1.0  0.13100  0.73778  0.27203  1.0000
  C   C639      1.0  0.07370  0.78376  0.27943  1.0000
  C   C640      1.0  0.13976  0.78419  0.28088  1.0000
  H   H1069     1.0  0.31431  0.87464  0.27916  1.0000
  H   H1070     1.0  0.11441  0.75386  0.29075  1.0000
  H   H1071     1.0  0.09934  0.74656  0.27868  1.0000
  H   H1072     1.0  0.09590  0.80418  0.27297  1.0000
  H   H1073     1.0  0.09870  0.78681  0.29027  1.0000
  H   H1074     1.0  0.14278  0.77341  0.25849  1.0000
  H   H1075     1.0  0.12940  0.79807  0.25901  1.0000
  H   H1076     1.0  0.11609  0.95037  0.40458  1.0000
  H   H1077     1.0  0.13331  0.91766  0.40211  1.0000
  H   H1078     1.0  0.12990  0.72286  0.27949  1.0000
  H   H1079     1.0  0.13040  0.73549  0.25978  1.0000
  H   H1080     1.0  0.14586  0.74183  0.27283  1.0000
  Fe  Fe95      1.0  0.23955  0.97887  0.36213  1.0000
  H   H1081     1.0  0.06843  0.78552  0.26778  1.0000
  H   H1082     1.0  0.29027  0.55388  0.23794  1.0000
  C   C641      1.0  0.20469  0.68217  0.22269  1.0000
  C   C642      1.0  0.99418  0.74092  0.26315  1.0000
  C   C643      1.0  0.22875  0.48839  0.21952  1.0000
  H   H1083     1.0  0.12771  0.49214  0.42096  1.0000
  H   H1084     1.0  0.11825  0.76384  0.24588  1.0000
  H   H1085     1.0  0.14239  0.76940  0.28850  1.0000
  C   C644      1.0  0.27599  0.48753  0.42310  1.0000
  H   H1086     1.0  0.13577  0.51985  0.37859  1.0000
  H   H1087     1.0  0.98699  0.75648  0.25893  1.0000
  C   C645      1.0  0.17615  0.50086  0.37496  1.0000
  N   N46       1.0  0.14075  0.93625  0.41762  1.0000
  H   H1088     1.0  0.09775  0.51802  0.39065  1.0000
  H   H1089     1.0  0.25589  0.96594  0.44144  1.0000
  H   H1090     1.0  0.09274  0.80560  0.24822  1.0000
  H   H1091     1.0  0.01234  0.50907  0.44794  1.0000
  S   S189      1.0  0.19886  0.59752  0.21763  1.0000
  S   S190      1.0  0.00312  0.68055  0.36813  1.0000
  C   C646      1.0  0.27989  0.89759  0.29856  1.0000
  S   S191      1.0  0.98841  0.60484  0.45386  1.0000
  H   H1092     1.0  0.27820  0.72624  0.23425  1.0000
  C   C647      1.0  0.00413  0.79355  0.45407  1.0000
  H   H1093     1.0  0.01160  0.75334  0.44540  1.0000
  C   C648      1.0  0.29533  0.88617  0.24902  1.0000
  H   H1094     1.0  0.22496  0.50514  0.21898  1.0000
  H   H1095     1.0  0.14497  0.51335  0.42945  1.0000
  H   H1096     1.0  0.21576  0.74167  0.25843  1.0000
  H   H1097     1.0  0.00310  0.77461  0.43194  1.0000
  Fe  Fe96      1.0  0.99612  0.84954  0.46402  1.0000
  H   H1098     1.0  0.98707  0.83413  0.38051  1.0000
  C   C649      1.0  0.20965  0.97124  0.39981  1.0000
  H   H1099     1.0  0.18866  0.68733  0.22093  1.0000
  H   H1100     1.0  0.22923  0.63619  0.24900  1.0000
  N   N47       1.0  0.99122  0.77695  0.45662  1.0000
  C   C650      1.0  0.22026  0.75442  0.24942  1.0000
  H   H1101     1.0  0.15878  0.91373  0.45252  1.0000
  C   C651      1.0  0.02721  0.78662  0.45234  1.0000
  H   H1102     1.0  0.20816  0.50150  0.40852  1.0000
  H   H1103     1.0  0.27877  0.51938  0.37955  1.0000
  H   H1104     1.0  0.99672  0.67320  0.46179  1.0000
  H   H1105     1.0  0.01359  0.65825  0.41921  1.0000
  C   C652      1.0  0.13973  0.48485  0.41251  1.0000
  H   H1106     1.0  0.03256  0.56246  0.44493  1.0000
  N   N48       1.0  0.25233  0.76515  0.23108  1.0000
  H   H1107     1.0  0.18596  0.48549  0.43133  1.0000
  C   C653      1.0  0.01384  0.86116  0.37913  1.0000
  H   H1108     1.0  0.01195  0.95034  0.46398  1.0000
  H   H1109     1.0  0.25115  0.51206  0.41784  1.0000
  Fe  Fe97      1.0  0.11620  0.49318  0.46080  1.0000
  C   C654      1.0  0.16263  0.91883  0.43963  1.0000
  C   C655      1.0  0.24189  0.65300  0.22680  1.0000
  C   C656      1.0  0.27170  0.88041  0.29317  1.0000
  C   C657      1.0  0.31458  0.84585  0.27158  1.0000
  H   H1110     1.0  0.01413  0.85714  0.39202  1.0000
  C   C658      1.0  0.13027  0.50850  0.38848  1.0000
  H   H1111     1.0  0.12787  0.53085  0.41790  1.0000
  H   H1112     1.0  0.07194  0.76852  0.28602  1.0000
  H   H1113     1.0  0.22643  0.94926  0.44638  1.0000
  C   C659      1.0  0.29962  0.81136  0.22687  1.0000
  H   H1114     1.0  0.18377  0.92293  0.41107  1.0000
  H   H1115     1.0  0.27064  0.57631  0.25283  1.0000
  H   H1116     1.0  0.99034  0.74362  0.42967  1.0000
  C   C660      1.0  0.04134  0.54999  0.45149  1.0000
  H   H1117     1.0  0.15073  0.95092  0.39400  1.0000
  H   H1118     1.0  0.16739  0.62550  0.23202  1.0000
  H   H1119     1.0  0.30425  0.85621  0.29388  1.0000
  S   S192      1.0  0.27796  0.49609  0.35109  1.0000
  H   H1120     1.0  0.27110  0.59547  0.26446  1.0000
  C   C661      1.0  0.14386  0.52477  0.41871  1.0000
  H   H1121     1.0  0.09366  0.94139  0.45369  1.0000
  C   C662      1.0  0.17367  0.82139  0.21644  1.0000
  H   H1122     1.0  0.10608  0.51282  0.40918  1.0000
  H   H1123     1.0  0.17369  0.91899  0.39392  1.0000
  H   H1124     1.0  0.28776  0.48713  0.25762  1.0000
  H   H1125     1.0  0.25109  0.74112  0.25113  1.0000
  N   N49       1.0  0.14674  0.49965  0.39843  1.0000
  H   H1126     1.0  0.13020  0.53685  0.46474  1.0000
  H   H1127     1.0  0.25557  0.88578  0.29191  1.0000
  H   H1128     1.0  0.24697  0.48776  0.23851  1.0000
  N   N50       1.0  0.28305  0.87268  0.27830  1.0000
  H   H1129     1.0  0.30315  0.51294  0.38558  1.0000
  H   H1130     1.0  0.30829  0.58501  0.26489  1.0000
  H   H1131     1.0  0.27854  0.83399  0.29379  1.0000
  C   C663      1.0  0.29479  0.62139  0.21618  1.0000
  S   S193      1.0  0.22909  0.96068  0.38590  1.0000
  S   S194      1.0  0.13848  0.72551  0.22543  1.0000
  H   H1132     1.0  0.27716  0.56973  0.27273  1.0000
  C   C664      1.0  0.16317  0.78282  0.22834  1.0000
  H   H1133     1.0  0.99330  0.68501  0.41081  1.0000
  C   C665      1.0  0.31258  0.54563  0.26047  1.0000
  C   C666      1.0  0.00938  0.65387  0.43209  1.0000
  H   H1134     1.0  0.28119  0.52031  0.39966  1.0000
  H   H1135     1.0  0.20964  0.75716  0.24060  1.0000
  H   H1136     1.0  0.29409  0.74547  0.23340  1.0000
  H   H1137     1.0  0.99013  0.69860  0.27070  1.0000
  H   H1138     1.0  0.21199  0.69590  0.22105  1.0000
  S   S195      1.0  0.09905  0.52034  0.44707  1.0000
  H   H1139     1.0  0.31185  0.88339  0.24925  1.0000
  C   C667      1.0  0.30411  0.86297  0.28125  1.0000
  H   H1140     1.0  0.24137  0.73625  0.23461  1.0000
  C   C668      1.0  0.30401  0.56125  0.23384  1.0000
  H   H1141     1.0  0.27241  0.89962  0.31074  1.0000
  H   H1142     1.0  0.29232  0.89982  0.24015  1.0000
  H   H1143     1.0  0.10877  0.94527  0.42534  1.0000
  N   N51       1.0  0.31330  0.56390  0.24785  1.0000
  C   C669      1.0  0.99932  0.64821  0.39151  1.0000
  H   H1144     1.0  0.31284  0.49606  0.40883  1.0000
  H   H1145     1.0  0.30744  0.83197  0.27527  1.0000
  H   H1146     1.0  0.12445  0.97433  0.42959  1.0000
  C   C670      1.0  0.07280  0.89009  0.46338  1.0000
  C   C671      1.0  0.31291  0.79580  0.23430  1.0000
  H   H1147     1.0  0.29860  0.57630  0.22730  1.0000
  C   C672      1.0  0.27888  0.49760  0.28030  1.0000
  H   H1148     1.0  0.02678  0.86949  0.37436  1.0000
  C   C673      1.0  0.07330  0.52757  0.45420  1.0000
  H   H1149     1.0  0.22415  0.78599  0.22915  1.0000
  H   H1150     1.0  0.99598  0.88001  0.36244  1.0000
  C   C674      1.0  0.30090  0.63424  0.22508  1.0000
  C   C675      1.0  0.26210  0.77611  0.24077  1.0000
  C   C676      1.0  0.12111  0.95038  0.41618  1.0000
  H   H1151     1.0  0.22497  0.93293  0.46484  1.0000
  H   H1152     1.0  0.29548  0.73264  0.21695  1.0000
  C   C677      1.0  0.24811  0.78971  0.25192  1.0000
  C   C678      1.0  0.27881  0.58044  0.26155  1.0000
  H   H1153     1.0  0.99379  0.73692  0.23858  1.0000
  C   C679      1.0  0.28690  0.51182  0.38957  1.0000
  H   H1154     1.0  0.99363  0.88873  0.38100  1.0000
  C   C680      1.0  0.26879  0.75544  0.21946  1.0000
  H   H1155     1.0  0.10636  0.91309  0.42504  1.0000
  H   H1156     1.0  0.27180  0.76519  0.24844  1.0000
  H   H1157     1.0  0.25833  0.64762  0.22637  1.0000
  C   C681      1.0  0.12126  0.97270  0.41780  1.0000
  C   C682      1.0  0.30120  0.58188  0.25504  1.0000
  H   H1158     1.0  0.15192  0.90509  0.41355  1.0000
  H   H1159     1.0  0.17078  0.51062  0.40641  1.0000
  H   H1160     1.0  0.18734  0.93937  0.39288  1.0000
  S   S196      1.0  0.25458  0.57937  0.21980  1.0000
  H   H1161     1.0  0.03493  0.80019  0.44981  1.0000
  C   C683      1.0  0.15517  0.51617  0.40374  1.0000
  S   S197      1.0  0.09386  0.75141  0.21947  1.0000
  H   H1162     1.0  0.24352  0.78091  0.26359  1.0000
  H   H1163     1.0  0.23925  0.66554  0.23404  1.0000
  H   H1164     1.0  0.25634  0.80175  0.25373  1.0000
  H   H1165     1.0  0.00606  0.71476  0.24999  1.0000
  H   H1166     1.0  0.31492  0.85016  0.25867  1.0000
  C   C684      1.0  0.08793  0.92711  0.45645  1.0000
  H   H1167     1.0  0.01359  0.68865  0.28966  1.0000
  C   C685      1.0  0.00891  0.70506  0.28588  1.0000
  H   H1168     1.0  0.12248  0.88979  0.42303  1.0000
  H   H1169     1.0  0.16486  0.90492  0.43417  1.0000
  C   C686      1.0  0.14555  0.93536  0.43412  1.0000
  H   H1170     1.0  0.12497  0.90340  0.43830  1.0000
  H   H1171     1.0  0.03202  0.77776  0.46339  1.0000
  H   H1172     1.0  0.29060  0.87355  0.24467  1.0000
  H   H1173     1.0  0.09186  0.79134  0.23329  1.0000
  H   H1174     1.0  0.24690  0.48797  0.41383  1.0000
  H   H1175     1.0  0.24097  0.62042  0.23409  1.0000
  C   C687      1.0  0.02418  0.49549  0.44818  1.0000
  H   H1176     1.0  0.28232  0.50075  0.42526  1.0000
  H   H1177     1.0  0.13207  0.98002  0.40846  1.0000
  H   H1178     1.0  0.21638  0.63489  0.23323  1.0000
  H   H1179     1.0  0.31659  0.52026  0.24687  1.0000
  H   H1180     1.0  0.28652  0.48419  0.28675  1.0000
  H   H1181     1.0  0.99720  0.69941  0.46175  1.0000
  H   H1182     1.0  0.26768  0.48928  0.39221  1.0000
  H   H1183     1.0  0.31848  0.54822  0.27109  1.0000
  C   C688      1.0  0.31756  0.54918  0.22129  1.0000
  Fe  Fe98      1.0  0.98999  0.70998  0.35407  1.0000
  C   C689      1.0  0.98910  0.66346  0.38135  1.0000
  C   C690      1.0  0.98812  0.70816  0.28017  1.0000
  Fe  Fe99      1.0  0.27594  0.48619  0.32792  1.0000
  H   H1184     1.0  0.20314  0.94994  0.46017  1.0000
  H   H1185     1.0  0.18505  0.51007  0.37973  1.0000
  H   H1186     1.0  0.18739  0.49046  0.36807  1.0000
  C   C691      1.0  0.28349  0.48951  0.39348  1.0000
  S   S198      1.0  0.99359  0.88354  0.45865  1.0000
  H   H1187     1.0  0.28301  0.61242  0.22138  1.0000
  C   C692      1.0  0.98874  0.63468  0.40263  1.0000
  H   H1188     1.0  0.24434  0.49298  0.43351  1.0000
  H   H1189     1.0  0.03562  0.49924  0.45433  1.0000
  C   C693      1.0  0.28481  0.73904  0.22670  1.0000
  H   H1190     1.0  0.03820  0.95019  0.46029  1.0000
  H   H1191     1.0  0.00109  0.80434  0.44325  1.0000
  C   C694      1.0  0.25350  0.49543  0.42164  1.0000
  C   C695      1.0  0.31591  0.64636  0.21841  1.0000
  H   H1192     1.0  0.00037  0.80272  0.46391  1.0000
  H   H1193     1.0  0.06714  0.87576  0.46611  1.0000
  C   C696      1.0  0.98860  0.68861  0.45850  1.0000
  H   H1194     1.0  0.10604  0.98141  0.41655  1.0000
  C   C697      1.0  0.98637  0.65799  0.43741  1.0000
  C   C698      1.0  0.03215  0.53950  0.46539  1.0000
  C   C699      1.0  0.98705  0.69359  0.44067  1.0000
  H   H1195     1.0  0.22195  0.48284  0.24519  1.0000
  H   H1196     1.0  0.26916  0.48429  0.21711  1.0000
  H   H1197     1.0  0.29234  0.48158  0.38372  1.0000
  C   C700      1.0  0.21040  0.64665  0.69421  1.0000
  H   H1198     1.0  0.01275  0.97299  0.48125  1.0000
  H   H1199     1.0  0.27619  0.95305  0.63732  1.0000
  S   S199      1.0  0.01922  0.70017  0.55131  1.0000
  H   H1200     1.0  0.09938  0.52741  0.47973  1.0000
  H   H1201     1.0  0.06964  0.52979  0.49909  1.0000
  Fe  Fe100     1.0  0.00343  0.73080  0.54176  1.0000
  S   S200      1.0  0.02018  0.74751  0.51990  1.0000
  Fe  Fe101     1.0  0.00960  0.71033  0.57518  1.0000
  S   S201      1.0  0.02807  0.70612  0.59570  1.0000
  H   H1202     1.0  0.30463  0.55887  0.61909  1.0000
  Fe  Fe102     1.0  0.15667  0.96479  0.49320  1.0000
  S   S202      1.0  0.18567  0.95899  0.50509  1.0000
  Fe  Fe103     1.0  0.12770  0.94442  0.47823  1.0000
  H   H1203     1.0  0.31857  0.73812  0.71135  1.0000
  H   H1204     1.0  0.14199  0.71044  0.70635  1.0000
  H   H1205     1.0  0.30560  0.72906  0.68886  1.0000
  S   S203      1.0  0.12576  0.95559  0.50159  1.0000
  Fe  Fe104     1.0  0.14281  0.69143  0.61825  1.0000
  S   S204      1.0  0.13906  0.66942  0.64073  1.0000
  S   S205      1.0  0.12300  0.69622  0.59848  1.0000
  Fe  Fe105     1.0  0.18434  0.69926  0.62469  1.0000
  S   S206      1.0  0.18343  0.67740  0.64724  1.0000
  S   S207      1.0  0.21137  0.71580  0.61483  1.0000
  Fe  Fe106     1.0  0.17185  0.65707  0.63394  1.0000
  S   S208      1.0  0.18224  0.62308  0.63749  1.0000
  Fe  Fe107     1.0  0.15104  0.69158  0.65196  1.0000
  S   S209      1.0  0.13871  0.70194  0.67573  1.0000
  S   S210      1.0  0.17517  0.67774  0.61093  1.0000
  S   S211      1.0  0.15240  0.71484  0.62999  1.0000
  H   H1206     1.0  0.08225  0.92806  0.50292  1.0000
  S   S212      1.0  0.20297  0.51241  0.58610  1.0000
  Fe  Fe108     1.0  0.26128  0.50992  0.58276  1.0000
  S   S213      1.0  0.24370  0.52680  0.56364  1.0000
  H   H1207     1.0  0.23898  0.65465  0.69580  1.0000
  Fe  Fe109     1.0  0.22110  0.53780  0.58378  1.0000
  S   S214      1.0  0.20881  0.57142  0.58077  1.0000
  H   H1208     1.0  0.03706  0.95232  0.52247  1.0000
  H   H1209     1.0  0.03673  0.51539  0.48464  1.0000
  S   S215      1.0  0.23945  0.52227  0.60275  1.0000
  S   S216      1.0  0.27852  0.96803  0.56668  1.0000
  Fe  Fe110     1.0  0.28196  0.95082  0.59095  1.0000
  H   H1210     1.0  0.12286  0.58325  0.50001  1.0000
  S   S217      1.0  0.24940  0.95976  0.60067  1.0000
  Fe  Fe111     1.0  0.29024  0.76427  0.64940  1.0000
  S   S218      1.0  0.28903  0.78888  0.66406  1.0000
  S   S219      1.0  0.26398  0.74632  0.65780  1.0000
  Fe  Fe112     1.0  0.29924  0.80813  0.64116  1.0000
  S   S220      1.0  0.27946  0.83888  0.63636  1.0000
  S   S221      1.0  0.29857  0.78397  0.62643  1.0000
  C   C701      1.0  0.28620  0.86092  0.62375  1.0000
  H   H1211     1.0  0.27813  0.88838  0.67385  1.0000
  H   H1212     1.0  0.23098  0.66301  0.67725  1.0000
  C   C702      1.0  0.29580  0.89750  0.60505  1.0000
  C   C703      1.0  0.27572  0.89552  0.61115  1.0000
  C   C704      1.0  0.27098  0.87735  0.62053  1.0000
  H   H1213     1.0  0.28506  0.54602  0.63137  1.0000
  C   C705      1.0  0.05997  0.56092  0.48960  1.0000
  H   H1214     1.0  0.26387  0.90802  0.60872  1.0000
  H   H1215     1.0  0.25543  0.87607  0.62536  1.0000
  H   H1216     1.0  0.05118  0.98082  0.50356  1.0000
  H   H1217     1.0  0.01018  0.75623  0.47184  1.0000
  H   H1218     1.0  0.29350  0.53598  0.55358  1.0000
  H   H1219     1.0  0.20538  0.69186  0.67249  1.0000
  S   S222      1.0  0.99553  0.74166  0.56545  1.0000
  Fe  Fe113     1.0  0.22680  0.50008  0.56739  1.0000
  C   C706      1.0  0.11852  0.56833  0.50561  1.0000
  H   H1220     1.0  0.01494  0.94986  0.49378  1.0000
  H   H1221     1.0  0.05917  0.93348  0.48338  1.0000
  C   C707      1.0  0.22610  0.72389  0.62692  1.0000
  C   C708      1.0  0.24470  0.73028  0.62014  1.0000
  C   C709      1.0  0.25664  0.73710  0.62939  1.0000
  C   C710      1.0  0.24991  0.73779  0.64549  1.0000
  C   C711      1.0  0.23121  0.73172  0.65216  1.0000
  C   C712      1.0  0.21940  0.72468  0.64300  1.0000
  H   H1222     1.0  0.24995  0.72979  0.60769  1.0000
  H   H1223     1.0  0.27100  0.74176  0.62408  1.0000
  H   H1224     1.0  0.22575  0.73281  0.66445  1.0000
  H   H1225     1.0  0.20495  0.72020  0.64826  1.0000
  C   C713      1.0  0.14619  0.68599  0.69263  1.0000
  C   C714      1.0  0.15215  0.66522  0.69256  1.0000
  H   H1226     1.0  0.09424  0.54479  0.53097  1.0000
  C   C715      1.0  0.28280  0.88467  0.66167  1.0000
  H   H1227     1.0  0.15202  0.65867  0.68203  1.0000
  H   H1228     1.0  0.07191  0.72711  0.55207  1.0000
  C   C716      1.0  0.04369  0.52335  0.47378  1.0000
  C   C717      1.0  0.19111  0.60899  0.62165  1.0000
  C   C718      1.0  0.19462  0.61843  0.60600  1.0000
  C   C719      1.0  0.20039  0.60670  0.59361  1.0000
  C   C720      1.0  0.20296  0.58547  0.59676  1.0000
  C   C721      1.0  0.20023  0.57601  0.61244  1.0000
  C   C722      1.0  0.19426  0.58775  0.62483  1.0000
  H   H1229     1.0  0.19251  0.63477  0.60340  1.0000
  H   H1230     1.0  0.20260  0.61411  0.58150  1.0000
  H   H1231     1.0  0.20217  0.55965  0.61501  1.0000
  H   H1232     1.0  0.19169  0.58033  0.63692  1.0000
  C   C723      1.0  0.19415  0.96587  0.52176  1.0000
  H   H1233     1.0  0.24276  0.60596  0.62864  1.0000
  C   C724      1.0  0.22172  0.96380  0.53749  1.0000
  C   C725      1.0  0.21421  0.95880  0.52458  1.0000
  H   H1234     1.0  0.23711  0.95812  0.53945  1.0000
  H   H1235     1.0  0.22403  0.94926  0.51676  1.0000
  C   C726      1.0  0.05456  0.70249  0.59633  1.0000
  C   C727      1.0  0.06143  0.70266  0.61075  1.0000
  C   C728      1.0  0.08225  0.70057  0.61171  1.0000
  C   C729      1.0  0.09651  0.69855  0.59819  1.0000
  C   C730      1.0  0.08964  0.69820  0.58379  1.0000
  C   C731      1.0  0.06885  0.69985  0.58291  1.0000
  H   H1236     1.0  0.05053  0.70456  0.62124  1.0000
  H   H1237     1.0  0.08724  0.70082  0.62287  1.0000
  H   H1238     1.0  0.10052  0.69643  0.57328  1.0000
  H   H1239     1.0  0.06383  0.69922  0.57185  1.0000
  H   H1240     1.0  0.02433  0.97684  0.52567  1.0000
  H   H1241     1.0  0.04372  0.55942  0.49305  1.0000
  H   H1242     1.0  0.23528  0.60328  0.61060  1.0000
  H   H1243     1.0  0.10579  0.51896  0.53492  1.0000
  C   C732      1.0  0.21007  0.68251  0.71210  1.0000
  S   S223      1.0  0.29252  0.97630  0.59937  1.0000
  H   H1244     1.0  0.29355  0.76407  0.70249  1.0000
  C   C733      1.0  0.26509  0.56849  0.57533  1.0000
  C   C734      1.0  0.18307  0.49951  0.54033  1.0000
  H   H1245     1.0  0.98804  0.73319  0.47308  1.0000
  H   H1246     1.0  0.19932  0.72477  0.68370  1.0000
  H   H1247     1.0  0.06526  0.74066  0.57395  1.0000
  H   H1248     1.0  0.08055  0.52423  0.53057  1.0000
  C   C735      1.0  0.15814  0.65283  0.70619  1.0000
  H   H1249     1.0  0.29478  0.91194  0.68363  1.0000
  C   C736      1.0  0.01418  0.80197  0.49197  1.0000
  C   C737      1.0  0.02188  0.78256  0.49907  1.0000
  C   C738      1.0  0.01012  0.77199  0.51159  1.0000
  H   H1250     1.0  0.01137  0.49059  0.48545  1.0000
  H   H1251     1.0  0.08247  0.74545  0.53634  1.0000
  H   H1252     1.0  0.02339  0.81007  0.48241  1.0000
  H   H1253     1.0  0.03701  0.77571  0.49485  1.0000
  H   H1254     1.0  0.06375  0.55848  0.47707  1.0000
  H   H1255     1.0  0.04582  0.93315  0.50263  1.0000
  N   N52       1.0  0.12625  0.62008  0.60999  1.0000
  C   C739      1.0  0.13175  0.60579  0.62454  1.0000
  C   C740      1.0  0.12774  0.60736  0.59702  1.0000
  C   C741      1.0  0.10464  0.62986  0.61379  1.0000
  C   C742      1.0  0.14020  0.63592  0.60602  1.0000
  C   C743      1.0  0.12912  0.61521  0.63987  1.0000
  C   C744      1.0  0.14838  0.59414  0.59325  1.0000
  C   C745      1.0  0.09538  0.64398  0.60017  1.0000
  C   C746      1.0  0.14480  0.64513  0.58843  1.0000
  H   H1256     1.0  0.12282  0.59298  0.62708  1.0000
  H   H1257     1.0  0.14791  0.59878  0.62266  1.0000
  H   H1258     1.0  0.12422  0.61663  0.58576  1.0000
  H   H1259     1.0  0.11618  0.59697  0.60011  1.0000
  H   H1260     1.0  0.09465  0.61811  0.61837  1.0000
  H   H1261     1.0  0.10307  0.63941  0.62332  1.0000
  H   H1262     1.0  0.13446  0.64868  0.61295  1.0000
  H   H1263     1.0  0.15511  0.62936  0.60964  1.0000
  H   H1264     1.0  0.13682  0.62866  0.63809  1.0000
  H   H1265     1.0  0.11299  0.61910  0.64474  1.0000
  H   H1266     1.0  0.13623  0.60402  0.64901  1.0000
  H   H1267     1.0  0.16110  0.60260  0.59244  1.0000
  H   H1268     1.0  0.15035  0.58048  0.60227  1.0000
  H   H1269     1.0  0.14936  0.58873  0.58171  1.0000
  H   H1270     1.0  0.10341  0.65719  0.59613  1.0000
  H   H1271     1.0  0.07956  0.65018  0.60457  1.0000
  H   H1272     1.0  0.09474  0.63608  0.59012  1.0000
  H   H1273     1.0  0.14859  0.66053  0.58791  1.0000
  H   H1274     1.0  0.13222  0.64695  0.58151  1.0000
  H   H1275     1.0  0.15867  0.63666  0.58248  1.0000
  N   N53       1.0  0.27227  0.57414  0.60261  1.0000
  C   C747      1.0  0.30751  0.53637  0.55780  1.0000
  Fe  Fe114     1.0  0.22341  0.49561  0.60367  1.0000
  H   H1276     1.0  0.13508  0.52912  0.48451  1.0000
  C   C748      1.0  0.20081  0.48597  0.53716  1.0000
  H   H1277     1.0  0.09563  0.57776  0.49017  1.0000
  C   C749      1.0  0.99435  0.76408  0.47224  1.0000
  H   H1278     1.0  0.20877  0.69792  0.71540  1.0000
  H   H1279     1.0  0.08544  0.95090  0.48987  1.0000
  C   C750      1.0  0.31098  0.88097  0.60808  1.0000
  C   C751      1.0  0.12626  0.54095  0.47689  1.0000
  C   C752      1.0  0.24867  0.60218  0.61657  1.0000
  H   H1280     1.0  0.19934  0.64974  0.68571  1.0000
  C   C753      1.0  0.16835  0.48899  0.51953  1.0000
  C   C754      1.0  0.28554  0.93787  0.63721  1.0000
  C   C755      1.0  0.05506  0.97387  0.47434  1.0000
  C   C756      1.0  0.99068  0.78101  0.51711  1.0000
  H   H1281     1.0  0.13104  0.55591  0.47622  1.0000
  C   C757      1.0  0.16698  0.50097  0.53158  1.0000
  C   C758      1.0  0.23380  0.69610  0.68916  1.0000
  H   H1282     1.0  0.30433  0.53249  0.61875  1.0000
  H   H1283     1.0  0.29324  0.59355  0.60567  1.0000
  H   H1284     1.0  0.25912  0.78189  0.70132  1.0000
  C   C759      1.0  0.29466  0.54739  0.61964  1.0000
  H   H1285     1.0  0.31715  0.95851  0.54822  1.0000
  H   H1286     1.0  0.24978  0.56994  0.62343  1.0000
  C   C760      1.0  0.28787  0.58795  0.59600  1.0000
  H   H1287     1.0  0.25059  0.69132  0.70935  1.0000
  N   N54       1.0  0.05143  0.76653  0.55879  1.0000
  C   C761      1.0  0.03213  0.78144  0.56047  1.0000
  C   C762      1.0  0.05155  0.75210  0.57408  1.0000
  C   C763      1.0  0.06914  0.77812  0.55503  1.0000
  C   C764      1.0  0.02734  0.79603  0.54540  1.0000
  C   C765      1.0  0.04982  0.76189  0.58915  1.0000
  C   C766      1.0  0.08971  0.76655  0.55930  1.0000
  H   H1288     1.0  0.01886  0.77338  0.56481  1.0000
  H   H1289     1.0  0.03227  0.79122  0.56953  1.0000
  H   H1290     1.0  0.04947  0.76514  0.53424  1.0000
  H   H1291     1.0  0.07142  0.78437  0.54222  1.0000
  H   H1292     1.0  0.06588  0.79145  0.56150  1.0000
  H   H1293     1.0  0.04038  0.80351  0.53932  1.0000
  H   H1294     1.0  0.02194  0.78818  0.53705  1.0000
  H   H1295     1.0  0.01478  0.80812  0.54868  1.0000
  H   H1296     1.0  0.05358  0.74985  0.59909  1.0000
  H   H1297     1.0  0.06032  0.77305  0.58784  1.0000
  H   H1298     1.0  0.03411  0.76914  0.59265  1.0000
  H   H1299     1.0  0.10200  0.77241  0.55050  1.0000
  H   H1300     1.0  0.09201  0.75002  0.55933  1.0000
  H   H1301     1.0  0.09235  0.76979  0.57086  1.0000
  H   H1302     1.0  0.18177  0.50890  0.54947  1.0000
  C   C767      1.0  0.07472  0.94369  0.49931  1.0000
  H   H1303     1.0  0.29564  0.93819  0.68127  1.0000
  H   H1304     1.0  0.09570  0.68029  0.70684  1.0000
  H   H1305     1.0  0.03888  0.74311  0.57585  1.0000
  C   C768      1.0  0.20035  0.69153  0.68545  1.0000
  C   C769      1.0  0.05491  0.94258  0.49330  1.0000
  C   C770      1.0  0.31525  0.79528  0.70621  1.0000
  H   H1306     1.0  0.06736  0.97966  0.47842  1.0000
  S   S224      1.0  0.30273  0.92048  0.59412  1.0000
  H   H1307     1.0  0.24469  0.56701  0.59712  1.0000
  C   C771      1.0  0.06880  0.73858  0.54175  1.0000
  H   H1308     1.0  0.27230  0.55249  0.57655  1.0000
  C   C772      1.0  0.26068  0.58057  0.61787  1.0000
  H   H1309     1.0  0.24983  0.59163  0.58851  1.0000
  H   H1310     1.0  0.23823  0.69715  0.67608  1.0000
  S   S225      1.0  0.22161  0.48326  0.54787  1.0000
  C   C773      1.0  0.25712  0.57573  0.59141  1.0000
  H   H1311     1.0  0.03694  0.74731  0.54824  1.0000
  H   H1312     1.0  0.17660  0.71693  0.68140  1.0000
  H   H1313     1.0  0.22815  0.71180  0.69161  1.0000
  H   H1314     1.0  0.18826  0.68188  0.68844  1.0000
  C   C774      1.0  0.22556  0.66193  0.69022  1.0000
  H   H1315     1.0  0.31718  0.56775  0.59287  1.0000
  H   H1316     1.0  0.25809  0.61377  0.61044  1.0000
  C   C775      1.0  0.28151  0.55228  0.60622  1.0000
  H   H1317     1.0  0.31788  0.55780  0.53797  1.0000
  H   H1318     1.0  0.18336  0.71373  0.70075  1.0000
  S   S226      1.0  0.15981  0.95052  0.47087  1.0000
  C   C776      1.0  0.20925  0.97594  0.54794  1.0000
  C   C777      1.0  0.30623  0.86276  0.61736  1.0000
  C   C778      1.0  0.30736  0.94161  0.63665  1.0000
  H   H1319     1.0  0.07223  0.95168  0.50977  1.0000
  H   H1320     1.0  0.27513  0.57856  0.56773  1.0000
  H   H1321     1.0  0.25212  0.56933  0.56889  1.0000
  H   H1322     1.0  0.30623  0.90252  0.65202  1.0000
  H   H1323     1.0  0.26402  0.70067  0.69085  1.0000
  S   S227      1.0  0.11699  0.91476  0.47662  1.0000
  H   H1324     1.0  0.29095  0.54677  0.59566  1.0000
  H   H1325     1.0  0.15339  0.51153  0.53413  1.0000
  C   C779      1.0  0.29540  0.92564  0.67459  1.0000
  H   H1326     1.0  0.26956  0.54240  0.60953  1.0000
  H   H1327     1.0  0.06527  0.54740  0.51278  1.0000
  Fe  Fe115     1.0  0.98853  0.69053  0.55416  1.0000
  H   H1328     1.0  0.28103  0.60185  0.58878  1.0000
  H   H1329     1.0  0.31809  0.85025  0.61975  1.0000
  H   H1330     1.0  0.31851  0.92764  0.63619  1.0000
  C   C780      1.0  0.09638  0.91178  0.46742  1.0000
  H   H1331     1.0  0.29501  0.87142  0.66206  1.0000
  H   H1332     1.0  0.27100  0.58001  0.62667  1.0000
  N   N55       1.0  0.09484  0.54588  0.49839  1.0000
  C   C781      1.0  0.10396  0.52897  0.50996  1.0000
  C   C782      1.0  0.10330  0.54193  0.48176  1.0000
  C   C783      1.0  0.09795  0.56654  0.50094  1.0000
  C   C784      1.0  0.25338  0.68995  0.69659  1.0000
  H   H1333     1.0  0.09520  0.88126  0.47922  1.0000
  H   H1334     1.0  0.11714  0.56840  0.51855  1.0000
  H   H1335     1.0  0.12046  0.52831  0.50901  1.0000
  H   H1336     1.0  0.10208  0.51399  0.50721  1.0000
  H   H1337     1.0  0.20226  0.64632  0.70643  1.0000
  C   C785      1.0  0.03751  0.97558  0.50119  1.0000
  C   C786      1.0  0.09546  0.52957  0.52757  1.0000
  H   H1338     1.0  0.08628  0.57198  0.51060  1.0000
  H   H1339     1.0  0.26119  0.67466  0.69457  1.0000
  C   C787      1.0  0.30723  0.57905  0.58573  1.0000
  S   S228      1.0  0.29504  0.50854  0.58364  1.0000
  H   H1340     1.0  0.06527  0.73032  0.53276  1.0000
  C   C788      1.0  0.05067  0.75488  0.54560  1.0000
  C   C789      1.0  0.29060  0.90245  0.65005  1.0000
  H   H1341     1.0  0.30420  0.57199  0.57599  1.0000
  H   H1342     1.0  0.24288  0.95958  0.46780  1.0000
  N   N56       1.0  0.23127  0.80110  0.62243  1.0000
  C   C790      1.0  0.21794  0.78473  0.62619  1.0000
  C   C791      1.0  0.24347  0.79849  0.63584  1.0000
  C   C792      1.0  0.24546  0.79756  0.60743  1.0000
  C   C793      1.0  0.21803  0.82145  0.62038  1.0000
  C   C794      1.0  0.20607  0.78248  0.61306  1.0000
  C   C795      1.0  0.23115  0.79910  0.65246  1.0000
  C   C796      1.0  0.26038  0.81277  0.60119  1.0000
  C   C797      1.0  0.22679  0.83996  0.62317  1.0000
  H   H1343     1.0  0.22695  0.76973  0.62934  1.0000
  H   H1344     1.0  0.20647  0.78711  0.63676  1.0000
  H   H1345     1.0  0.25375  0.80987  0.63414  1.0000
  H   H1346     1.0  0.25371  0.78373  0.63630  1.0000
  H   H1347     1.0  0.25447  0.78211  0.60896  1.0000
  H   H1348     1.0  0.23698  0.79807  0.59745  1.0000
  H   H1349     1.0  0.21349  0.82481  0.60834  1.0000
  H   H1350     1.0  0.20373  0.82110  0.62882  1.0000
  H   H1351     1.0  0.19470  0.77228  0.61814  1.0000
  H   H1352     1.0  0.19787  0.79712  0.60805  1.0000
  H   H1353     1.0  0.21607  0.77503  0.60352  1.0000
  H   H1354     1.0  0.21867  0.81199  0.65274  1.0000
  H   H1355     1.0  0.22511  0.78468  0.65695  1.0000
  H   H1356     1.0  0.24130  0.80073  0.66081  1.0000
  H   H1357     1.0  0.26973  0.81442  0.61004  1.0000
  H   H1358     1.0  0.25244  0.82777  0.59657  1.0000
  H   H1359     1.0  0.27104  0.80726  0.59108  1.0000
  H   H1360     1.0  0.22075  0.85354  0.61527  1.0000
  H   H1361     1.0  0.24338  0.83885  0.62071  1.0000
  H   H1362     1.0  0.22147  0.84346  0.63538  1.0000
  N   N57       1.0  0.27762  0.92286  0.65077  1.0000
  C   C798      1.0  0.25666  0.92063  0.64834  1.0000
  H   H1363     1.0  0.01244  0.96161  0.51634  1.0000
  H   H1364     1.0  0.31610  0.59140  0.58025  1.0000
  C   C799      1.0  0.27621  0.93041  0.66641  1.0000
  C   C800      1.0  0.24128  0.94026  0.64703  1.0000
  C   C801      1.0  0.08873  0.89327  0.47081  1.0000
  C   C802      1.0  0.14643  0.69433  0.70633  1.0000
  S   S229      1.0  0.00618  0.54501  0.47246  1.0000
  H   H1365     1.0  0.25725  0.91370  0.63748  1.0000
  H   H1366     1.0  0.24968  0.91019  0.65826  1.0000
  C   C803      1.0  0.99461  0.81088  0.49733  1.0000
  H   H1367     1.0  0.30989  0.92410  0.66660  1.0000
  H   H1368     1.0  0.21929  0.96113  0.48000  1.0000
  C   C804      1.0  0.02725  0.96570  0.51720  1.0000
  H   H1369     1.0  0.27136  0.94712  0.66511  1.0000
  H   H1370     1.0  0.26428  0.92370  0.67517  1.0000
  H   H1371     1.0  0.24071  0.94923  0.65670  1.0000
  H   H1372     1.0  0.24442  0.94983  0.63546  1.0000
  H   H1373     1.0  0.22594  0.93634  0.64761  1.0000
  H   H1374     1.0  0.02831  0.92994  0.47390  1.0000
  H   H1375     1.0  0.27009  0.87970  0.65755  1.0000
  N   N58       1.0  0.21764  0.68275  0.69466  1.0000
  C   C805      1.0  0.31188  0.52441  0.57197  1.0000
  C   C806      1.0  0.07243  0.54505  0.50058  1.0000
  C   C807      1.0  0.30781  0.71762  0.69946  1.0000
  C   C808      1.0  0.22638  0.96391  0.46745  1.0000
  C   C809      1.0  0.06408  0.51726  0.46815  1.0000
  C   C810      1.0  0.28087  0.75538  0.70744  1.0000
  C   C811      1.0  0.18174  0.97814  0.53212  1.0000
  H   H1376     1.0  0.21866  0.63118  0.69315  1.0000
  H   H1377     1.0  0.30848  0.80291  0.69595  1.0000
  N   N59       1.0  0.04272  0.96266  0.48810  1.0000
  H   H1378     1.0  0.13131  0.55682  0.50196  1.0000
  H   H1379     1.0  0.19450  0.67864  0.71478  1.0000
  H   H1380     1.0  0.16259  0.63672  0.70610  1.0000
  H   H1381     1.0  0.28453  0.93315  0.62569  1.0000
  C   C812      1.0  0.02342  0.95873  0.48365  1.0000
  H   H1382     1.0  0.29673  0.70696  0.70127  1.0000
  H   H1383     1.0  0.06146  0.57665  0.49064  1.0000
  H   H1384     1.0  0.29242  0.89832  0.63797  1.0000
  S   S230      1.0  0.14749  0.49175  0.50885  1.0000
  H   H1385     1.0  0.27748  0.74909  0.69728  1.0000
  C   C813      1.0  0.18960  0.71296  0.68816  1.0000
  C   C814      1.0  0.02578  0.94650  0.46976  1.0000
  H   H1386     1.0  0.17284  0.48542  0.58170  1.0000
  H   H1387     1.0  0.30869  0.94955  0.64651  1.0000
  C   C815      1.0  0.26228  0.77100  0.71205  1.0000
  H   H1388     1.0  0.31152  0.95191  0.62564  1.0000
  H   H1389     1.0  0.07260  0.50455  0.47460  1.0000
  Fe  Fe116     1.0  0.24641  0.97879  0.57674  1.0000
  H   H1390     1.0  0.09654  0.55381  0.47287  1.0000
  H   H1391     1.0  0.09955  0.70354  0.71175  1.0000
  H   H1392     1.0  0.99281  0.77347  0.48184  1.0000
  C   C816      1.0  0.30718  0.72760  0.71428  1.0000
  S   S231      1.0  0.10803  0.48206  0.48644  1.0000
  H   H1393     1.0  0.26620  0.72157  0.71373  1.0000
  S   S232      1.0  0.24645  0.48200  0.58506  1.0000
  H   H1394     1.0  0.02869  0.48148  0.49929  1.0000
  H   H1395     1.0  0.26804  0.50814  0.95781  1.0000
  C   C817      1.0  0.27738  0.49588  0.89049  1.0000
  H   H1396     1.0  0.25647  0.73350  0.73028  1.0000
  N   N60       1.0  0.28691  0.73868  0.72048  1.0000
  H   H1397     1.0  0.00227  0.97093  0.85955  1.0000
  Fe  Fe117     1.0  0.20542  0.94035  0.85857  1.0000
  S   S233      1.0  0.21592  0.94506  0.83239  1.0000
  S   S234      1.0  0.17123  0.94473  0.86609  1.0000
  Fe  Fe118     1.0  0.24872  0.93439  0.86630  1.0000
  S   S235      1.0  0.26213  0.93797  0.84045  1.0000
  S   S236      1.0  0.27104  0.92678  0.88432  1.0000
  Fe  Fe119     1.0  0.23730  0.96424  0.83718  1.0000
  Fe  Fe120     1.0  0.23984  0.91838  0.83762  1.0000
  S   S237      1.0  0.24520  0.89604  0.81999  1.0000
  S   S238      1.0  0.22503  0.96176  0.86324  1.0000
  S   S239      1.0  0.22815  0.91255  0.86359  1.0000
  Fe  Fe121     1.0  0.03988  0.90424  0.88462  1.0000
  S   S240      1.0  0.06374  0.88341  0.87130  1.0000
  S   S241      1.0  0.02578  0.93360  0.87105  1.0000
  Fe  Fe122     1.0  0.04183  0.87591  0.91551  1.0000
  S   S242      1.0  0.06561  0.85276  0.90458  1.0000
  S   S243      1.0  0.02685  0.87298  0.94118  1.0000
  Fe  Fe123     1.0  0.08032  0.87974  0.89213  1.0000
  S   S244      1.0  0.11466  0.87673  0.89069  1.0000
  Fe  Fe124     1.0  0.04724  0.85792  0.88446  1.0000
  S   S245      1.0  0.04403  0.83475  0.86871  1.0000
  S   S246      1.0  0.05772  0.90244  0.90456  1.0000
  S   S247      1.0  0.02225  0.87925  0.89630  1.0000
  C   C818      1.0  0.09593  0.92437  0.95848  1.0000
  S   S248      1.0  0.20247  0.52295  0.81181  1.0000
  Fe  Fe125     1.0  0.17017  0.65688  0.75865  1.0000
  S   S249      1.0  0.16653  0.68966  0.76094  1.0000
  H   H1398     1.0  0.06819  0.71793  0.76475  1.0000
  Fe  Fe126     1.0  0.17939  0.64308  0.79223  1.0000
  S   S250      1.0  0.17687  0.67531  0.79695  1.0000
  S   S251      1.0  0.18306  0.61834  0.81339  1.0000
  Fe  Fe127     1.0  0.14922  0.68105  0.78492  1.0000
  S   S252      1.0  0.12168  0.70245  0.79382  1.0000
  Fe  Fe128     1.0  0.19450  0.68141  0.77271  1.0000
  S   S253      1.0  0.21683  0.70379  0.76366  1.0000
  S   S254      1.0  0.15052  0.64875  0.78172  1.0000
  S   S255      1.0  0.19939  0.64872  0.76882  1.0000
  C   C819      1.0  0.26271  0.50846  0.94636  1.0000
  H   H1399     1.0  0.03456  0.63593  0.87574  1.0000
  C   C820      1.0  0.14168  0.87201  0.84787  1.0000
  Fe  Fe129     1.0  0.00932  0.70446  0.83635  1.0000
  S   S256      1.0  0.03435  0.68227  0.82469  1.0000
  S   S257      1.0  0.00470  0.70232  0.86283  1.0000
  Fe  Fe130     1.0  0.29875  0.74847  0.79754  1.0000
  S   S258      1.0  0.28579  0.78100  0.79157  1.0000
  S   S259      1.0  0.28051  0.72242  0.80323  1.0000
  C   C821      1.0  0.19844  0.87243  0.81050  1.0000
  C   C822      1.0  0.30189  0.73600  0.74669  1.0000
  H   H1400     1.0  0.12633  0.93008  0.94960  1.0000
  C   C823      1.0  0.09766  0.69627  0.80256  1.0000
  C   C824      1.0  0.09257  0.67703  0.80306  1.0000
  C   C825      1.0  0.07308  0.67297  0.80986  1.0000
  C   C826      1.0  0.05861  0.68804  0.81628  1.0000
  C   C827      1.0  0.06375  0.70722  0.81581  1.0000
  C   C828      1.0  0.08317  0.71131  0.80892  1.0000
  H   H1401     1.0  0.10357  0.66538  0.79812  1.0000
  H   H1402     1.0  0.06916  0.65811  0.81013  1.0000
  H   H1403     1.0  0.05274  0.71894  0.82071  1.0000
  H   H1404     1.0  0.08698  0.72625  0.80855  1.0000
  C   C829      1.0  0.23342  0.70959  0.77538  1.0000
  C   C830      1.0  0.23795  0.69692  0.78920  1.0000
  C   C831      1.0  0.25239  0.70113  0.79757  1.0000
  C   C832      1.0  0.26234  0.71809  0.79228  1.0000
  C   C833      1.0  0.25739  0.73113  0.77872  1.0000
  C   C834      1.0  0.24300  0.72685  0.77029  1.0000
  H   H1405     1.0  0.23072  0.68358  0.79321  1.0000
  H   H1406     1.0  0.25609  0.69101  0.80809  1.0000
  H   H1407     1.0  0.26476  0.74436  0.77466  1.0000
  H   H1408     1.0  0.23943  0.73682  0.75969  1.0000
  C   C835      1.0  0.19636  0.54935  0.81272  1.0000
  C   C836      1.0  0.19216  0.55722  0.82703  1.0000
  C   C837      1.0  0.18803  0.57837  0.82703  1.0000
  C   C838      1.0  0.18791  0.59184  0.81276  1.0000
  C   C839      1.0  0.19181  0.58396  0.79847  1.0000
  C   C840      1.0  0.19610  0.56285  0.79847  1.0000
  H   H1409     1.0  0.19239  0.54703  0.83807  1.0000
  H   H1410     1.0  0.18514  0.58429  0.83814  1.0000
  H   H1411     1.0  0.19179  0.59412  0.78741  1.0000
  H   H1412     1.0  0.19934  0.55695  0.78733  1.0000
  H   H1413     1.0  0.98751  0.96135  0.91803  1.0000
  Fe  Fe131     1.0  0.99400  0.73598  0.85925  1.0000
  H   H1414     1.0  0.24856  0.52293  0.75346  1.0000
  C   C841      1.0  0.03165  0.81298  0.87116  1.0000
  C   C842      1.0  0.03329  0.80242  0.85821  1.0000
  C   C843      1.0  0.02370  0.78520  0.85944  1.0000
  C   C844      1.0  0.01228  0.77825  0.87372  1.0000
  C   C845      1.0  0.01061  0.78881  0.88666  1.0000
  C   C846      1.0  0.02020  0.80603  0.88542  1.0000
  H   H1415     1.0  0.04208  0.80763  0.84711  1.0000
  H   H1416     1.0  0.02504  0.77740  0.84934  1.0000
  H   H1417     1.0  0.24784  0.51815  0.94607  1.0000
  H   H1418     1.0  0.01875  0.81393  0.89549  1.0000
  C   C847      1.0  0.25777  0.87087  0.82323  1.0000
  C   C848      1.0  0.26165  0.86141  0.83827  1.0000
  C   C849      1.0  0.27071  0.84099  0.84048  1.0000
  C   C850      1.0  0.27633  0.83002  0.82764  1.0000
  C   C851      1.0  0.27257  0.83953  0.81259  1.0000
  C   C852      1.0  0.26314  0.85980  0.81045  1.0000
  H   H1419     1.0  0.25745  0.86974  0.84822  1.0000
  H   H1420     1.0  0.27342  0.83372  0.85219  1.0000
  C   C853      1.0  0.20795  0.86870  0.84699  1.0000
  H   H1421     1.0  0.00878  0.63321  0.82554  1.0000
  C   C854      1.0  0.15581  0.92554  0.87282  1.0000
  C   C855      1.0  0.16380  0.90579  0.87866  1.0000
  C   C856      1.0  0.15093  0.89106  0.88412  1.0000
  C   C857      1.0  0.13002  0.89589  0.88374  1.0000
  C   C858      1.0  0.12201  0.91567  0.87799  1.0000
  C   C859      1.0  0.13487  0.93041  0.87260  1.0000
  H   H1422     1.0  0.17985  0.90190  0.87908  1.0000
  H   H1423     1.0  0.15721  0.87582  0.88867  1.0000
  H   H1424     1.0  0.10594  0.91959  0.87766  1.0000
  H   H1425     1.0  0.12855  0.94569  0.86817  1.0000
  C   C860      1.0  0.18371  0.50890  0.77904  1.0000
  C   C861      1.0  0.03870  0.87924  0.95593  1.0000
  C   C862      1.0  0.05962  0.87858  0.95400  1.0000
  H   H1426     1.0  0.14701  0.86360  0.85890  1.0000
  H   H1427     1.0  0.06872  0.87448  0.94318  1.0000
  C   C863      1.0  0.28571  0.96181  0.92128  1.0000
  H   H1428     1.0  0.27682  0.83125  0.80261  1.0000
  C   C864      1.0  0.26354  0.95818  0.90263  1.0000
  C   C865      1.0  0.27607  0.94058  0.89861  1.0000
  H   H1429     1.0  0.07236  0.69324  0.77666  1.0000
  H   H1430     1.0  0.00858  0.61414  0.88305  1.0000
  H   H1431     1.0  0.25984  0.49790  0.76105  1.0000
  C   C866      1.0  0.26833  0.96867  0.91392  1.0000
  H   H1432     1.0  0.25032  0.97252  0.79761  1.0000
  Fe  Fe132     1.0  0.31589  0.97144  0.95103  1.0000
  C   C867      1.0  0.00866  0.95157  0.88109  1.0000
  C   C868      1.0  0.99870  0.64486  0.84843  1.0000
  H   H1433     1.0  0.21418  0.65443  0.72890  1.0000
  H   H1434     1.0  0.21641  0.86450  0.83572  1.0000
  H   H1435     1.0  0.27127  0.97204  0.86985  1.0000
  H   H1436     1.0  0.28092  0.51105  0.88668  1.0000
  H   H1437     1.0  0.15866  0.92749  0.82414  1.0000
  Fe  Fe133     1.0  0.20231  0.49548  0.83129  1.0000
  H   H1438     1.0  0.12559  0.95662  0.91779  1.0000
  H   H1439     1.0  0.15040  0.90007  0.85050  1.0000
  C   C869      1.0  0.00439  0.94892  0.89759  1.0000
  H   H1440     1.0  0.13683  0.86407  0.93661  1.0000
  C   C870      1.0  0.15290  0.89026  0.84108  1.0000
  H   H1441     1.0  0.08191  0.92210  0.95455  1.0000
  N   N61       1.0  0.09520  0.68913  0.74583  1.0000
  H   H1442     1.0  0.15340  0.68861  0.73024  1.0000
  H   H1443     1.0  0.27345  0.75284  0.74126  1.0000
  S   S260      1.0  0.30440  0.49314  0.91169  1.0000
  C   C871      1.0  0.99908  0.96888  0.87232  1.0000
  C   C872      1.0  0.99076  0.96355  0.90525  1.0000
  H   H1444     1.0  0.25008  0.96363  0.89714  1.0000
  C   C873      1.0  0.27492  0.70529  0.73582  1.0000
  C   C874      1.0  0.06550  0.70202  0.76644  1.0000
  H   H1445     1.0  0.24853  0.76388  0.71653  1.0000
  H   H1446     1.0  0.18140  0.85514  0.84794  1.0000
  H   H1447     1.0  0.06665  0.67783  0.75307  1.0000
  H   H1448     1.0  0.20309  0.48919  0.79402  1.0000
  H   H1449     1.0  0.23119  0.50712  0.78699  1.0000
  H   H1450     1.0  0.25950  0.51807  0.77162  1.0000
  H   H1451     1.0  0.11532  0.67239  0.72867  1.0000
  H   H1452     1.0  0.27051  0.70765  0.74836  1.0000
  H   H1453     1.0  0.10774  0.94573  0.93967  1.0000
  H   H1454     1.0  0.14229  0.94782  0.90151  1.0000
  H   H1455     1.0  0.08961  0.90321  0.93322  1.0000
  C   C875      1.0  0.27070  0.72526  0.72455  1.0000
  H   H1456     1.0  0.30088  0.96896  0.87985  1.0000
  S   S261      1.0  0.16684  0.64509  0.73647  1.0000
  H   H1457     1.0  0.12540  0.87771  0.85120  1.0000
  C   C876      1.0  0.02501  0.61404  0.85216  1.0000
  H   H1458     1.0  0.17851  0.87484  0.85964  1.0000
  C   C877      1.0  0.18377  0.90501  0.83236  1.0000
  C   C878      1.0  0.18488  0.87064  0.84775  1.0000
  H   H1459     1.0  0.21246  0.88273  0.84933  1.0000
  H   H1460     1.0  0.30778  0.81165  0.85881  1.0000
  H   H1461     1.0  0.11644  0.70774  0.73148  1.0000
  C   C879      1.0  0.17718  0.87620  0.82014  1.0000
  H   H1462     1.0  0.00944  0.65564  0.84758  1.0000
  H   H1463     1.0  0.17867  0.51065  0.76732  1.0000
  H   H1464     1.0  0.26042  0.48829  0.93023  1.0000
  H   H1465     1.0  0.03112  0.60243  0.86156  1.0000
  H   H1466     1.0  0.02324  0.60552  0.84268  1.0000
  H   H1467     1.0  0.11639  0.94581  0.90297  1.0000
  H   H1468     1.0  0.19705  0.87417  0.79774  1.0000
  H   H1469     1.0  0.31503  0.53468  0.90854  1.0000
  C   C880      1.0  0.98876  0.61188  0.85882  1.0000
  H   H1470     1.0  0.27358  0.51588  0.93709  1.0000
  C   C881      1.0  0.11240  0.92977  0.94451  1.0000
  C   C882      1.0  0.22985  0.50878  0.77420  1.0000
  H   H1471     1.0  0.06470  0.70232  0.74195  1.0000
  C   C883      1.0  0.07273  0.69239  0.75123  1.0000
  H   H1472     1.0  0.20030  0.90286  0.82859  1.0000
  H   H1473     1.0  0.09162  0.72086  0.73543  1.0000
  H   H1474     1.0  0.14454  0.89917  0.83157  1.0000
  H   H1475     1.0  0.12317  0.67408  0.75390  1.0000
  N   N62       1.0  0.23396  0.76183  0.82722  1.0000
  C   C884      1.0  0.25494  0.76050  0.83135  1.0000
  C   C885      1.0  0.23372  0.77403  0.81096  1.0000
  C   C886      1.0  0.23007  0.74053  0.82716  1.0000
  C   C887      1.0  0.21919  0.77181  0.83964  1.0000
  C   C888      1.0  0.25978  0.74608  0.84649  1.0000
  C   C889      1.0  0.23620  0.79650  0.80968  1.0000
  C   C890      1.0  0.21457  0.73778  0.81687  1.0000
  C   C891      1.0  0.19688  0.77642  0.83703  1.0000
  H   H1476     1.0  0.26655  0.75551  0.82153  1.0000
  H   H1477     1.0  0.25803  0.77555  0.83293  1.0000
  H   H1478     1.0  0.21955  0.77417  0.80623  1.0000
  H   H1479     1.0  0.24575  0.76683  0.80232  1.0000
  H   H1480     1.0  0.24419  0.73084  0.82285  1.0000
  H   H1481     1.0  0.22529  0.73317  0.83940  1.0000
  H   H1482     1.0  0.21926  0.76213  0.85135  1.0000
  H   H1483     1.0  0.22386  0.78600  0.84172  1.0000
  H   H1484     1.0  0.24999  0.75070  0.85725  1.0000
  H   H1485     1.0  0.25904  0.73009  0.84566  1.0000
  H   H1486     1.0  0.27557  0.74666  0.84803  1.0000
  H   H1487     1.0  0.23637  0.80362  0.79714  1.0000
  H   H1488     1.0  0.22342  0.80505  0.81672  1.0000
  H   H1489     1.0  0.25061  0.79853  0.81313  1.0000
  H   H1490     1.0  0.21207  0.72171  0.81919  1.0000
  H   H1491     1.0  0.22049  0.74081  0.80407  1.0000
  H   H1492     1.0  0.19974  0.74717  0.81939  1.0000
  H   H1493     1.0  0.18903  0.76315  0.84190  1.0000
  H   H1494     1.0  0.19477  0.78129  0.82453  1.0000
  H   H1495     1.0  0.18923  0.78942  0.84316  1.0000
  N   N63       1.0  0.13146  0.64008  0.84205  1.0000
  C   C892      1.0  0.14974  0.63421  0.85057  1.0000
  C   C893      1.0  0.13607  0.65693  0.82884  1.0000
  C   C894      1.0  0.12854  0.62177  0.83536  1.0000
  C   C895      1.0  0.11352  0.64648  0.85395  1.0000
  C   C896      1.0  0.14994  0.61480  0.86285  1.0000
  C   C897      1.0  0.13925  0.67669  0.83400  1.0000
  C   C898      1.0  0.11612  0.62553  0.82154  1.0000
  C   C899      1.0  0.09369  0.65644  0.84761  1.0000
  H   H1496     1.0  0.16385  0.63200  0.84199  1.0000
  H   H1497     1.0  0.15156  0.64650  0.85700  1.0000
  H   H1498     1.0  0.12414  0.66127  0.82115  1.0000
  H   H1499     1.0  0.14982  0.65171  0.82073  1.0000
  H   H1500     1.0  0.14343  0.61338  0.83079  1.0000
  H   H1501     1.0  0.12137  0.61083  0.84478  1.0000
  H   H1502     1.0  0.10956  0.63323  0.86268  1.0000
  H   H1503     1.0  0.11720  0.65680  0.86142  1.0000
  H   H1504     1.0  0.16373  0.61268  0.86860  1.0000
  H   H1505     1.0  0.13681  0.61574  0.87234  1.0000
  H   H1506     1.0  0.15083  0.60108  0.85722  1.0000
  H   H1507     1.0  0.15318  0.67468  0.83950  1.0000
  H   H1508     1.0  0.14118  0.68827  0.82336  1.0000
  H   H1509     1.0  0.12601  0.68302  0.84199  1.0000
  H   H1510     1.0  0.10135  0.63504  0.82394  1.0000
  H   H1511     1.0  0.11322  0.61076  0.81921  1.0000
  H   H1512     1.0  0.12479  0.63236  0.81051  1.0000
  H   H1513     1.0  0.08425  0.64494  0.84683  1.0000
  H   H1514     1.0  0.09591  0.66629  0.83615  1.0000
  H   H1515     1.0  0.08490  0.66681  0.85581  1.0000
  H   H1516     1.0  0.27105  0.97831  0.84928  1.0000
  H   H1517     1.0  0.23797  0.66189  0.71917  1.0000
  C   C900      1.0  0.10664  0.67613  0.75833  1.0000
  C   C901      1.0  0.10310  0.70916  0.74085  1.0000
  C   C902      1.0  0.28863  0.74838  0.73457  1.0000
  C   C903      1.0  0.11050  0.71829  0.75360  1.0000
  H   H1518     1.0  0.30315  0.92002  0.90310  1.0000
  H   H1519     1.0  0.10498  0.68349  0.76905  1.0000
  H   H1520     1.0  0.04262  0.63011  0.83165  1.0000
  C   C904      1.0  0.30965  0.80275  0.72076  1.0000
  H   H1521     1.0  0.05656  0.61864  0.84714  1.0000
  S   S262      1.0  0.31243  0.75458  0.81771  1.0000
  H   H1522     1.0  0.13891  0.89628  0.94540  1.0000
  H   H1523     1.0  0.18795  0.52329  0.78086  1.0000
  H   H1524     1.0  0.09977  0.71892  0.76466  1.0000
  H   H1525     1.0  0.11321  0.73402  0.74885  1.0000
  H   H1526     1.0  0.12512  0.70968  0.75659  1.0000
  H   H1527     1.0  0.06864  0.93232  0.92813  1.0000
  C   C905      1.0  0.10077  0.65484  0.76410  1.0000
  H   H1528     1.0  0.22841  0.50539  0.92990  1.0000
  H   H1529     1.0  0.31816  0.73455  0.74171  1.0000
  H   H1530     1.0  0.09143  0.66428  0.73419  1.0000
  S   S263      1.0  0.19242  0.49146  0.85773  1.0000
  H   H1531     1.0  0.20844  0.88335  0.81118  1.0000
  H   H1532     1.0  0.26582  0.69425  0.73356  1.0000
  S   S264      1.0  0.99841  0.75763  0.87572  1.0000
  C   C906      1.0  0.29823  0.94420  0.91728  1.0000
  C   C907      1.0  0.20067  0.49077  0.78148  1.0000
  H   H1533     1.0  0.31611  0.94086  0.84461  1.0000
  H   H1534     1.0  0.04024  0.64181  0.84920  1.0000
  H   H1535     1.0  0.26016  0.86701  0.79878  1.0000
  C   C908      1.0  0.15866  0.66117  0.71983  1.0000
  H   H1536     1.0  0.29857  0.81621  0.72165  1.0000
  C   C909      1.0  0.21702  0.49637  0.75349  1.0000
  N   N64       1.0  0.22034  0.49195  0.77055  1.0000
  H   H1537     1.0  0.10968  0.64719  0.77362  1.0000
  S   S265      1.0  0.00098  0.73851  0.83269  1.0000
  H   H1538     1.0  0.14264  0.86156  0.83917  1.0000
  H   H1539     1.0  0.25599  0.49894  0.87392  1.0000
  H   H1540     1.0  0.01528  0.64526  0.89046  1.0000
  H   H1541     1.0  0.00172  0.78370  0.89773  1.0000
  C   C910      1.0  0.17466  0.92174  0.82004  1.0000
  H   H1542     1.0  0.08154  0.93521  0.90841  1.0000
  H   H1543     1.0  0.30009  0.74429  0.75697  1.0000
  S   S266      1.0  0.31072  0.80262  0.75223  1.0000
  H   H1544     1.0  0.11438  0.88934  0.94959  1.0000
  H   H1545     1.0  0.01160  0.93560  0.90444  1.0000
  C   C911      1.0  0.99616  0.64332  0.83134  1.0000
  H   H1546     1.0  0.29770  0.72087  0.75132  1.0000
  H   H1547     1.0  0.29067  0.69763  0.73408  1.0000
  C   C912      1.0  0.04166  0.62723  0.84474  1.0000
  H   H1548     1.0  0.10454  0.64510  0.75463  1.0000
  H   H1549     1.0  0.29245  0.94663  0.85656  1.0000
  H   H1550     1.0  0.29511  0.76270  0.73058  1.0000
  C   C913      1.0  0.09896  0.67803  0.73163  1.0000
  N   N65       1.0  0.17519  0.88541  0.83509  1.0000
  H   H1551     1.0  0.08500  0.88124  0.96497  1.0000
  H   H1552     1.0  0.99578  0.65857  0.82417  1.0000
  H   H1553     1.0  0.08466  0.65544  0.76931  1.0000
  C   C914      1.0  0.09181  0.69015  0.71627  1.0000
  C   C915      1.0  0.25054  0.51202  0.76439  1.0000
  N   N66       1.0  0.00473  0.62499  0.85854  1.0000
  H   H1554     1.0  0.10325  0.90691  0.91404  1.0000
  C   C916      1.0  0.31825  0.79287  0.73419  1.0000
  S   S267      1.0  0.28754  0.80437  0.83092  1.0000
  C   C917      1.0  0.12553  0.89535  0.93983  1.0000
  H   H1555     1.0  0.14751  0.92248  0.92421  1.0000
  C   C918      1.0  0.08372  0.93354  0.92101  1.0000
  H   H1556     1.0  0.16687  0.88520  0.81195  1.0000
  H   H1557     1.0  0.26505  0.78003  0.72079  1.0000
  H   H1558     1.0  0.20610  0.85686  0.81403  1.0000
  H   H1559     1.0  0.21294  0.85655  0.85645  1.0000
  C   C919      1.0  0.22636  0.48625  0.95334  1.0000
  C   C920      1.0  0.29338  0.93365  0.90605  1.0000
  N   N67       1.0  0.11699  0.91599  0.93197  1.0000
  C   C921      1.0  0.26316  0.48905  0.88321  1.0000
  C   C922      1.0  0.12870  0.94464  0.91012  1.0000
  H   H1560     1.0  0.22293  0.67509  0.73415  1.0000
  H   H1561     1.0  0.13705  0.91313  0.90997  1.0000
  C   C923      1.0  0.15292  0.68201  0.71984  1.0000
  H   H1562     1.0  0.14488  0.88148  0.91997  1.0000
  H   H1563     1.0  0.07524  0.69485  0.71767  1.0000
  H   H1564     1.0  0.23172  0.49646  0.74554  1.0000
  C   C924      1.0  0.01849  0.64280  0.87787  1.0000
  H   H1565     1.0  0.18296  0.93485  0.81833  1.0000
  H   H1566     1.0  0.18179  0.91136  0.84367  1.0000
  H   H1567     1.0  0.20859  0.51186  0.75076  1.0000
  H   H1568     1.0  0.17623  0.91668  0.80834  1.0000
  H   H1569     1.0  0.17179  0.86124  0.82284  1.0000
  H   H1570     1.0  0.08829  0.94777  0.92264  1.0000
  H   H1571     1.0  0.17040  0.50618  0.78808  1.0000
  H   H1572     1.0  0.99309  0.80678  0.83454  1.0000
  C   C925      1.0  0.13188  0.87855  0.92919  1.0000
  Fe  Fe134     1.0  0.30174  0.78744  0.81033  1.0000
  H   H1573     1.0  0.11912  0.87594  0.92373  1.0000
  H   H1574     1.0  0.21992  0.52355  0.77215  1.0000
  H   H1575     1.0  0.04892  0.70231  0.76960  1.0000
  C   C926      1.0  0.13328  0.92318  0.91922  1.0000
  C   C927      1.0  0.09862  0.91398  0.92505  1.0000
  H   H1576     1.0  0.98886  0.63474  0.88038  1.0000
  S   S268      1.0  0.29113  0.97610  0.93509  1.0000
  H   H1577     1.0  0.03952  0.82656  0.96419  1.0000
  C   C928      1.0  0.00440  0.62857  0.87529  1.0000
  S   S269      1.0  0.31804  0.50841  0.94918  1.0000
  H   H1578     1.0  0.01588  0.65797  0.87083  1.0000
  H   H1579     1.0  0.31335  0.71562  0.72331  1.0000
  H   H1580     1.0  0.31162  0.93870  0.92284  1.0000
  H   H1581     1.0  0.31542  0.55206  0.92165  1.0000
  H   H1582     1.0  0.00560  0.48177  0.87443  1.0000
  C   C929      1.0  0.28693  0.48336  0.90265  1.0000
  H   H1583     1.0  0.22402  0.49966  0.95965  1.0000
  H   H1584     1.0  0.00543  0.58274  0.86885  1.0000
  H   H1585     1.0  0.31566  0.94536  0.86437  1.0000
  H   H1586     1.0  0.20367  0.50036  0.93830  1.0000
  Fe  Fe135     1.0  0.31540  0.78333  0.77571  1.0000
  C   C930      1.0  0.30800  0.95023  0.85373  1.0000
  H   H1587     1.0  0.31639  0.83468  0.85981  1.0000
  C   C931      1.0  0.21984  0.49351  0.93684  1.0000
  C   C932      1.0  0.22226  0.66752  0.72386  1.0000
  H   H1588     1.0  0.30372  0.97563  0.83526  1.0000
  C   C933      1.0  0.99015  0.59175  0.87025  1.0000
  H   H1589     1.0  0.98895  0.60776  0.84690  1.0000
  C   C934      1.0  0.30856  0.97280  0.84722  1.0000
  H   H1590     1.0  0.99314  0.78835  0.82214  1.0000
  C   C935      1.0  0.26260  0.48695  0.94280  1.0000
  H   H1591     1.0  0.20433  0.48609  0.73536  1.0000
  H   H1592     1.0  0.25140  0.97886  0.96023  1.0000
  H   H1593     1.0  0.20839  0.98084  0.96455  1.0000
  H   H1594     1.0  0.09180  0.93698  0.96565  1.0000
  H   H1595     1.0  0.31905  0.78127  0.85144  1.0000
  H   H1596     1.0  0.31896  0.82634  0.84104  1.0000
  S   S270      1.0  0.48555  0.32890  0.99270  1.0000
  S   S271      1.0  0.47277  0.07669  0.98767  1.0000
  S   S272      1.0  0.47003  0.13787  0.98667  1.0000
  Fe  Fe136     1.0  0.51295  0.20555  0.07693  1.0000
  S   S273      1.0  0.48542  0.18951  0.08159  1.0000
  S   S274      1.0  0.53157  0.20655  0.09652  1.0000
  Fe  Fe137     1.0  0.50599  0.22260  0.04306  1.0000
  S   S275      1.0  0.47831  0.20804  0.04522  1.0000
  S   S276      1.0  0.51792  0.23801  0.01876  1.0000
  Fe  Fe138     1.0  0.46943  0.21814  0.06918  1.0000
  S   S277      1.0  0.43582  0.23117  0.07272  1.0000
  Fe  Fe139     1.0  0.49593  0.18061  0.05727  1.0000
  S   S278      1.0  0.49379  0.14917  0.05230  1.0000
  S   S279      1.0  0.49598  0.23509  0.06599  1.0000
  S   S280      1.0  0.52458  0.19423  0.05364  1.0000
  H   H1597     1.0  0.44090  0.19047  0.03842  1.0000
  H   H1598     1.0  0.55601  0.46068  0.01108  1.0000
  S   S281      1.0  0.37193  0.23787  0.13571  1.0000
  H   H1599     1.0  0.55021  0.14959  0.15753  1.0000
  H   H1600     1.0  0.54383  0.36013  0.98178  1.0000
  H   H1601     1.0  0.55383  0.31036  0.97274  1.0000
  H   H1602     1.0  0.57283  0.28936  0.99616  1.0000
  H   H1603     1.0  0.53110  0.44219  0.96691  1.0000
  H   H1604     1.0  0.55776  0.12492  0.97732  1.0000
  C   C936      1.0  0.44285  0.14713  0.08516  1.0000
  H   H1605     1.0  0.33508  0.32061  0.12363  1.0000
  S   S282      1.0  0.62362  0.17117  0.10499  1.0000
  C   C937      1.0  0.44022  0.99533  0.98672  1.0000
  S   S283      1.0  0.32576  0.28187  0.14146  1.0000
  Fe  Fe140     1.0  0.62026  0.44965  0.97939  1.0000
  S   S284      1.0  0.59431  0.43069  0.98213  1.0000
  Fe  Fe141     1.0  0.64329  0.17132  0.12408  1.0000
  H   H1606     1.0  0.37030  0.01763  0.98082  1.0000
  H   H1607     1.0  0.50902  0.36409  0.99623  1.0000
  H   H1608     1.0  0.60399  0.16434  0.13794  1.0000
  C   C938      1.0  0.64659  0.15418  0.20030  1.0000
  H   H1609     1.0  0.64678  0.47316  0.04269  1.0000
  H   H1610     1.0  0.55675  0.28169  0.01383  1.0000
  C   C939      1.0  0.41144  0.04255  0.97332  1.0000
  Fe  Fe142     1.0  0.33786  0.24926  0.13905  1.0000
  H   H1611     1.0  0.57219  0.06191  0.99374  1.0000
  C   C940      1.0  0.55746  0.19713  0.09815  1.0000
  C   C941      1.0  0.56632  0.20310  0.10984  1.0000
  C   C942      1.0  0.58655  0.19554  0.11199  1.0000
  C   C943      1.0  0.59816  0.18165  0.10259  1.0000
  C   C944      1.0  0.58938  0.17584  0.09079  1.0000
  C   C945      1.0  0.56920  0.18353  0.08855  1.0000
  H   H1612     1.0  0.55748  0.21380  0.11720  1.0000
  H   H1613     1.0  0.59322  0.20063  0.12077  1.0000
  H   H1614     1.0  0.59821  0.16524  0.08334  1.0000
  H   H1615     1.0  0.56265  0.17878  0.07951  1.0000
  C   C946      1.0  0.41845  0.23303  0.09044  1.0000
  C   C947      1.0  0.39784  0.23954  0.08935  1.0000
  C   C948      1.0  0.38342  0.24119  0.10302  1.0000
  C   C949      1.0  0.38945  0.23628  0.11802  1.0000
  C   C950      1.0  0.41006  0.22965  0.11912  1.0000
  C   C951      1.0  0.42450  0.22804  0.10543  1.0000
  H   H1616     1.0  0.39290  0.24323  0.07787  1.0000
  H   H1617     1.0  0.36763  0.24621  0.10198  1.0000
  H   H1618     1.0  0.41489  0.22579  0.13066  1.0000
  H   H1619     1.0  0.44027  0.22299  0.10650  1.0000
  H   H1620     1.0  0.53077  0.06521  0.00798  1.0000
  C   C952      1.0  0.44920  0.12729  0.07786  1.0000
  C   C953      1.0  0.53842  0.34677  0.98955  1.0000
  C   C954      1.0  0.42480  0.18129  0.08572  1.0000
  H   H1621     1.0  0.39056  0.03482  0.99427  1.0000
  C   C955      1.0  0.47601  0.14044  0.00526  1.0000
  C   C956      1.0  0.47822  0.12410  0.01741  1.0000
  C   C957      1.0  0.48365  0.12694  0.03180  1.0000
  C   C958      1.0  0.48680  0.14611  0.03417  1.0000
  C   C959      1.0  0.48440  0.16241  0.02206  1.0000
  C   C960      1.0  0.47897  0.15959  0.00772  1.0000
  H   H1622     1.0  0.47575  0.10932  0.01573  1.0000
  H   H1623     1.0  0.48542  0.11424  0.04113  1.0000
  H   H1624     1.0  0.48696  0.17719  0.02363  1.0000
  H   H1625     1.0  0.47729  0.17232  0.99840  1.0000
  H   H1626     1.0  0.65023  0.10426  0.10598  1.0000
  H   H1627     1.0  0.57931  0.14112  0.16643  1.0000
  H   H1628     1.0  0.55623  0.41596  0.98716  1.0000
  C   C961      1.0  0.49588  0.30401  0.99976  1.0000
  C   C962      1.0  0.49407  0.29761  0.01615  1.0000
  C   C963      1.0  0.50090  0.27742  0.02217  1.0000
  C   C964      1.0  0.50983  0.26363  0.01180  1.0000
  C   C965      1.0  0.51237  0.27026  0.99544  1.0000
  C   C966      1.0  0.50531  0.29036  0.98942  1.0000
  H   H1629     1.0  0.48707  0.30822  0.02420  1.0000
  H   H1630     1.0  0.49926  0.27249  0.03480  1.0000
  H   H1631     1.0  0.51944  0.25968  0.98738  1.0000
  H   H1632     1.0  0.38081  0.17198  0.08381  1.0000
  N   N68       1.0  0.43464  0.27919  0.03100  1.0000
  C   C967      1.0  0.44844  0.27316  0.01641  1.0000
  C   C968      1.0  0.42374  0.30020  0.02636  1.0000
  C   C969      1.0  0.41976  0.26431  0.03581  1.0000
  C   C970      1.0  0.44740  0.27825  0.04383  1.0000
  C   C971      1.0  0.46001  0.25138  0.01803  1.0000
  C   C972      1.0  0.43719  0.31698  0.02111  1.0000
  C   C973      1.0  0.40002  0.27089  0.04657  1.0000
  C   C974      1.0  0.43725  0.28714  0.05900  1.0000
  H   H1633     1.0  0.43986  0.27500  0.00626  1.0000
  H   H1634     1.0  0.46018  0.28317  0.01251  1.0000
  H   H1635     1.0  0.41215  0.30538  0.03602  1.0000
  H   H1636     1.0  0.41507  0.30024  0.01653  1.0000
  H   H1637     1.0  0.41493  0.26044  0.02516  1.0000
  H   H1638     1.0  0.42697  0.24975  0.04192  1.0000
  H   H1639     1.0  0.45365  0.26229  0.04792  1.0000
  H   H1640     1.0  0.46114  0.28541  0.03921  1.0000
  H   H1641     1.0  0.47046  0.24892  0.02692  1.0000
  H   H1642     1.0  0.44981  0.23976  0.02086  1.0000
  H   H1643     1.0  0.46958  0.24891  0.00659  1.0000
  H   H1644     1.0  0.44684  0.31765  0.03005  1.0000
  H   H1645     1.0  0.44666  0.31536  0.00952  1.0000
  H   H1646     1.0  0.42741  0.33190  0.01949  1.0000
  H   H1647     1.0  0.38998  0.28313  0.04023  1.0000
  H   H1648     1.0  0.40264  0.27547  0.05759  1.0000
  H   H1649     1.0  0.39157  0.25783  0.05012  1.0000
  H   H1650     1.0  0.43128  0.27528  0.06818  1.0000
  H   H1651     1.0  0.42514  0.30006  0.05721  1.0000
  H   H1652     1.0  0.44870  0.29319  0.06387  1.0000
  S   S285      1.0  0.63318  0.16007  0.18391  1.0000
  Fe  Fe143     1.0  0.65031  0.16200  0.15895  1.0000
  N   N69       1.0  0.55569  0.33231  0.99578  1.0000
  H   H1653     1.0  0.34866  0.34516  0.15756  1.0000
  C   C975      1.0  0.56470  0.41067  0.97654  1.0000
  H   H1654     1.0  0.34931  0.32769  0.14372  1.0000
  H   H1655     1.0  0.64542  0.15460  0.05331  1.0000
  H   H1656     1.0  0.51259  0.12992  0.97335  1.0000
  C   C976      1.0  0.56591  0.07640  0.98698  1.0000
  H   H1657     1.0  0.45520  0.17478  0.06189  1.0000
  H   H1658     1.0  0.53129  0.33959  0.98173  1.0000
  H   H1659     1.0  0.51398  0.47354  0.97111  1.0000
  H   H1660     1.0  0.43905  0.18700  0.08627  1.0000
  H   H1661     1.0  0.62175  0.46286  0.06863  1.0000
  H   H1662     1.0  0.51452  0.34188  0.00994  1.0000
  C   C977      1.0  0.54362  0.11831  0.97835  1.0000
  H   H1663     1.0  0.45800  0.11605  0.08596  1.0000
  N   N70       1.0  0.57477  0.17403  0.16470  1.0000
  C   C978      1.0  0.58855  0.18991  0.16160  1.0000
  C   C979      1.0  0.58736  0.15419  0.16124  1.0000
  C   C980      1.0  0.56478  0.17148  0.18166  1.0000
  C   C981      1.0  0.55853  0.18062  0.15425  1.0000
  C   C982      1.0  0.57912  0.21082  0.16632  1.0000
  C   C983      1.0  0.59467  0.15251  0.14361  1.0000
  C   C984      1.0  0.57922  0.16645  0.19420  1.0000
  C   C985      1.0  0.54349  0.16566  0.15510  1.0000
  H   H1664     1.0  0.60210  0.18464  0.16764  1.0000
  H   H1665     1.0  0.59462  0.19266  0.14882  1.0000
  H   H1666     1.0  0.53773  0.30830  0.99676  1.0000
  H   H1667     1.0  0.60121  0.15124  0.16706  1.0000
  H   H1668     1.0  0.55392  0.18521  0.18429  1.0000
  H   H1669     1.0  0.55542  0.15907  0.18390  1.0000
  H   H1670     1.0  0.54906  0.19493  0.15727  1.0000
  H   H1671     1.0  0.56496  0.18473  0.14169  1.0000
  H   H1672     1.0  0.59099  0.22080  0.16363  1.0000
  H   H1673     1.0  0.56689  0.21833  0.15941  1.0000
  H   H1674     1.0  0.57360  0.21005  0.17916  1.0000
  H   H1675     1.0  0.42722  0.00032  0.99550  1.0000
  H   H1676     1.0  0.60434  0.13766  0.14259  1.0000
  H   H1677     1.0  0.58201  0.15315  0.13689  1.0000
  H   H1678     1.0  0.57019  0.16493  0.20617  1.0000
  H   H1679     1.0  0.58928  0.15183  0.19319  1.0000
  H   H1680     1.0  0.53024  0.16870  0.16428  1.0000
  C   C986      1.0  0.39122  0.17134  0.07248  1.0000
  H   H1681     1.0  0.64874  0.20503  0.19843  1.0000
  H   H1682     1.0  0.63949  0.12766  0.11276  1.0000
  C   C987      1.0  0.58419  0.41577  0.97109  1.0000
  H   H1683     1.0  0.40733  0.19145  0.10722  1.0000
  H   H1684     1.0  0.33718  0.34723  0.12019  1.0000
  H   H1685     1.0  0.54022  0.14450  0.01714  1.0000
  H   H1686     1.0  0.44532  0.15702  0.05362  1.0000
  H   H1687     1.0  0.59088  0.48001  0.05154  1.0000
  C   C988      1.0  0.43009  0.18696  0.04930  1.0000
  H   H1688     1.0  0.52631  0.36400  0.00954  1.0000
  H   H1689     1.0  0.57800  0.08181  0.97773  1.0000
  S   S286      1.0  0.61883  0.46188  0.00222  1.0000
  C   C989      1.0  0.44085  0.16995  0.06045  1.0000
  H   H1690     1.0  0.40597  0.14500  0.08569  1.0000
  H   H1691     1.0  0.43606  0.12050  0.07637  1.0000
  H   H1692     1.0  0.55086  0.14463  0.99689  1.0000
  S   S287      1.0  0.64112  0.19080  0.14305  1.0000
  H   H1693     1.0  0.50438  0.07202  0.00783  1.0000
  H   H1694     1.0  0.55429  0.07264  0.98094  1.0000
  C   C990      1.0  0.56429  0.29453  0.00719  1.0000
  C   C991      1.0  0.63797  0.16132  0.21462  1.0000
  H   H1695     1.0  0.52968  0.11133  0.01898  1.0000
  H   H1696     1.0  0.55309  0.34176  0.01885  1.0000
  C   C992      1.0  0.56410  0.34086  0.00782  1.0000
  H   H1697     1.0  0.51783  0.12987  0.00530  1.0000
  S   S288      1.0  0.42455  0.05584  0.98322  1.0000
  N   N71       1.0  0.42916  0.16371  0.07645  1.0000
  H   H1698     1.0  0.52333  0.08828  0.98343  1.0000
  H   H1699     1.0  0.61102  0.45062  0.05568  1.0000
  C   C993      1.0  0.39481  0.03375  0.98180  1.0000
  H   H1700     1.0  0.38268  0.16616  0.06445  1.0000
  S   S289      1.0  0.64991  0.14219  0.14061  1.0000
  C   C994      1.0  0.52130  0.35447  0.00221  1.0000
  H   H1701     1.0  0.57690  0.34338  0.97597  1.0000
  H   H1702     1.0  0.58848  0.17855  0.19366  1.0000
  H   H1703     1.0  0.59089  0.01004  0.97654  1.0000
  H   H1704     1.0  0.40191  0.16777  0.10405  1.0000
  H   H1705     1.0  0.63696  0.44388  0.05791  1.0000
  C   C995      1.0  0.56072  0.02637  0.97611  1.0000
  H   H1706     1.0  0.43553  0.14247  0.09741  1.0000
  C   C996      1.0  0.57222  0.32876  0.98213  1.0000
  H   H1707     1.0  0.51613  0.08363  0.02007  1.0000
  H   H1708     1.0  0.56150  0.12613  0.01220  1.0000
  H   H1709     1.0  0.64394  0.12872  0.06101  1.0000
  H   H1710     1.0  0.55550  0.02040  0.98821  1.0000
  H   H1711     1.0  0.58627  0.32002  0.98629  1.0000
  H   H1712     1.0  0.41345  0.14655  0.06490  1.0000
  C   C997      1.0  0.32683  0.33614  0.12102  1.0000
  C   C998      1.0  0.55598  0.39878  0.96841  1.0000
  C   C999      1.0  0.41420  0.17692  0.10290  1.0000
  C   C1000     1.0  0.54383  0.46736  0.98883  1.0000
  C   C1001     1.0  0.32642  0.26802  0.20276  1.0000
  C   C1002     1.0  0.54736  0.13453  0.00813  1.0000
  N   N72       1.0  0.53887  0.10646  0.99453  1.0000
  H   H1713     1.0  0.45697  0.15266  0.08641  1.0000
  C   C1003     1.0  0.52165  0.09510  0.99446  1.0000
  H   H1714     1.0  0.45932  0.12928  0.06646  1.0000
  C   C1004     1.0  0.55761  0.09221  0.99833  1.0000
  C   C1005     1.0  0.63056  0.47268  0.04297  1.0000
  C   C1006     1.0  0.51828  0.07812  0.00850  1.0000
  C   C1007     1.0  0.57062  0.36196  0.00242  1.0000
  C   C1008     1.0  0.41036  0.15564  0.07485  1.0000
  H   H1715     1.0  0.53819  0.16740  0.14342  1.0000
  H   H1716     1.0  0.52874  0.46424  0.99505  1.0000
  C   C1009     1.0  0.62448  0.45687  0.05724  1.0000
  H   H1717     1.0  0.50715  0.10562  0.99434  1.0000
  H   H1718     1.0  0.45242  0.98592  0.99284  1.0000
  C   C1010     1.0  0.53248  0.12023  0.00702  1.0000
  H   H1719     1.0  0.57023  0.10078  0.99804  1.0000
  H   H1720     1.0  0.55555  0.08426  0.01071  1.0000
  Fe  Fe144     1.0  0.49371  0.34218  0.96706  1.0000
  H   H1721     1.0  0.53843  0.31512  0.01524  1.0000
  H   H1722     1.0  0.42530  0.20122  0.05444  1.0000
  C   C1011     1.0  0.55547  0.47302  0.00087  1.0000
  H   H1723     1.0  0.39393  0.18680  0.06719  1.0000
  H   H1724     1.0  0.50685  0.29518  0.97677  1.0000
  H   H1725     1.0  0.41724  0.18206  0.04541  1.0000
  H   H1726     1.0  0.57137  0.47442  0.99578  1.0000
  H   H1727     1.0  0.63536  0.12360  0.09389  1.0000
  C   C1012     1.0  0.38640  0.09994  0.97310  1.0000
  H   H1728     1.0  0.33317  0.36580  0.13827  1.0000
  C   C1013     1.0  0.56697  0.31851  0.96905  1.0000
  H   H1729     1.0  0.42524  0.16930  0.11092  1.0000
  H   H1730     1.0  0.57606  0.36673  0.01239  1.0000
  H   H1731     1.0  0.39758  0.39042  0.96665  1.0000
  C   C1014     1.0  0.58078  0.02040  0.96949  1.0000
  Fe  Fe145     1.0  0.49677  0.06953  0.96722  1.0000
  C   C1015     1.0  0.34304  0.33149  0.15563  1.0000
  H   H1732     1.0  0.57761  0.33059  0.01158  1.0000
  C   C1016     1.0  0.54802  0.31293  0.00373  1.0000
  H   H1733     1.0  0.33201  0.25862  0.19356  1.0000
  H   H1734     1.0  0.57486  0.29760  0.01461  1.0000
  H   H1735     1.0  0.34923  0.31875  0.16419  1.0000
  C   C1017     1.0  0.38331  0.02397  0.97421  1.0000
  H   H1736     1.0  0.41543  0.19452  0.07988  1.0000
  H   H1737     1.0  0.55183  0.45247  0.98574  1.0000
  Fe  Fe146     1.0  0.47141  0.10895  0.97619  1.0000
  H   H1738     1.0  0.52416  0.14780  0.98073  1.0000
  H   H1739     1.0  0.63794  0.14813  0.07395  1.0000
  H   H1740     1.0  0.54820  0.98318  0.98643  1.0000
  C   C1018     1.0  0.64671  0.12078  0.10207  1.0000
  H   H1741     1.0  0.58332  0.36193  0.99252  1.0000
  H   H1742     1.0  0.54674  0.10811  0.96913  1.0000
  S   S290      1.0  0.34765  0.47757  0.97200  1.0000
  C   C1019     1.0  0.43379  0.98472  0.97434  1.0000
  H   H1743     1.0  0.64423  0.20432  0.17894  1.0000
  C   C1020     1.0  0.64811  0.14277  0.06360  1.0000
  H   H1744     1.0  0.55797  0.37370  0.99908  1.0000
  H   H1745     1.0  0.42179  0.99576  0.96907  1.0000
  H   H1746     1.0  0.54086  0.39542  0.97265  1.0000
  S   S291      1.0  0.31956  0.23784  0.16214  1.0000
  H   H1747     1.0  0.62997  0.46615  0.03215  1.0000
  C   C1021     1.0  0.52694  0.13556  0.97327  1.0000
  Fe  Fe147     1.0  0.45067  0.07316  0.97207  1.0000
  S   S292      1.0  0.52231  0.04645  0.97627  1.0000
  H   H1748     1.0  0.44618  0.00931  0.98056  1.0000
  H   H1749     1.0  0.32271  0.33778  0.10894  1.0000
  H   H1750     1.0  0.62319  0.17043  0.21550  1.0000
  C   C1022     1.0  0.54742  0.04003  0.96723  1.0000
  C   C1023     1.0  0.31980  0.33386  0.15891  1.0000
  H   H1751     1.0  0.39754  0.10182  0.98057  1.0000
  H   H1752     1.0  0.38001  0.08605  0.97879  1.0000
  H   H1753     1.0  0.37448  0.11332  0.97343  1.0000
  Fe  Fe148     1.0  0.40815  0.04177  0.42212  1.0000
  S   S293      1.0  0.43472  0.05270  0.40591  1.0000
  S   S294      1.0  0.40327  0.03630  0.44909  1.0000
  Fe  Fe149     1.0  0.38658  0.03659  0.39446  1.0000
  S   S295      1.0  0.41169  0.04736  0.37615  1.0000
  S   S296      1.0  0.35719  0.02524  0.39249  1.0000
  Fe  Fe150     1.0  0.43263  0.02783  0.39218  1.0000
  S   S297      1.0  0.46168  0.00861  0.38307  1.0000
  Fe  Fe151     1.0  0.41196  0.07145  0.39123  1.0000
  S   S298      1.0  0.41046  0.10526  0.38167  1.0000
  S   S299      1.0  0.40779  0.01550  0.40946  1.0000
  S   S300      1.0  0.38519  0.06203  0.40843  1.0000
  H   H1754     1.0  0.39616  0.13908  0.40384  1.0000
  H   H1755     1.0  0.64151  0.43650  0.38867  1.0000
  H   H1756     1.0  0.47389  0.28983  0.32554  1.0000
  C   C1024     1.0  0.49367  0.02600  0.46363  1.0000
  S   S301      1.0  0.34687  0.25752  0.32177  1.0000
  H   H1757     1.0  0.50373  0.33764  0.41556  1.0000
  Fe  Fe152     1.0  0.54434  0.39956  0.38218  1.0000
  S   S302      1.0  0.52821  0.37432  0.39578  1.0000
  S   S303      1.0  0.53065  0.42891  0.36858  1.0000
  Fe  Fe153     1.0  0.58621  0.37665  0.38681  1.0000
  S   S304      1.0  0.57343  0.34956  0.40110  1.0000
  S   S305      1.0  0.62004  0.37456  0.37811  1.0000
  Fe  Fe154     1.0  0.55221  0.35300  0.38314  1.0000
  S   S306      1.0  0.54956  0.32627  0.37079  1.0000
  Fe  Fe155     1.0  0.55029  0.37243  0.41295  1.0000
  S   S307      1.0  0.53597  0.36764  0.43872  1.0000
  S   S308      1.0  0.56665  0.37856  0.36803  1.0000
  S   S309      1.0  0.56473  0.39931  0.40015  1.0000
  C   C1025     1.0  0.44435  0.10190  0.42499  1.0000
  N   N73       1.0  0.38881  0.23548  0.27168  1.0000
  S   S310      1.0  0.62490  0.16559  0.31692  1.0000
  Fe  Fe156     1.0  0.48967  0.23809  0.35705  1.0000
  S   S311      1.0  0.49220  0.24574  0.33075  1.0000
  S   S312      1.0  0.49037  0.26147  0.37329  1.0000
  Fe  Fe157     1.0  0.47985  0.19537  0.35593  1.0000
  S   S313      1.0  0.48179  0.20069  0.32933  1.0000
  S   S314      1.0  0.47675  0.16464  0.37130  1.0000
  Fe  Fe158     1.0  0.50957  0.21447  0.32952  1.0000
  S   S315      1.0  0.53646  0.21234  0.30984  1.0000
  Fe  Fe159     1.0  0.46423  0.23146  0.33263  1.0000
  S   S316      1.0  0.44227  0.25055  0.31674  1.0000
  S   S317      1.0  0.50894  0.20754  0.35590  1.0000
  S   S318      1.0  0.46049  0.22543  0.35925  1.0000
  C   C1026     1.0  0.60008  0.17716  0.31401  1.0000
  C   C1027     1.0  0.58430  0.17488  0.32666  1.0000
  C   C1028     1.0  0.56457  0.18494  0.32537  1.0000
  C   C1029     1.0  0.56047  0.19762  0.31143  1.0000
  C   C1030     1.0  0.57617  0.19965  0.29868  1.0000
  C   C1031     1.0  0.59590  0.18944  0.29993  1.0000
  H   H1758     1.0  0.58740  0.16531  0.33757  1.0000
  H   H1759     1.0  0.55257  0.18305  0.33519  1.0000
  H   H1760     1.0  0.57312  0.20942  0.28785  1.0000
  H   H1761     1.0  0.60791  0.19138  0.29013  1.0000
  H   H1762     1.0  0.39827  0.25598  0.35922  1.0000
  H   H1763     1.0  0.39680  0.47091  0.34020  1.0000
  C   C1032     1.0  0.53174  0.30970  0.37104  1.0000
  C   C1033     1.0  0.51490  0.30830  0.38274  1.0000
  C   C1034     1.0  0.50237  0.29355  0.38320  1.0000
  C   C1035     1.0  0.50607  0.28047  0.37168  1.0000
  C   C1036     1.0  0.52223  0.28265  0.35950  1.0000
  C   C1037     1.0  0.53516  0.29690  0.35934  1.0000
  H   H1764     1.0  0.51169  0.31832  0.39157  1.0000
  H   H1765     1.0  0.48977  0.29222  0.39258  1.0000
  H   H1766     1.0  0.52474  0.27337  0.35021  1.0000
  H   H1767     1.0  0.54786  0.29813  0.35003  1.0000
  C   C1038     1.0  0.51206  0.44534  0.37897  1.0000
  C   C1039     1.0  0.50507  0.46469  0.37136  1.0000
  H   H1768     1.0  0.54362  0.43366  0.45312  1.0000
  H   H1769     1.0  0.36947  0.24971  0.29046  1.0000
  H   H1770     1.0  0.50901  0.42435  0.40052  1.0000
  C   C1040     1.0  0.46428  0.44238  0.35986  1.0000
  C   C1041     1.0  0.63669  0.39257  0.37645  1.0000
  C   C1042     1.0  0.63177  0.40948  0.38440  1.0000
  H   H1771     1.0  0.42461  0.01967  0.35190  1.0000
  C   C1043     1.0  0.53385  0.28467  0.43355  1.0000
  H   H1772     1.0  0.61754  0.41168  0.39211  1.0000
  H   H1773     1.0  0.45731  0.10561  0.41590  1.0000
  C   C1044     1.0  0.56785  0.37333  0.45284  1.0000
  C   C1045     1.0  0.54811  0.36903  0.45490  1.0000
  H   H1774     1.0  0.46173  0.31249  0.33282  1.0000
  H   H1775     1.0  0.57624  0.37565  0.44107  1.0000
  H   H1776     1.0  0.41922  0.45579  0.39798  1.0000
  C   C1046     1.0  0.37327  0.25628  0.32088  1.0000
  C   C1047     1.0  0.38378  0.27084  0.31116  1.0000
  C   C1048     1.0  0.40487  0.26897  0.31024  1.0000
  C   C1049     1.0  0.41568  0.25256  0.31903  1.0000
  C   C1050     1.0  0.40516  0.23816  0.32895  1.0000
  C   C1051     1.0  0.38402  0.24008  0.32992  1.0000
  H   H1777     1.0  0.37563  0.28355  0.30436  1.0000
  H   H1778     1.0  0.41289  0.28021  0.30256  1.0000
  H   H1779     1.0  0.41332  0.22540  0.33572  1.0000
  H   H1780     1.0  0.37599  0.22877  0.33750  1.0000
  C   C1052     1.0  0.40382  0.21172  0.29505  1.0000
  H   H1781     1.0  0.34460  0.22174  0.28290  1.0000
  H   H1782     1.0  0.61484  0.41805  0.31601  1.0000
  H   H1783     1.0  0.41726  0.20936  0.30126  1.0000
  C   C1053     1.0  0.42981  0.12094  0.37747  1.0000
  C   C1054     1.0  0.44906  0.11414  0.38174  1.0000
  C   C1055     1.0  0.46327  0.12766  0.37957  1.0000
  C   C1056     1.0  0.45867  0.14799  0.37272  1.0000
  C   C1057     1.0  0.43959  0.15464  0.36807  1.0000
  C   C1058     1.0  0.42522  0.14124  0.37058  1.0000
  H   H1784     1.0  0.45288  0.09859  0.38701  1.0000
  H   H1785     1.0  0.47796  0.12233  0.38320  1.0000
  H   H1786     1.0  0.43576  0.17022  0.36287  1.0000
  H   H1787     1.0  0.41038  0.14670  0.36726  1.0000
  C   C1059     1.0  0.41287  0.26124  0.35921  1.0000
  H   H1788     1.0  0.57253  0.28901  0.43575  1.0000
  H   H1789     1.0  0.39961  0.31930  0.33370  1.0000
  C   C1060     1.0  0.34278  0.02199  0.37794  1.0000
  C   C1061     1.0  0.34923  0.02633  0.36168  1.0000
  C   C1062     1.0  0.33845  0.02124  0.35070  1.0000
  H   H1790     1.0  0.42428  0.25261  0.35122  1.0000
  C   C1063     1.0  0.50377  0.43921  0.39457  1.0000
  H   H1791     1.0  0.36273  0.03321  0.35759  1.0000
  H   H1792     1.0  0.34392  0.02413  0.33818  1.0000
  H   H1793     1.0  0.35556  0.47606  0.38815  1.0000
  H   H1794     1.0  0.48163  0.44713  0.41433  1.0000
  H   H1795     1.0  0.54529  0.28042  0.46280  1.0000
  H   H1796     1.0  0.41056  0.27056  0.27144  1.0000
  C   C1064     1.0  0.42581  0.11803  0.42212  1.0000
  H   H1797     1.0  0.43810  0.05779  0.44480  1.0000
  H   H1798     1.0  0.44664  0.27342  0.36917  1.0000
  C   C1065     1.0  0.37465  0.22215  0.25027  1.0000
  N   N74       1.0  0.59352  0.43297  0.34469  1.0000
  C   C1066     1.0  0.57493  0.43883  0.33660  1.0000
  C   C1067     1.0  0.58639  0.43179  0.36225  1.0000
  H   H1799     1.0  0.33492  0.47301  0.42384  1.0000
  C   C1068     1.0  0.41993  0.00579  0.34937  1.0000
  Fe  Fe160     1.0  0.32883  0.27741  0.30353  1.0000
  H   H1800     1.0  0.41968  0.09917  0.45411  1.0000
  H   H1801     1.0  0.41130  0.32188  0.35911  1.0000
  H   H1802     1.0  0.38337  0.27653  0.27626  1.0000
  H   H1803     1.0  0.61374  0.44877  0.32658  1.0000
  H   H1804     1.0  0.45324  0.07176  0.46401  1.0000
  H   H1805     1.0  0.44173  0.08662  0.42375  1.0000
  H   H1806     1.0  0.57598  0.42032  0.36615  1.0000
  H   H1807     1.0  0.50599  0.41406  0.45291  1.0000
  H   H1808     1.0  0.56328  0.42905  0.34219  1.0000
  H   H1809     1.0  0.51280  0.46299  0.46119  1.0000
  H   H1810     1.0  0.56780  0.45460  0.33801  1.0000
  S   S319      1.0  0.33897  0.27094  0.24646  1.0000
  H   H1811     1.0  0.51281  0.43744  0.44140  1.0000
  C   C1069     1.0  0.44493  0.28637  0.33975  1.0000
  C   C1070     1.0  0.38973  0.21843  0.26231  1.0000
  H   H1812     1.0  0.41085  0.34143  0.33240  1.0000
  H   H1813     1.0  0.43713  0.31699  0.37716  1.0000
  C   C1071     1.0  0.44776  0.30345  0.37390  1.0000
  H   H1814     1.0  0.47358  0.29144  0.34583  1.0000
  H   H1815     1.0  0.35900  0.22735  0.25558  1.0000
  H   H1816     1.0  0.39898  0.09595  0.41879  1.0000
  H   H1817     1.0  0.45441  0.29604  0.38468  1.0000
  H   H1818     1.0  0.43850  0.28839  0.32851  1.0000
  N   N75       1.0  0.57394  0.23264  0.34496  1.0000
  C   C1072     1.0  0.55361  0.23642  0.33928  1.0000
  C   C1073     1.0  0.57399  0.21432  0.35758  1.0000
  C   C1074     1.0  0.58998  0.22847  0.33103  1.0000
  C   C1075     1.0  0.57639  0.25139  0.35117  1.0000
  C   C1076     1.0  0.55123  0.25252  0.32451  1.0000
  C   C1077     1.0  0.55853  0.21665  0.37264  1.0000
  C   C1078     1.0  0.61042  0.21606  0.33457  1.0000
  C   C1079     1.0  0.59525  0.25040  0.35910  1.0000
  H   H1819     1.0  0.54989  0.22220  0.33651  1.0000
  H   H1820     1.0  0.54131  0.24117  0.34868  1.0000
  H   H1821     1.0  0.58891  0.20944  0.36165  1.0000
  H   H1822     1.0  0.57122  0.20105  0.35266  1.0000
  H   H1823     1.0  0.58450  0.21984  0.32321  1.0000
  H   H1824     1.0  0.59325  0.24285  0.32345  1.0000
  H   H1825     1.0  0.57709  0.26435  0.34143  1.0000
  H   H1826     1.0  0.56285  0.25669  0.35946  1.0000
  H   H1827     1.0  0.53563  0.25392  0.32176  1.0000
  H   H1828     1.0  0.55330  0.26772  0.32643  1.0000
  H   H1829     1.0  0.56142  0.24802  0.31386  1.0000
  H   H1830     1.0  0.54273  0.21888  0.37024  1.0000
  H   H1831     1.0  0.56051  0.20245  0.38113  1.0000
  H   H1832     1.0  0.56081  0.22909  0.37865  1.0000
  H   H1833     1.0  0.61759  0.22250  0.34268  1.0000
  H   H1834     1.0  0.62100  0.21568  0.32330  1.0000
  H   H1835     1.0  0.60888  0.20003  0.33928  1.0000
  H   H1836     1.0  0.60821  0.25454  0.35018  1.0000
  H   H1837     1.0  0.59972  0.23557  0.36609  1.0000
  H   H1838     1.0  0.59188  0.26131  0.36777  1.0000
  C   C1080     1.0  0.39922  0.47215  0.35233  1.0000
  C   C1081     1.0  0.44772  0.45311  0.37144  1.0000
  H   H1839     1.0  0.57020  0.27940  0.41047  1.0000
  C   C1082     1.0  0.52897  0.27952  0.41800  1.0000
  C   C1083     1.0  0.42007  0.46014  0.35550  1.0000
  C   C1084     1.0  0.39964  0.09635  0.43147  1.0000
  H   H1840     1.0  0.53952  0.33506  0.42096  1.0000
  C   C1085     1.0  0.51863  0.42246  0.44772  1.0000
  H   H1841     1.0  0.36650  0.10419  0.43780  1.0000
  H   H1842     1.0  0.46029  0.30837  0.36501  1.0000
  C   C1086     1.0  0.57267  0.29500  0.41097  1.0000
  H   H1843     1.0  0.63613  0.45653  0.34231  1.0000
  H   H1844     1.0  0.43565  0.32505  0.34894  1.0000
  H   H1845     1.0  0.58926  0.29496  0.40850  1.0000
  H   H1846     1.0  0.42871  0.45673  0.34390  1.0000
  H   H1847     1.0  0.41690  0.44523  0.36225  1.0000
  H   H1848     1.0  0.59911  0.42611  0.36913  1.0000
  H   H1849     1.0  0.47575  0.45223  0.35430  1.0000
  H   H1850     1.0  0.45551  0.45905  0.37953  1.0000
  H   H1851     1.0  0.37912  0.23329  0.23986  1.0000
  H   H1852     1.0  0.39765  0.29150  0.36113  1.0000
  C   C1087     1.0  0.60377  0.41190  0.34194  1.0000
  H   H1853     1.0  0.42032  0.22790  0.27484  1.0000
  H   H1854     1.0  0.36649  0.20786  0.29119  1.0000
  H   H1855     1.0  0.51149  0.46952  0.35930  1.0000
  C   C1088     1.0  0.39593  0.27260  0.26686  1.0000
  C   C1089     1.0  0.38622  0.98414  0.34738  1.0000
  H   H1856     1.0  0.39589  0.11373  0.45864  1.0000
  H   H1857     1.0  0.44975  0.26982  0.34265  1.0000
  C   C1090     1.0  0.41034  0.11383  0.45041  1.0000
  H   H1858     1.0  0.39920  0.45781  0.38604  1.0000
  H   H1859     1.0  0.37215  0.15014  0.41275  1.0000
  H   H1860     1.0  0.44002  0.44089  0.37897  1.0000
  H   H1861     1.0  0.43022  0.13317  0.42183  1.0000
  H   H1862     1.0  0.37565  0.07782  0.43875  1.0000
  H   H1863     1.0  0.41649  0.25721  0.37145  1.0000
  C   C1091     1.0  0.42029  0.13087  0.45425  1.0000
  C   C1092     1.0  0.50960  0.32738  0.42573  1.0000
  H   H1864     1.0  0.54431  0.27156  0.43860  1.0000
  H   H1865     1.0  0.62029  0.45063  0.36055  1.0000
  H   H1866     1.0  0.58971  0.44658  0.31209  1.0000
  H   H1867     1.0  0.56356  0.44447  0.31413  1.0000
  C   C1093     1.0  0.54842  0.29611  0.46186  1.0000
  H   H1868     1.0  0.38732  0.20403  0.26999  1.0000
  H   H1869     1.0  0.56087  0.45702  0.36355  1.0000
  C   C1094     1.0  0.43661  0.28834  0.36858  1.0000
  H   H1870     1.0  0.57150  0.44857  0.38128  1.0000
  H   H1871     1.0  0.31979  0.00988  0.39549  1.0000
  H   H1872     1.0  0.32267  0.45187  0.42392  1.0000
  C   C1095     1.0  0.48830  0.45217  0.40238  1.0000
  H   H1873     1.0  0.40533  0.24289  0.28870  1.0000
  H   H1874     1.0  0.53270  0.26291  0.41796  1.0000
  H   H1875     1.0  0.48892  0.03836  0.45422  1.0000
  H   H1876     1.0  0.40516  0.21506  0.25563  1.0000
  H   H1877     1.0  0.56629  0.30576  0.40132  1.0000
  H   H1878     1.0  0.52194  0.31293  0.45323  1.0000
  H   H1879     1.0  0.41067  0.14582  0.45249  1.0000
  H   H1880     1.0  0.52802  0.41382  0.43856  1.0000
  H   H1881     1.0  0.47254  0.42897  0.36661  1.0000
  H   H1882     1.0  0.64170  0.16243  0.23878  1.0000
  C   C1096     1.0  0.48111  0.47140  0.39474  1.0000
  H   H1883     1.0  0.34798  0.25253  0.21807  1.0000
  H   H1884     1.0  0.51945  0.28503  0.44192  1.0000
  H   H1885     1.0  0.37461  0.20780  0.24574  1.0000
  C   C1097     1.0  0.40516  0.23024  0.28214  1.0000
  C   C1098     1.0  0.39114  0.13373  0.43003  1.0000
  C   C1099     1.0  0.61985  0.40990  0.32713  1.0000
  H   H1886     1.0  0.40588  0.28617  0.34144  1.0000
  C   C1100     1.0  0.38382  0.13649  0.41377  1.0000
  H   H1887     1.0  0.40754  0.25004  0.25159  1.0000
  H   H1888     1.0  0.39594  0.28584  0.25735  1.0000
  H   H1889     1.0  0.42374  0.28627  0.37826  1.0000
  H   H1890     1.0  0.50969  0.02000  0.45981  1.0000
  N   N76       1.0  0.40675  0.11548  0.43352  1.0000
  H   H1891     1.0  0.39710  0.14789  0.43040  1.0000
  H   H1892     1.0  0.42325  0.11764  0.40989  1.0000
  H   H1893     1.0  0.36933  0.98788  0.37757  1.0000
  H   H1894     1.0  0.50608  0.33612  0.43585  1.0000
  H   H1895     1.0  0.37671  0.12358  0.41217  1.0000
  H   H1896     1.0  0.37761  0.13368  0.43929  1.0000
  C   C1101     1.0  0.46449  0.29584  0.33600  1.0000
  S   S320      1.0  0.34172  0.29825  0.28279  1.0000
  H   H1897     1.0  0.64481  0.09291  0.28698  1.0000
  H   H1898     1.0  0.41060  0.08285  0.43498  1.0000
  C   C1102     1.0  0.41413  0.32464  0.33372  1.0000
  C   C1103     1.0  0.60738  0.44864  0.33925  1.0000
  C   C1104     1.0  0.37909  0.09234  0.44114  1.0000
  H   H1899     1.0  0.63401  0.41500  0.32851  1.0000
  H   H1900     1.0  0.44903  0.10151  0.43668  1.0000
  H   H1901     1.0  0.35795  0.25063  0.27355  1.0000
  H   H1902     1.0  0.37939  0.09043  0.45405  1.0000
  C   C1105     1.0  0.64545  0.42346  0.38250  1.0000
  H   H1903     1.0  0.39295  0.01023  0.36636  1.0000
  H   H1904     1.0  0.42496  0.32074  0.32321  1.0000
  H   H1905     1.0  0.54343  0.32557  0.44818  1.0000
  H   H1906     1.0  0.38687  0.46526  0.36036  1.0000
  H   H1907     1.0  0.59232  0.40205  0.34173  1.0000
  H   H1908     1.0  0.40400  0.19755  0.29026  1.0000
  N   N77       1.0  0.42919  0.29410  0.35267  1.0000
  C   C1106     1.0  0.41069  0.28422  0.35334  1.0000
  C   C1107     1.0  0.42288  0.31669  0.34931  1.0000
  H   H1909     1.0  0.39733  0.98228  0.33651  1.0000
  C   C1108     1.0  0.53838  0.31066  0.44872  1.0000
  C   C1109     1.0  0.40879  0.46634  0.39073  1.0000
  H   H1910     1.0  0.57104  0.31517  0.42803  1.0000
  C   C1110     1.0  0.57538  0.45160  0.36821  1.0000
  H   H1911     1.0  0.45797  0.43694  0.35066  1.0000
  H   H1912     1.0  0.58112  0.42184  0.31646  1.0000
  H   H1913     1.0  0.38129  0.25910  0.25237  1.0000
  C   C1111     1.0  0.57791  0.43778  0.31878  1.0000
  H   H1914     1.0  0.58490  0.46379  0.36556  1.0000
  H   H1915     1.0  0.59895  0.46420  0.33972  1.0000
  H   H1916     1.0  0.51250  0.28317  0.41746  1.0000
  Fe  Fe161     1.0  0.32416  0.28460  0.26856  1.0000
  C   C1112     1.0  0.56487  0.30112  0.42750  1.0000
  H   H1917     1.0  0.61183  0.40426  0.35197  1.0000
  H   H1918     1.0  0.62388  0.39363  0.32574  1.0000
  C   C1113     1.0  0.35706  0.22279  0.28938  1.0000
  C   C1114     1.0  0.39346  0.25383  0.25990  1.0000
  C   C1115     1.0  0.33540  0.26457  0.21667  1.0000
  H   H1919     1.0  0.53726  0.28662  0.40699  1.0000
  H   H1920     1.0  0.39053  0.21440  0.30422  1.0000
  C   C1116     1.0  0.53258  0.32126  0.42146  1.0000
  H   H1921     1.0  0.50132  0.31423  0.42834  1.0000
  H   H1922     1.0  0.49428  0.44706  0.46429  1.0000
  C   C1117     1.0  0.36834  0.24064  0.28121  1.0000
  H   H1923     1.0  0.53535  0.31825  0.40908  1.0000
  N   N78       1.0  0.54231  0.30410  0.43251  1.0000
  H   H1924     1.0  0.34958  0.22596  0.30132  1.0000
  S   S321      1.0  0.33020  0.46976  0.36666  1.0000
  H   H1925     1.0  0.41284  0.01016  0.33844  1.0000
  C   C1118     1.0  0.53197  0.42454  0.45991  1.0000
  C   C1119     1.0  0.62528  0.44630  0.34857  1.0000
  H   H1926     1.0  0.45637  0.98543  0.42578  1.0000
  C   C1120     1.0  0.41542  0.04547  0.46238  1.0000
  N   N79       1.0  0.43261  0.46965  0.36416  1.0000
  H   H1927     1.0  0.39877  0.47590  0.39897  1.0000
  C   C1121     1.0  0.43201  0.05576  0.45721  1.0000
  C   C1122     1.0  0.48969  0.47775  0.37924  1.0000
  H   H1928     1.0  0.43550  0.13171  0.44738  1.0000
  C   C1123     1.0  0.64842  0.15683  0.22782  1.0000
  C   C1124     1.0  0.40528  0.99755  0.36372  1.0000
  C   C1125     1.0  0.32495  0.01334  0.38296  1.0000
  H   H1929     1.0  0.32564  0.07264  0.32259  1.0000
  H   H1930     1.0  0.54034  0.40923  0.46330  1.0000
  H   H1931     1.0  0.37931  0.00036  0.34576  1.0000
  H   H1932     1.0  0.56494  0.29631  0.46026  1.0000
  H   H1933     1.0  0.64546  0.07737  0.27225  1.0000
  C   C1126     1.0  0.32800  0.27641  0.22883  1.0000
  H   H1934     1.0  0.48416  0.01409  0.46431  1.0000
  C   C1127     1.0  0.32085  0.01220  0.35576  1.0000
  H   H1935     1.0  0.43402  0.99498  0.34729  1.0000
  H   H1936     1.0  0.63364  0.43069  0.34969  1.0000
  C   C1128     1.0  0.42033  0.48004  0.37751  1.0000
  H   H1937     1.0  0.45428  0.47722  0.34343  1.0000
  H   H1938     1.0  0.59208  0.37789  0.46445  1.0000
  H   H1939     1.0  0.41389  0.99451  0.37389  1.0000
  C   C1129     1.0  0.46482  0.98226  0.38297  1.0000
  H   H1940     1.0  0.39471  0.98307  0.39566  1.0000
  H   H1941     1.0  0.32026  0.47451  0.39894  1.0000
  C   C1130     1.0  0.31992  0.46845  0.42412  1.0000
  C   C1131     1.0  0.57677  0.37463  0.46610  1.0000
  H   H1942     1.0  0.64397  0.14874  0.66056  1.0000
  Fe  Fe162     1.0  0.59787  0.23262  0.70181  1.0000
  S   S322      1.0  0.62926  0.24001  0.69938  1.0000
  S   S323      1.0  0.58452  0.23840  0.67872  1.0000
  Fe  Fe163     1.0  0.47022  0.21699  0.62647  1.0000
  S   S324      1.0  0.48482  0.18490  0.63246  1.0000
  S   S325      1.0  0.43967  0.23010  0.63864  1.0000
  Fe  Fe164     1.0  0.50547  0.22844  0.60161  1.0000
  S   S326      1.0  0.52250  0.19677  0.60601  1.0000
  S   S327      1.0  0.52251  0.24994  0.58271  1.0000
  Fe  Fe165     1.0  0.49311  0.18531  0.60611  1.0000
  S   S328      1.0  0.49546  0.15768  0.59310  1.0000
  Fe  Fe166     1.0  0.51278  0.19887  0.63183  1.0000
  S   S329      1.0  0.53178  0.18694  0.65166  1.0000
  S   S330      1.0  0.47669  0.21691  0.60001  1.0000
  S   S331      1.0  0.49762  0.23102  0.62753  1.0000
  Fe  Fe167     1.0  0.44183  0.08017  0.55510  1.0000
  S   S332      1.0  0.44346  0.04908  0.56936  1.0000
  S   S333      1.0  0.43777  0.10948  0.56635  1.0000
  Fe  Fe168     1.0  0.44020  0.06259  0.52450  1.0000
  S   S334      1.0  0.44165  0.03047  0.53686  1.0000
  S   S335      1.0  0.44436  0.07093  0.49760  1.0000
  Fe  Fe169     1.0  0.41936  0.04372  0.55618  1.0000
  S   S336      1.0  0.39485  0.02740  0.57201  1.0000
  Fe  Fe170     1.0  0.46540  0.03818  0.54896  1.0000
  S   S337      1.0  0.49587  0.01878  0.55143  1.0000
  S   S338      1.0  0.41618  0.07555  0.54303  1.0000
  S   S339      1.0  0.46543  0.06965  0.53553  1.0000
  Fe  Fe171     1.0  0.53076  0.36861  0.55113  1.0000
  S   S340      1.0  0.56460  0.36329  0.54524  1.0000
  S   S341      1.0  0.51142  0.34674  0.56738  1.0000
  Fe  Fe172     1.0  0.52795  0.41306  0.53502  1.0000
  S   S342      1.0  0.56160  0.41057  0.52833  1.0000
  S   S343      1.0  0.51176  0.44342  0.52478  1.0000
  Fe  Fe173     1.0  0.55941  0.38069  0.52127  1.0000
  S   S344      1.0  0.57765  0.37389  0.49777  1.0000
  Fe  Fe174     1.0  0.56371  0.39380  0.55269  1.0000
  S   S345      1.0  0.58292  0.39802  0.57077  1.0000
  S   S346      1.0  0.52560  0.38406  0.52656  1.0000
  S   S347      1.0  0.53003  0.39827  0.55998  1.0000
  C   C1132     1.0  0.49211  0.45902  0.53502  1.0000
  C   C1133     1.0  0.48361  0.45294  0.55059  1.0000
  C   C1134     1.0  0.50581  0.45141  0.47015  1.0000
  H   H1943     1.0  0.49626  0.06228  0.50269  1.0000
  C   C1135     1.0  0.63766  0.19414  0.67529  1.0000
  H   H1944     1.0  0.48885  0.43813  0.55663  1.0000
  H   H1945     1.0  0.35584  0.09286  0.56703  1.0000
  H   H1946     1.0  0.64502  0.16407  0.63489  1.0000
  C   C1136     1.0  0.56597  0.37191  0.48145  1.0000
  N   N80       1.0  0.54264  0.47063  0.56132  1.0000
  C   C1137     1.0  0.54627  0.36751  0.48347  1.0000
  C   C1138     1.0  0.40813  0.04231  0.47864  1.0000
  H   H1947     1.0  0.53793  0.36506  0.49524  1.0000
  C   C1139     1.0  0.59996  0.41574  0.56901  1.0000
  C   C1140     1.0  0.60358  0.42961  0.55530  1.0000
  C   C1141     1.0  0.61664  0.44389  0.55470  1.0000
  C   C1142     1.0  0.62631  0.44444  0.56774  1.0000
  C   C1143     1.0  0.60981  0.41616  0.58195  1.0000
  H   H1948     1.0  0.59626  0.42938  0.54521  1.0000
  S   S348      1.0  0.32230  0.26318  0.71029  1.0000
  H   H1949     1.0  0.52219  0.18695  0.51572  1.0000
  H   H1950     1.0  0.60256  0.19028  0.66505  1.0000
  H   H1951     1.0  0.52149  0.23352  0.70001  1.0000
  H   H1952     1.0  0.49845  0.16195  0.55593  1.0000
  C   C1144     1.0  0.63756  0.19096  0.64730  1.0000
  C   C1145     1.0  0.52471  0.18715  0.56160  1.0000
  C   C1146     1.0  0.54816  0.36538  0.59757  1.0000
  C   C1147     1.0  0.33227  0.01799  0.56346  1.0000
  H   H1953     1.0  0.60695  0.17772  0.69363  1.0000
  C   C1148     1.0  0.43312  0.06062  0.48439  1.0000
  C   C1149     1.0  0.41697  0.04976  0.48962  1.0000
  H   H1954     1.0  0.41106  0.04739  0.50208  1.0000
  C   C1150     1.0  0.37063  0.02467  0.56839  1.0000
  H   H1955     1.0  0.47242  0.17106  0.55552  1.0000
  C   C1151     1.0  0.34561  0.02669  0.55096  1.0000
  C   C1152     1.0  0.36470  0.03002  0.55338  1.0000
  N   N81       1.0  0.52167  0.43371  0.47448  1.0000
  H   H1956     1.0  0.37489  0.03648  0.54361  1.0000
  C   C1153     1.0  0.51898  0.27689  0.57861  1.0000
  C   C1154     1.0  0.50302  0.28899  0.58659  1.0000
  C   C1155     1.0  0.50077  0.31028  0.58278  1.0000
  C   C1156     1.0  0.51448  0.31979  0.57103  1.0000
  C   C1157     1.0  0.53048  0.30768  0.56307  1.0000
  C   C1158     1.0  0.53267  0.28639  0.56684  1.0000
  H   H1957     1.0  0.49233  0.28195  0.59562  1.0000
  H   H1958     1.0  0.48834  0.31946  0.58902  1.0000
  H   H1959     1.0  0.54113  0.31472  0.55400  1.0000
  H   H1960     1.0  0.54506  0.27720  0.56057  1.0000
  C   C1159     1.0  0.47884  0.14408  0.58648  1.0000
  C   C1160     1.0  0.48706  0.12639  0.57972  1.0000
  C   C1161     1.0  0.47482  0.11554  0.57363  1.0000
  C   C1162     1.0  0.45408  0.12230  0.57410  1.0000
  C   C1163     1.0  0.44586  0.14003  0.58083  1.0000
  C   C1164     1.0  0.45808  0.15080  0.58703  1.0000
  H   H1961     1.0  0.50307  0.12100  0.57916  1.0000
  H   H1962     1.0  0.48147  0.10199  0.56853  1.0000
  H   H1963     1.0  0.42991  0.14557  0.58122  1.0000
  H   H1964     1.0  0.45146  0.16440  0.59207  1.0000
  C   C1165     1.0  0.56881  0.22435  0.67206  1.0000
  C   C1166     1.0  0.56457  0.20555  0.68013  1.0000
  C   C1167     1.0  0.55334  0.19418  0.67366  1.0000
  C   C1168     1.0  0.54565  0.20182  0.65939  1.0000
  C   C1169     1.0  0.54928  0.22093  0.65162  1.0000
  C   C1170     1.0  0.56100  0.23203  0.65785  1.0000
  H   H1965     1.0  0.57024  0.19966  0.69119  1.0000
  H   H1966     1.0  0.55044  0.17946  0.67980  1.0000
  H   H1967     1.0  0.54348  0.22695  0.64063  1.0000
  H   H1968     1.0  0.56418  0.24658  0.65155  1.0000
  C   C1171     1.0  0.41490  0.20273  0.68883  1.0000
  C   C1172     1.0  0.40551  0.22129  0.68180  1.0000
  C   C1173     1.0  0.41300  0.22935  0.66627  1.0000
  C   C1174     1.0  0.42996  0.21898  0.65774  1.0000
  C   C1175     1.0  0.43911  0.20029  0.66474  1.0000
  C   C1176     1.0  0.43157  0.19219  0.68020  1.0000
  H   H1969     1.0  0.39259  0.22952  0.68833  1.0000
  H   H1970     1.0  0.40577  0.24379  0.66091  1.0000
  H   H1971     1.0  0.45203  0.19206  0.65827  1.0000
  H   H1972     1.0  0.43883  0.17776  0.68554  1.0000
  H   H1973     1.0  0.51967  0.22069  0.68413  1.0000
  C   C1177     1.0  0.52736  0.18623  0.52732  1.0000
  H   H1974     1.0  0.48957  0.17623  0.53800  1.0000
  H   H1975     1.0  0.55052  0.36930  0.58452  1.0000
  C   C1178     1.0  0.53768  0.30350  0.62080  1.0000
  H   H1976     1.0  0.54391  0.18638  0.52462  1.0000
  H   H1977     1.0  0.59536  0.31011  0.57966  1.0000
  N   N82       1.0  0.65241  0.98725  0.61293  1.0000
  H   H1978     1.0  0.58293  0.46766  0.57106  1.0000
  H   H1979     1.0  0.56679  0.43448  0.48907  1.0000
  H   H1980     1.0  0.36140  0.10778  0.69609  1.0000
  H   H1981     1.0  0.63024  0.43057  0.59145  1.0000
  N   N83       1.0  0.38930  0.48039  0.55164  1.0000
  H   H1982     1.0  0.39822  0.11657  0.70061  1.0000
  C   C1179     1.0  0.63485  0.17877  0.63451  1.0000
  H   H1983     1.0  0.51922  0.04456  0.50058  1.0000
  H   H1984     1.0  0.37692  0.45305  0.55174  1.0000
  N   N84       1.0  0.55813  0.32644  0.59947  1.0000
  H   H1985     1.0  0.52855  0.34387  0.59690  1.0000
  H   H1986     1.0  0.52573  0.00657  0.51479  1.0000
  H   H1987     1.0  0.34886  0.46044  0.57573  1.0000
  H   H1988     1.0  0.54225  0.30142  0.47341  1.0000
  C   C1180     1.0  0.51326  0.41789  0.48709  1.0000
  C   C1181     1.0  0.50157  0.99365  0.54707  1.0000
  C   C1182     1.0  0.58068  0.31223  0.57522  1.0000
  H   H1989     1.0  0.37913  0.47752  0.52978  1.0000
  H   H1990     1.0  0.54601  0.20536  0.56675  1.0000
  C   C1183     1.0  0.54823  0.30758  0.60361  1.0000
  H   H1991     1.0  0.49173  0.01999  0.51898  1.0000
  H   H1992     1.0  0.46163  0.46136  0.57037  1.0000
  H   H1993     1.0  0.56908  0.44804  0.58234  1.0000
  H   H1994     1.0  0.53251  0.44522  0.55453  1.0000
  H   H1995     1.0  0.52452  0.17146  0.53416  1.0000
  H   H1996     1.0  0.53616  0.34328  0.61561  1.0000
  H   H1997     1.0  0.52651  0.17165  0.55864  1.0000
  H   H1998     1.0  0.49219  0.24111  0.53974  1.0000
  C   C1184     1.0  0.49152  0.23889  0.55276  1.0000
  C   C1185     1.0  0.50794  0.22189  0.55865  1.0000
  H   H1999     1.0  0.40666  0.04769  0.59580  1.0000
  H   H2000     1.0  0.55295  0.33289  0.57508  1.0000
  S   S349      1.0  0.62816  0.28806  0.71581  1.0000
  H   H2001     1.0  0.62676  0.20539  0.64617  1.0000
  H   H2002     1.0  0.50360  0.21198  0.52864  1.0000
  C   C1186     1.0  0.35678  0.07585  0.61798  1.0000
  C   C1187     1.0  0.48948  0.19491  0.55648  1.0000
  H   H2003     1.0  0.47784  0.20616  0.55095  1.0000
  C   C1188     1.0  0.35715  0.01634  0.58097  1.0000
  H   H2004     1.0  0.48671  0.99245  0.48789  1.0000
  H   H2005     1.0  0.38361  0.45494  0.56996  1.0000
  C   C1189     1.0  0.33806  0.01303  0.57855  1.0000
  N   N85       1.0  0.47784  0.23576  0.68266  1.0000
  C   C1190     1.0  0.48001  0.25491  0.67109  1.0000
  C   C1191     1.0  0.49066  0.23555  0.69531  1.0000
  C   C1192     1.0  0.45585  0.23665  0.68979  1.0000
  C   C1193     1.0  0.48468  0.21804  0.67361  1.0000
  C   C1194     1.0  0.46532  0.26027  0.65871  1.0000
  C   C1195     1.0  0.51353  0.23445  0.68966  1.0000
  H   H2006     1.0  0.60430  0.30864  0.61213  1.0000
  C   C1196     1.0  0.48640  0.19666  0.68327  1.0000
  H   H2007     1.0  0.47795  0.26826  0.67747  1.0000
  H   H2008     1.0  0.49546  0.25411  0.66421  1.0000
  H   H2009     1.0  0.63995  0.18540  0.68708  1.0000
  H   H2010     1.0  0.61504  0.15227  0.68882  1.0000
  C   C1197     1.0  0.36507  0.16084  0.70578  1.0000
  H   H2011     1.0  0.44695  0.23270  0.68142  1.0000
  H   H2012     1.0  0.47420  0.21804  0.66506  1.0000
  H   H2013     1.0  0.49934  0.21938  0.66579  1.0000
  H   H2014     1.0  0.46687  0.24822  0.65130  1.0000
  H   H2015     1.0  0.44933  0.26358  0.66413  1.0000
  H   H2016     1.0  0.46894  0.27412  0.65060  1.0000
  H   H2017     1.0  0.45061  0.99779  0.49959  1.0000
  C   C1198     1.0  0.51685  0.00950  0.49104  1.0000
  H   H2018     1.0  0.61896  0.17638  0.63529  1.0000
  N   N86       1.0  0.63479  0.18035  0.66411  1.0000
  C   C1199     1.0  0.46819  0.46611  0.55833  1.0000
  H   H2019     1.0  0.60494  0.00962  0.62870  1.0000
  H   H2020     1.0  0.47192  0.19063  0.68505  1.0000
  H   H2021     1.0  0.48893  0.22269  0.70493  1.0000
  H   H2022     1.0  0.49798  0.18629  0.67667  1.0000
  H   H2023     1.0  0.53731  0.42508  0.58441  1.0000
  H   H2024     1.0  0.63876  0.18756  0.62267  1.0000
  H   H2025     1.0  0.53573  0.37687  0.60205  1.0000
  C   C1200     1.0  0.48172  0.00341  0.49649  1.0000
  C   C1201     1.0  0.50403  0.04722  0.50748  1.0000
  N   N87       1.0  0.37519  0.13945  0.71005  1.0000
  H   H2026     1.0  0.38452  0.98244  0.53805  1.0000
  H   H2027     1.0  0.32791  0.00645  0.58830  1.0000
  H   H2028     1.0  0.62492  0.00655  0.64061  1.0000
  H   H2029     1.0  0.50107  0.47210  0.57752  1.0000
  H   H2030     1.0  0.41671  0.46355  0.56009  1.0000
  H   H2031     1.0  0.62376  0.20538  0.67752  1.0000
  H   H2032     1.0  0.58396  0.31647  0.56219  1.0000
  C   C1202     1.0  0.54602  0.19296  0.55986  1.0000
  H   H2033     1.0  0.33896  0.16558  0.69302  1.0000
  C   C1203     1.0  0.49095  0.03062  0.50778  1.0000
  H   H2034     1.0  0.58941  0.29476  0.60435  1.0000
  C   C1204     1.0  0.40655  0.14555  0.68944  1.0000
  C   C1205     1.0  0.52130  0.98318  0.54743  1.0000
  C   C1206     1.0  0.55626  0.42657  0.48475  1.0000
  H   H2035     1.0  0.48559  0.24928  0.70127  1.0000
  H   H2036     1.0  0.54287  0.45483  0.47261  1.0000
  H   H2037     1.0  0.58425  0.29835  0.62489  1.0000
  H   H2038     1.0  0.55631  0.17974  0.56488  1.0000
  C   C1207     1.0  0.62295  0.43035  0.58132  1.0000
  C   C1208     1.0  0.61997  0.00100  0.63076  1.0000
  H   H2039     1.0  0.58465  0.33761  0.60332  1.0000
  H   H2040     1.0  0.53261  0.99040  0.55078  1.0000
  C   C1209     1.0  0.53743  0.36599  0.47026  1.0000
  N   N88       1.0  0.50988  0.20192  0.55259  1.0000
  C   C1210     1.0  0.45901  0.01089  0.49596  1.0000
  H   H2041     1.0  0.49386  0.25336  0.55610  1.0000
  H   H2042     1.0  0.50658  0.04770  0.51974  1.0000
  C   C1211     1.0  0.58862  0.30568  0.61260  1.0000
  H   H2043     1.0  0.47510  0.03836  0.50926  1.0000
  H   H2044     1.0  0.39985  0.16114  0.68491  1.0000
  H   H2045     1.0  0.55023  0.45545  0.53130  1.0000
  C   C1212     1.0  0.54190  0.34414  0.60274  1.0000
  H   H2046     1.0  0.52748  0.21625  0.53192  1.0000
  H   H2047     1.0  0.34124  0.03066  0.53926  1.0000
  H   H2048     1.0  0.59034  0.16498  0.68645  1.0000
  H   H2049     1.0  0.34301  0.13073  0.69516  1.0000
  H   H2050     1.0  0.35760  0.18170  0.68487  1.0000
  H   H2051     1.0  0.53393  0.28784  0.62315  1.0000
  H   H2052     1.0  0.51577  0.98489  0.51122  1.0000
  C   C1213     1.0  0.57478  0.32613  0.60908  1.0000
  H   H2053     1.0  0.55537  0.43880  0.56224  1.0000
  C   C1214     1.0  0.51667  0.20509  0.53496  1.0000
  H   H2054     1.0  0.60717  0.40551  0.59262  1.0000
  H   H2055     1.0  0.48433  0.19345  0.56949  1.0000
  H   H2056     1.0  0.55891  0.29373  0.60139  1.0000
  H   H2057     1.0  0.52508  0.40464  0.48930  1.0000
  C   C1215     1.0  0.63509  0.00409  0.61547  1.0000
  H   H2058     1.0  0.48438  0.42011  0.47746  1.0000
  H   H2059     1.0  0.57293  0.46421  0.54859  1.0000
  H   H2060     1.0  0.64144  0.16343  0.71367  1.0000
  N   N89       1.0  0.49517  0.01959  0.49361  1.0000
  H   H2061     1.0  0.53668  0.30824  0.59579  1.0000
  C   C1216     1.0  0.55320  0.47105  0.53107  1.0000
  H   H2062     1.0  0.36158  0.01220  0.59264  1.0000
  H   H2063     1.0  0.51890  0.18539  0.57448  1.0000
  H   H2064     1.0  0.52235  0.22828  0.55545  1.0000
  H   H2065     1.0  0.43407  0.22442  0.70871  1.0000
  H   H2066     1.0  0.47621  0.23618  0.55866  1.0000
  H   H2067     1.0  0.50499  0.21973  0.57180  1.0000
  N   N90       1.0  0.38076  0.08819  0.59269  1.0000
  C   C1217     1.0  0.38359  0.10737  0.58137  1.0000
  C   C1218     1.0  0.37533  0.07351  0.58342  1.0000
  C   C1219     1.0  0.40066  0.07993  0.59869  1.0000
  C   C1220     1.0  0.36440  0.09349  0.60606  1.0000
  C   C1221     1.0  0.39067  0.12418  0.58813  1.0000
  C   C1222     1.0  0.35523  0.07981  0.57664  1.0000
  C   C1223     1.0  0.40432  0.05722  0.60535  1.0000
  H   H2068     1.0  0.53099  0.44789  0.49220  1.0000
  H   H2069     1.0  0.39471  0.10396  0.57076  1.0000
  H   H2070     1.0  0.36932  0.11450  0.57678  1.0000
  H   H2071     1.0  0.37445  0.05841  0.59050  1.0000
  H   H2072     1.0  0.38751  0.07067  0.57335  1.0000
  H   H2073     1.0  0.41354  0.08220  0.58904  1.0000
  H   H2074     1.0  0.40286  0.08834  0.60809  1.0000
  H   H2075     1.0  0.36962  0.10310  0.61329  1.0000
  H   H2076     1.0  0.35105  0.10333  0.60156  1.0000
  H   H2077     1.0  0.39350  0.13675  0.57838  1.0000
  H   H2078     1.0  0.37902  0.13064  0.59724  1.0000
  H   H2079     1.0  0.40511  0.11900  0.59293  1.0000
  H   H2080     1.0  0.34223  0.08299  0.58593  1.0000
  H   H2081     1.0  0.50381  0.47035  0.48894  1.0000
  H   H2082     1.0  0.51740  0.24805  0.68140  1.0000
  H   H2083     1.0  0.41850  0.05392  0.61070  1.0000
  C   C1224     1.0  0.49407  0.46223  0.48399  1.0000
  H   H2084     1.0  0.39214  0.05243  0.61463  1.0000
  H   H2085     1.0  0.45674  0.20717  0.70563  1.0000
  H   H2086     1.0  0.45255  0.02190  0.50420  1.0000
  C   C1225     1.0  0.54989  0.47695  0.57500  1.0000
  H   H2087     1.0  0.39538  0.03424  0.48277  1.0000
  H   H2088     1.0  0.55241  0.19736  0.54738  1.0000
  C   C1226     1.0  0.45076  0.22335  0.70580  1.0000
  H   H2089     1.0  0.54738  0.30477  0.62954  1.0000
  C   C1227     1.0  0.48782  0.17486  0.55106  1.0000
  C   C1228     1.0  0.56584  0.32960  0.58198  1.0000
  S   S350      1.0  0.64190  0.46335  0.56658  1.0000
  C   C1229     1.0  0.56968  0.46453  0.57996  1.0000
  H   H2090     1.0  0.34768  0.30103  0.71559  1.0000
  H   H2091     1.0  0.52317  0.31380  0.62268  1.0000
  H   H2092     1.0  0.36510  0.98352  0.56421  1.0000
  H   H2093     1.0  0.57435  0.29788  0.57714  1.0000
  H   H2094     1.0  0.41684  0.14622  0.69793  1.0000
  C   C1230     1.0  0.35544  0.16605  0.69041  1.0000
  H   H2095     1.0  0.56185  0.36696  0.60234  1.0000
  H   H2096     1.0  0.61918  0.45467  0.54411  1.0000
  H   H2097     1.0  0.38298  0.12989  0.68669  1.0000
  H   H2098     1.0  0.36218  0.15645  0.68123  1.0000
  H   H2099     1.0  0.44918  0.25239  0.69183  1.0000
  H   H2100     1.0  0.64082  0.01838  0.61582  1.0000
  H   H2101     1.0  0.61049  0.16522  0.66062  1.0000
  H   H2102     1.0  0.56819  0.33071  0.62085  1.0000
  H   H2103     1.0  0.40887  0.44056  0.54329  1.0000
  H   H2104     1.0  0.45588  0.22887  0.71556  1.0000
  H   H2105     1.0  0.50928  0.42329  0.49880  1.0000
  C   C1231     1.0  0.60635  0.16729  0.68525  1.0000
  H   H2106     1.0  0.49167  0.19564  0.69476  1.0000
  H   H2107     1.0  0.57385  0.34304  0.57876  1.0000
  H   H2108     1.0  0.48285  0.99413  0.50830  1.0000
  C   C1232     1.0  0.48705  0.98418  0.54275  1.0000
  C   C1233     1.0  0.61324  0.17616  0.66794  1.0000
  H   H2109     1.0  0.45589  0.01766  0.48389  1.0000
  H   H2110     1.0  0.48671  0.45173  0.49356  1.0000
  H   H2111     1.0  0.37557  0.17188  0.70521  1.0000
  H   H2112     1.0  0.51372  0.43707  0.57818  1.0000
  H   H2113     1.0  0.35667  0.06210  0.61278  1.0000
  H   H2114     1.0  0.55235  0.41429  0.49438  1.0000
  H   H2115     1.0  0.34073  0.08051  0.62282  1.0000
  C   C1234     1.0  0.35429  0.47128  0.56542  1.0000
  C   C1235     1.0  0.54035  0.44852  0.56387  1.0000
  H   H2116     1.0  0.52725  0.02065  0.48585  1.0000
  H   H2117     1.0  0.34499  0.47189  0.55592  1.0000
  C   C1236     1.0  0.44065  0.06349  0.46815  1.0000
  C   C1237     1.0  0.41112  0.47068  0.54882  1.0000
  H   H2118     1.0  0.35231  0.06706  0.57124  1.0000
  C   C1238     1.0  0.35030  0.11811  0.70307  1.0000
  C   C1239     1.0  0.39030  0.13196  0.69665  1.0000
  H   H2119     1.0  0.36568  0.07187  0.62799  1.0000
  C   C1240     1.0  0.52880  0.43986  0.57985  1.0000
  S   S351      1.0  0.40679  0.19245  0.70851  1.0000
  H   H2120     1.0  0.41609  0.13914  0.67921  1.0000
  H   H2121     1.0  0.47180  0.99199  0.54255  1.0000
  H   H2122     1.0  0.51899  0.99899  0.48213  1.0000
  C   C1241     1.0  0.37681  0.46426  0.55976  1.0000
  C   C1242     1.0  0.53742  0.44185  0.48098  1.0000
  H   H2123     1.0  0.64994  0.12831  0.70712  1.0000
  H   H2124     1.0  0.56471  0.41998  0.47426  1.0000
  H   H2125     1.0  0.52658  0.44923  0.58938  1.0000
  H   H2126     1.0  0.47559  0.04335  0.48118  1.0000
  H   H2127     1.0  0.48616  0.40407  0.49548  1.0000
  C   C1243     1.0  0.49105  0.03475  0.47928  1.0000
  C   C1244     1.0  0.52494  0.99695  0.50582  1.0000
  C   C1245     1.0  0.64849  0.16035  0.66637  1.0000
  H   H2128     1.0  0.41176  0.45977  0.52600  1.0000
  H   H2129     1.0  0.56634  0.47332  0.52176  1.0000
  H   H2130     1.0  0.50117  0.04649  0.47727  1.0000
  C   C1246     1.0  0.49514  0.40908  0.48395  1.0000
  H   H2131     1.0  0.64678  0.15366  0.67903  1.0000
  C   C1247     1.0  0.55843  0.47431  0.54703  1.0000
  H   H2132     1.0  0.54055  0.98936  0.50241  1.0000
  H   H2133     1.0  0.57235  0.46902  0.59109  1.0000
  H   H2134     1.0  0.52221  0.36250  0.47195  1.0000
  C   C1248     1.0  0.41598  0.45412  0.53794  1.0000
  H   H2135     1.0  0.62650  0.00794  0.60522  1.0000
  H   H2136     1.0  0.43258  0.44909  0.53629  1.0000
  H   H2137     1.0  0.50031  0.39577  0.47762  1.0000
  H   H2138     1.0  0.48190  0.47388  0.47954  1.0000
  C   C1249     1.0  0.48515  0.47828  0.52731  1.0000
  H   H2139     1.0  0.33818  0.10923  0.70914  1.0000
  H   H2140     1.0  0.34195  0.98416  0.54507  1.0000
  H   H2141     1.0  0.53858  0.47646  0.58579  1.0000
  H   H2142     1.0  0.51664  0.47814  0.54886  1.0000
  H   H2143     1.0  0.61732  0.98516  0.63448  1.0000
  H   H2144     1.0  0.65115  0.21962  0.66072  1.0000
  H   H2145     1.0  0.42230  0.12767  0.46694  1.0000
  H   H2146     1.0  0.38151  0.48017  0.58572  1.0000
  H   H2147     1.0  0.65196  0.32007  0.70489  1.0000
  C   C1250     1.0  0.35978  0.12522  0.71572  1.0000
  H   H2148     1.0  0.35287  0.16503  0.71539  1.0000
  H   H2149     1.0  0.40819  0.48141  0.57938  1.0000
  Fe  Fe175     1.0  0.46522  0.25600  0.85821  1.0000
  S   S352      1.0  0.49746  0.24151  0.85576  1.0000
  S   S353      1.0  0.45490  0.28132  0.87367  1.0000
  Fe  Fe176     1.0  0.45440  0.22800  0.83685  1.0000
  S   S354      1.0  0.48641  0.21141  0.83390  1.0000
  S   S355      1.0  0.43280  0.21485  0.82498  1.0000
  Fe  Fe177     1.0  0.48512  0.21202  0.86004  1.0000
  S   S356      1.0  0.49958  0.18998  0.87930  1.0000
  Fe  Fe178     1.0  0.49539  0.24237  0.83008  1.0000
  S   S357      1.0  0.51737  0.25667  0.81033  1.0000
  S   S358      1.0  0.45268  0.22644  0.86336  1.0000
  S   S359      1.0  0.46359  0.25905  0.83203  1.0000
  Fe  Fe179     1.0  0.59548  0.22276  0.73761  1.0000
  S   S360      1.0  0.52231  0.33142  0.95185  1.0000
  Fe  Fe180     1.0  0.48191  0.37734  0.94220  1.0000
  S   S361      1.0  0.51002  0.36904  0.92520  1.0000
  C   C1251     1.0  0.31961  0.01421  0.84493  1.0000
  Fe  Fe181     1.0  0.50327  0.33702  0.93210  1.0000
  S   S362      1.0  0.50921  0.31347  0.91491  1.0000
  Fe  Fe182     1.0  0.52650  0.36435  0.94639  1.0000
  S   S363      1.0  0.55768  0.37405  0.94521  1.0000
  S   S364      1.0  0.47414  0.34567  0.94789  1.0000
  H   H2150     1.0  0.39627  0.12420  0.72609  1.0000
  H   H2151     1.0  0.36413  0.13196  0.74463  1.0000
  H   H2152     1.0  0.64389  0.04755  0.92559  1.0000
  Fe  Fe183     1.0  0.47248  0.09774  0.94348  1.0000
  H   H2153     1.0  0.34564  0.27464  0.75618  1.0000
  S   S365      1.0  0.46660  0.11106  0.91852  1.0000
  S   S366      1.0  0.61685  0.48075  0.96503  1.0000
  S   S367      1.0  0.37342  0.01230  0.94764  1.0000
  H   H2154     1.0  0.32080  0.98273  0.87126  1.0000
  C   C1252     1.0  0.46186  0.23088  0.90011  1.0000
  S   S368      1.0  0.47461  0.06412  0.95231  1.0000
  H   H2155     1.0  0.40562  0.11132  0.95257  1.0000
  S   S369      1.0  0.37415  0.19554  0.74877  1.0000
  Fe  Fe184     1.0  0.34085  0.23912  0.72573  1.0000
  S   S370      1.0  0.33304  0.22892  0.75175  1.0000
  Fe  Fe185     1.0  0.36626  0.22798  0.75302  1.0000
  S   S371      1.0  0.37809  0.24499  0.76951  1.0000
  Fe  Fe186     1.0  0.34169  0.19735  0.74510  1.0000
  H   H2156     1.0  0.33602  0.32566  0.73336  1.0000
  S   S372      1.0  0.37338  0.24042  0.72718  1.0000
  S   S373      1.0  0.35515  0.47850  0.93289  1.0000
  H   H2157     1.0  0.57253  0.46923  0.96511  1.0000
  S   S374      1.0  0.57632  0.20858  0.75942  1.0000
  C   C1253     1.0  0.51713  0.21809  0.75915  1.0000
  H   H2158     1.0  0.38157  0.12925  0.93778  1.0000
  H   H2159     1.0  0.44548  0.31083  0.89513  1.0000
  S   S375      1.0  0.62684  0.22942  0.73779  1.0000
  H   H2160     1.0  0.37777  0.30651  0.76672  1.0000
  Fe  Fe187     1.0  0.34976  0.45575  0.95462  1.0000
  H   H2161     1.0  0.47289  0.26295  0.79531  1.0000
  C   C1254     1.0  0.65236  0.10100  0.74226  1.0000
  H   H2162     1.0  0.34383  0.28139  0.78405  1.0000
  H   H2163     1.0  0.46970  0.25395  0.91071  1.0000
  H   H2164     1.0  0.50191  0.19276  0.76826  1.0000
  H   H2165     1.0  0.57850  0.98185  0.96540  1.0000
  H   H2166     1.0  0.45780  0.24326  0.79971  1.0000
  C   C1255     1.0  0.41680  0.04104  0.95722  1.0000
  H   H2167     1.0  0.41237  0.40062  0.92510  1.0000
  H   H2168     1.0  0.39396  0.41459  0.89423  1.0000
  C   C1256     1.0  0.48656  0.23708  0.78367  1.0000
  C   C1257     1.0  0.38827  0.02303  0.95800  1.0000
  H   H2169     1.0  0.46691  0.37355  0.91519  1.0000
  C   C1258     1.0  0.56699  0.39097  0.95504  1.0000
  H   H2170     1.0  0.57984  0.04788  0.93295  1.0000
  S   S376      1.0  0.49884  0.37471  0.96274  1.0000
  H   H2171     1.0  0.53670  0.22361  0.90489  1.0000
  C   C1259     1.0  0.43613  0.36785  0.91635  1.0000
  H   H2172     1.0  0.51202  0.20183  0.78284  1.0000
  H   H2173     1.0  0.45459  0.38957  0.90019  1.0000
  H   H2174     1.0  0.59592  0.98237  0.94165  1.0000
  H   H2175     1.0  0.36656  0.11112  0.72277  1.0000
  C   C1260     1.0  0.58650  0.39600  0.94962  1.0000
  H   H2176     1.0  0.37948  0.06786  0.95838  1.0000
  S   S377      1.0  0.61275  0.02008  0.94514  1.0000
  H   H2177     1.0  0.59521  0.39012  0.93929  1.0000
  H   H2178     1.0  0.40399  0.35019  0.91757  1.0000
  H   H2179     1.0  0.54429  0.05850  0.94475  1.0000
  C   C1261     1.0  0.43603  0.41192  0.94316  1.0000
  C   C1262     1.0  0.42618  0.39755  0.95378  1.0000
  S   S378      1.0  0.44701  0.10633  0.96241  1.0000
  C   C1263     1.0  0.39410  0.42039  0.95336  1.0000
  C   C1264     1.0  0.40413  0.43506  0.94331  1.0000
  H   H2180     1.0  0.40803  0.07521  0.93299  1.0000
  H   H2181     1.0  0.42669  0.35726  0.87416  1.0000
  C   C1265     1.0  0.52447  0.22469  0.91513  1.0000
  S   S379      1.0  0.60504  0.20347  0.71793  1.0000
  C   C1266     1.0  0.45607  0.37408  0.90683  1.0000
  C   C1267     1.0  0.41789  0.22376  0.80940  1.0000
  C   C1268     1.0  0.41301  0.24433  0.80372  1.0000
  C   C1269     1.0  0.40088  0.25050  0.79152  1.0000
  C   C1270     1.0  0.39369  0.23623  0.78466  1.0000
  C   C1271     1.0  0.39886  0.21566  0.79015  1.0000
  C   C1272     1.0  0.41074  0.20951  0.80250  1.0000
  H   H2182     1.0  0.41826  0.25550  0.80893  1.0000
  H   H2183     1.0  0.39694  0.26646  0.78743  1.0000
  H   H2184     1.0  0.39340  0.20448  0.78509  1.0000
  H   H2185     1.0  0.41434  0.19356  0.80680  1.0000
  C   C1273     1.0  0.48947  0.16865  0.89043  1.0000
  C   C1274     1.0  0.47295  0.16181  0.88652  1.0000
  C   C1275     1.0  0.46597  0.14427  0.89533  1.0000
  C   C1276     1.0  0.47509  0.13372  0.90835  1.0000
  C   C1277     1.0  0.49125  0.14090  0.91252  1.0000
  C   C1278     1.0  0.49857  0.15811  0.90345  1.0000
  H   H2186     1.0  0.46586  0.16972  0.87648  1.0000
  H   H2187     1.0  0.45353  0.13875  0.89197  1.0000
  H   H2188     1.0  0.49855  0.13279  0.92238  1.0000
  H   H2189     1.0  0.51156  0.16308  0.90638  1.0000
  C   C1279     1.0  0.53443  0.24300  0.79669  1.0000
  C   C1280     1.0  0.54514  0.25369  0.78355  1.0000
  C   C1281     1.0  0.55837  0.24337  0.77218  1.0000
  C   C1282     1.0  0.56104  0.22223  0.77391  1.0000
  C   C1283     1.0  0.55052  0.21155  0.78717  1.0000
  C   C1284     1.0  0.53724  0.22186  0.79851  1.0000
  H   H2190     1.0  0.54308  0.27005  0.78206  1.0000
  H   H2191     1.0  0.56636  0.25176  0.76200  1.0000
  H   H2192     1.0  0.55255  0.19519  0.78861  1.0000
  H   H2193     1.0  0.52920  0.21345  0.80863  1.0000
  C   C1285     1.0  0.47001  0.28977  0.88542  1.0000
  C   C1286     1.0  0.49040  0.28183  0.88553  1.0000
  C   C1287     1.0  0.50209  0.28931  0.89457  1.0000
  C   C1288     1.0  0.49352  0.30465  0.90385  1.0000
  C   C1289     1.0  0.47299  0.31229  0.90406  1.0000
  C   C1290     1.0  0.46134  0.30489  0.89488  1.0000
  H   H2194     1.0  0.49713  0.26984  0.87870  1.0000
  H   H2195     1.0  0.51788  0.28308  0.89448  1.0000
  H   H2196     1.0  0.46614  0.32385  0.91131  1.0000
  C   C1291     1.0  0.39993  0.36671  0.91809  1.0000
  H   H2197     1.0  0.49615  0.23263  0.79328  1.0000
  H   H2198     1.0  0.34698  0.13213  0.72389  1.0000
  C   C1292     1.0  0.49674  0.18866  0.93429  1.0000
  H   H2199     1.0  0.34311  0.28021  0.73041  1.0000
  C   C1293     1.0  0.65024  0.28869  0.73991  1.0000
  C   C1294     1.0  0.47254  0.20532  0.79143  1.0000
  H   H2200     1.0  0.45361  0.23839  0.92375  1.0000
  H   H2201     1.0  0.34391  0.11511  0.93184  1.0000
  H   H2202     1.0  0.47556  0.23831  0.75654  1.0000
  H   H2203     1.0  0.48027  0.19748  0.91493  1.0000
  C   C1295     1.0  0.39750  0.09800  0.95620  1.0000
  H   H2204     1.0  0.47567  0.21238  0.75575  1.0000
  H   H2205     1.0  0.48037  0.20330  0.80201  1.0000
  C   C1296     1.0  0.41295  0.39962  0.91244  1.0000
  H   H2206     1.0  0.50960  0.22395  0.74856  1.0000
  H   H2207     1.0  0.39729  0.15051  0.72055  1.0000
  C   C1297     1.0  0.39874  0.09011  0.92970  1.0000
  H   H2208     1.0  0.40918  0.03069  0.93705  1.0000
  H   H2209     1.0  0.37970  0.40542  0.91298  1.0000
  H   H2210     1.0  0.34652  0.33116  0.75626  1.0000
  C   C1298     1.0  0.34700  0.31491  0.76132  1.0000
  H   H2211     1.0  0.60995  0.41216  0.95306  1.0000
  C   C1299     1.0  0.53732  0.45464  0.95849  1.0000
  H   H2212     1.0  0.42548  0.40792  0.90636  1.0000
  H   H2213     1.0  0.55316  0.00284  0.95285  1.0000
  H   H2214     1.0  0.64259  0.27651  0.74655  1.0000
  C   C1300     1.0  0.39333  0.41214  0.90726  1.0000
  H   H2215     1.0  0.38598  0.38434  0.93748  1.0000
  H   H2216     1.0  0.53286  0.45473  0.94673  1.0000
  H   H2217     1.0  0.53771  0.99023  0.92958  1.0000
  H   H2218     1.0  0.38192  0.35866  0.94086  1.0000
  H   H2219     1.0  0.32891  0.00604  0.83550  1.0000
  H   H2220     1.0  0.46357  0.36291  0.89890  1.0000
  H   H2221     1.0  0.40538  0.11999  0.91713  1.0000
  H   H2222     1.0  0.31926  0.27792  0.75787  1.0000
  C   C1301     1.0  0.52912  0.47529  0.96425  1.0000
  H   H2223     1.0  0.45543  0.21653  0.90325  1.0000
  H   H2224     1.0  0.46624  0.20342  0.93325  1.0000
  C   C1302     1.0  0.41342  0.10498  0.92157  1.0000
  H   H2225     1.0  0.50050  0.22590  0.94162  1.0000
  H   H2226     1.0  0.49495  0.24692  0.77419  1.0000
  H   H2227     1.0  0.41201  0.98309  0.95037  1.0000
  N   N91       1.0  0.48298  0.21846  0.77780  1.0000
  H   H2228     1.0  0.39148  0.42734  0.91100  1.0000
  H   H2229     1.0  0.40464  0.38341  0.88773  1.0000
  C   C1303     1.0  0.57454  0.04188  0.94503  1.0000
  H   H2230     1.0  0.42408  0.10674  0.92943  1.0000
  C   C1304     1.0  0.34768  0.29546  0.72841  1.0000
  H   H2231     1.0  0.43759  0.35110  0.91724  1.0000
  N   N92       1.0  0.38458  0.09643  0.94400  1.0000
  H   H2232     1.0  0.43254  0.44198  0.93000  1.0000
  H   H2233     1.0  0.52589  0.23811  0.92037  1.0000
  C   C1305     1.0  0.37122  0.08052  0.95093  1.0000
  C   C1306     1.0  0.37212  0.11688  0.94037  1.0000
  H   H2234     1.0  0.38405  0.14385  0.74812  1.0000
  C   C1307     1.0  0.36302  0.07020  0.93930  1.0000
  C   C1308     1.0  0.35898  0.11960  0.92710  1.0000
  C   C1309     1.0  0.33092  0.27732  0.77960  1.0000
  S   S380      1.0  0.32387  0.17112  0.75484  1.0000
  H   H2235     1.0  0.42285  0.09884  0.91117  1.0000
  H   H2236     1.0  0.45900  0.17768  0.79743  1.0000
  C   C1310     1.0  0.33183  0.28368  0.76158  1.0000
  H   H2237     1.0  0.50257  0.24172  0.90123  1.0000
  C   C1311     1.0  0.42500  0.43078  0.93817  1.0000
  H   H2238     1.0  0.51106  0.18543  0.92628  1.0000
  H   H2239     1.0  0.35240  0.06005  0.94617  1.0000
  H   H2240     1.0  0.43455  0.38300  0.95773  1.0000
  H   H2241     1.0  0.37527  0.06031  0.93283  1.0000
  H   H2242     1.0  0.35463  0.08098  0.93081  1.0000
  H   H2243     1.0  0.56389  0.32995  0.95861  1.0000
  H   H2244     1.0  0.43024  0.38676  0.88547  1.0000
  H   H2245     1.0  0.33212  0.26056  0.78222  1.0000
  C   C1312     1.0  0.33245  0.31013  0.73798  1.0000
  H   H2246     1.0  0.32739  0.01164  0.85550  1.0000
  H   H2247     1.0  0.64547  0.99878  0.91437  1.0000
  N   N93       1.0  0.41705  0.37781  0.90974  1.0000
  H   H2248     1.0  0.52271  0.23056  0.76306  1.0000
  H   H2249     1.0  0.47499  0.22927  0.89066  1.0000
  S   S381      1.0  0.46132  0.40610  0.93434  1.0000
  H   H2250     1.0  0.35681  0.13580  0.92178  1.0000
  C   C1313     1.0  0.54392  0.99051  0.95395  1.0000
  C   C1314     1.0  0.46732  0.23793  0.91463  1.0000
  C   C1315     1.0  0.39334  0.36877  0.93575  1.0000
  C   C1316     1.0  0.50393  0.22695  0.90914  1.0000
  C   C1317     1.0  0.48751  0.25662  0.93437  1.0000
  H   H2251     1.0  0.52747  0.21096  0.92376  1.0000
  H   H2252     1.0  0.47392  0.23039  0.94560  1.0000
  Fe  Fe188     1.0  0.63000  0.99090  0.95640  1.0000
  H   H2253     1.0  0.38630  0.37151  0.91205  1.0000
  C   C1318     1.0  0.40525  0.40176  0.95878  1.0000
  H   H2254     1.0  0.43987  0.34815  0.89062  1.0000
  H   H2255     1.0  0.36445  0.15876  0.73823  1.0000
  H   H2256     1.0  0.49942  0.19320  0.94534  1.0000
  H   H2257     1.0  0.48519  0.17357  0.78956  1.0000
  C   C1319     1.0  0.55440  0.04792  0.95167  1.0000
  H   H2258     1.0  0.36147  0.12074  0.95104  1.0000
  H   H2259     1.0  0.44249  0.21215  0.77197  1.0000
  C   C1320     1.0  0.53052  0.99584  0.94074  1.0000
  S   S382      1.0  0.34756  0.20777  0.71907  1.0000
  H   H2260     1.0  0.39060  0.08751  0.92038  1.0000
  N   N94       1.0  0.52747  0.30118  0.83881  1.0000
  C   C1321     1.0  0.50909  0.30551  0.83039  1.0000
  C   C1322     1.0  0.54489  0.30772  0.82691  1.0000
  C   C1323     1.0  0.52325  0.31401  0.85197  1.0000
  C   C1324     1.0  0.53089  0.27893  0.84530  1.0000
  C   C1325     1.0  0.48885  0.30176  0.84067  1.0000
  C   C1326     1.0  0.54997  0.29698  0.81205  1.0000
  C   C1327     1.0  0.54007  0.31237  0.86218  1.0000
  C   C1328     1.0  0.55251  0.26940  0.84845  1.0000
  H   H2261     1.0  0.50698  0.32149  0.82443  1.0000
  H   H2262     1.0  0.51101  0.29599  0.82083  1.0000
  H   H2263     1.0  0.55899  0.30570  0.83214  1.0000
  H   H2264     1.0  0.54186  0.32430  0.82274  1.0000
  H   H2265     1.0  0.51940  0.33030  0.84714  1.0000
  H   H2266     1.0  0.50991  0.31007  0.86057  1.0000
  H   H2267     1.0  0.52053  0.27582  0.85648  1.0000
  H   H2268     1.0  0.52697  0.26991  0.83698  1.0000
  H   H2269     1.0  0.48988  0.28656  0.84781  1.0000
  H   H2270     1.0  0.48303  0.31349  0.84849  1.0000
  H   H2271     1.0  0.47728  0.30257  0.83285  1.0000
  H   H2272     1.0  0.53878  0.30270  0.80377  1.0000
  H   H2273     1.0  0.56487  0.30022  0.80553  1.0000
  H   H2274     1.0  0.55089  0.28032  0.81495  1.0000
  H   H2275     1.0  0.55439  0.31643  0.85521  1.0000
  H   H2276     1.0  0.54252  0.29718  0.86930  1.0000
  H   H2277     1.0  0.53513  0.32323  0.87086  1.0000
  H   H2278     1.0  0.55145  0.25799  0.85929  1.0000
  H   H2279     1.0  0.56216  0.28000  0.85039  1.0000
  H   H2280     1.0  0.56033  0.26073  0.83880  1.0000
  H   H2281     1.0  0.50540  0.21546  0.90107  1.0000
  H   H2282     1.0  0.52769  0.01258  0.93757  1.0000
  C   C1329     1.0  0.44812  0.22675  0.76743  1.0000
  H   H2283     1.0  0.64664  0.02393  0.90495  1.0000
  C   C1330     1.0  0.48121  0.20397  0.92570  1.0000
  Fe  Fe189     1.0  0.65087  0.47783  0.96285  1.0000
  C   C1331     1.0  0.40517  0.03145  0.94959  1.0000
  C   C1332     1.0  0.42515  0.35579  0.88725  1.0000
  C   C1333     1.0  0.50344  0.20684  0.77263  1.0000
  H   H2284     1.0  0.45934  0.25936  0.78050  1.0000
  C   C1334     1.0  0.41914  0.37706  0.89226  1.0000
  H   H2285     1.0  0.42969  0.04755  0.95059  1.0000
  H   H2286     1.0  0.44169  0.23282  0.75632  1.0000
  H   H2287     1.0  0.49767  0.26194  0.92365  1.0000
  C   C1335     1.0  0.47142  0.22405  0.76384  1.0000
  H   H2288     1.0  0.45706  0.21260  0.79530  1.0000
  H   H2289     1.0  0.44173  0.23744  0.77588  1.0000
  H   H2290     1.0  0.34390  0.31525  0.77432  1.0000
  S   S383      1.0  0.49686  0.10226  0.95660  1.0000
  H   H2291     1.0  0.43552  0.37101  0.92863  1.0000
  H   H2292     1.0  0.45000  0.24243  0.89513  1.0000
  H   H2293     1.0  0.40607  0.36420  0.94270  1.0000
  C   C1336     1.0  0.58774  0.02792  0.95386  1.0000
  C   C1337     1.0  0.59494  0.40852  0.95742  1.0000
  C   C1338     1.0  0.36913  0.30512  0.75726  1.0000
  H   H2294     1.0  0.40951  0.08460  0.95729  1.0000
  H   H2295     1.0  0.49077  0.17402  0.93775  1.0000
  H   H2296     1.0  0.53079  0.20736  0.75546  1.0000
  H   H2297     1.0  0.41344  0.34597  0.89208  1.0000
  N   N95       1.0  0.48539  0.22554  0.92146  1.0000
  H   H2298     1.0  0.39573  0.44948  0.93913  1.0000
  C   C1339     1.0  0.58483  0.98239  0.93365  1.0000
  H   H2299     1.0  0.36332  0.29421  0.73079  1.0000
  C   C1340     1.0  0.47082  0.18397  0.78835  1.0000
  C   C1341     1.0  0.64578  0.29710  0.72480  1.0000
  H   H2300     1.0  0.37624  0.31278  0.74585  1.0000
  H   H2301     1.0  0.37110  0.28870  0.75687  1.0000
  C   C1342     1.0  0.37384  0.14368  0.73942  1.0000
  H   H2302     1.0  0.55397  0.45101  0.95685  1.0000
  H   H2303     1.0  0.46659  0.18405  0.77655  1.0000
  C   C1343     1.0  0.46779  0.25116  0.79010  1.0000
  H   H2304     1.0  0.36600  0.11141  0.91709  1.0000
  H   H2305     1.0  0.47218  0.26542  0.93385  1.0000
  N   N96       1.0  0.33100  0.30606  0.75580  1.0000
  Fe  Fe190     1.0  0.37931  0.20810  0.72291  1.0000
  Fe  Fe191     1.0  0.61853  0.25674  0.72013  1.0000
  H   H2306     1.0  0.35798  0.08679  0.95907  1.0000
  Fe  Fe192     1.0  0.35039  0.99124  0.95895  1.0000
  C   C1344     1.0  0.48693  0.23363  0.93632  1.0000
  H   H2307     1.0  0.49300  0.26027  0.94476  1.0000
  S   S384      1.0  0.36751  0.42409  0.95815  1.0000
  H   H2308     1.0  0.63582  0.10451  0.74598  1.0000
  C   C1345     1.0  0.38671  0.13917  0.72358  1.0000
  H   H2309     1.0  0.57641  0.99785  0.93116  1.0000
  S   S385      1.0  0.58631  0.25142  0.72145  1.0000
  H   H2310     1.0  0.53339  0.99237  0.96510  1.0000
  H   H2311     1.0  0.53169  0.14248  0.96094  1.0000
  H   H2312     1.0  0.51578  0.99033  0.94475  1.0000
  H   H2313     1.0  0.64886  0.07166  0.91537  1.0000
  Fe  Fe193     1.0  0.63562  0.21229  0.71696  1.0000
  H   H2314     1.0  0.44681  0.98316  0.96467  1.0000
  H   H2315     1.0  0.57995  0.30717  0.96517  1.0000
  Fe  Fe194     1.0  0.51594  0.69986  0.10870  1.0000
  S   S386      1.0  0.49901  0.73128  0.10450  1.0000
  S   S387      1.0  0.53512  0.68790  0.12856  1.0000
  Fe  Fe195     1.0  0.49977  0.68635  0.08095  1.0000
  S   S388      1.0  0.48096  0.71679  0.07576  1.0000
  S   S389      1.0  0.50869  0.66370  0.06323  1.0000
  Fe  Fe196     1.0  0.50810  0.72971  0.07848  1.0000
  S   S390      1.0  0.52326  0.75221  0.05981  1.0000
  Fe  Fe197     1.0  0.47338  0.71533  0.10227  1.0000
  S   S391      1.0  0.44240  0.72731  0.11433  1.0000
  S   S392      1.0  0.52730  0.69949  0.08285  1.0000
  S   S393      1.0  0.48999  0.68375  0.10744  1.0000
  Fe  Fe198     1.0  0.48922  0.83100  0.98845  1.0000
  H   H2316     1.0  0.33647  0.65455  0.19754  1.0000
  S   S394      1.0  0.47480  0.80979  0.00874  1.0000
  N   N97       1.0  0.48947  0.71822  0.02192  1.0000
  H   H2317     1.0  0.38128  0.67730  0.11393  1.0000
  Fe  Fe199     1.0  0.51761  0.86274  0.97738  1.0000
  S   S395      1.0  0.53531  0.88094  0.98859  1.0000
  H   H2318     1.0  0.49975  0.49986  0.98300  1.0000
  S   S396      1.0  0.48489  0.86475  0.98838  1.0000
  Fe  Fe200     1.0  0.46640  0.60601  0.00284  1.0000
  S   S397      1.0  0.48765  0.61601  0.98120  1.0000
  S   S398      1.0  0.45930  0.62014  0.02581  1.0000
  Fe  Fe201     1.0  0.44639  0.58064  0.98430  1.0000
  C   C1346     1.0  0.59668  0.49103  0.04153  1.0000
  C   C1347     1.0  0.40236  0.89507  0.98099  1.0000
  Fe  Fe202     1.0  0.49133  0.58372  0.97644  1.0000
  H   H2319     1.0  0.45823  0.95409  0.98273  1.0000
  H   H2320     1.0  0.47308  0.73037  0.13779  1.0000
  S   S399      1.0  0.47188  0.57304  0.99908  1.0000
  S   S400      1.0  0.43941  0.61245  0.98999  1.0000
  Fe  Fe203     1.0  0.38310  0.69600  0.19865  1.0000
  H   H2321     1.0  0.45504  0.91966  0.99713  1.0000
  S   S401      1.0  0.40726  0.68167  0.18066  1.0000
  S   S402      1.0  0.34873  0.97431  0.98361  1.0000
  S   S403      1.0  0.52230  0.82862  0.97916  1.0000
  H   H2322     1.0  0.34327  0.73236  0.14389  1.0000
  H   H2323     1.0  0.48072  0.73616  0.99210  1.0000
  C   C1348     1.0  0.39679  0.94968  0.99881  1.0000
  S   S404      1.0  0.34967  0.70281  0.19788  1.0000
  Fe  Fe204     1.0  0.63262  0.74275  0.19942  1.0000
  H   H2324     1.0  0.36266  0.64302  0.16969  1.0000
  Fe  Fe205     1.0  0.59931  0.72825  0.18537  1.0000
  Fe  Fe206     1.0  0.61643  0.49254  0.98770  1.0000
  S   S405      1.0  0.58278  0.73599  0.16361  1.0000
  H   H2325     1.0  0.37713  0.70368  0.11696  1.0000
  N   N98       1.0  0.42665  0.96455  0.98038  1.0000
  S   S406      1.0  0.60072  0.75605  0.19611  1.0000
  S   S407      1.0  0.63241  0.71643  0.18666  1.0000
  C   C1349     1.0  0.48559  0.66982  0.15623  1.0000
  H   H2326     1.0  0.57097  0.49272  0.97149  1.0000
  S   S408      1.0  0.59240  0.51534  0.99933  1.0000
  C   C1350     1.0  0.35416  0.66380  0.14093  1.0000
  H   H2327     1.0  0.54807  0.48712  0.00557  1.0000
  H   H2328     1.0  0.50635  0.52009  0.99073  1.0000
  H   H2329     1.0  0.64808  0.52176  0.03420  1.0000
  H   H2330     1.0  0.49050  0.68609  0.02166  1.0000
  S   S409      1.0  0.42031  0.56192  0.98809  1.0000
  H   H2331     1.0  0.47648  0.70179  0.00762  1.0000
  H   H2332     1.0  0.43225  0.87783  0.98151  1.0000
  H   H2333     1.0  0.50682  0.70897  0.98941  1.0000
  H   H2334     1.0  0.35731  0.59985  0.97412  1.0000
  H   H2335     1.0  0.32865  0.66304  0.16094  1.0000
  H   H2336     1.0  0.51006  0.69661  0.16042  1.0000
  H   H2337     1.0  0.53182  0.71462  0.02416  1.0000
  H   H2338     1.0  0.61309  0.51982  0.05434  1.0000
  C   C1351     1.0  0.47014  0.71475  0.16191  1.0000
  H   H2339     1.0  0.37412  0.62403  0.98180  1.0000
  S   S410      1.0  0.36467  0.91755  0.98092  1.0000
  C   C1352     1.0  0.53970  0.55130  0.99114  1.0000
  C   C1353     1.0  0.55576  0.53971  0.99851  1.0000
  C   C1354     1.0  0.57297  0.53037  0.98952  1.0000
  H   H2340     1.0  0.57644  0.68930  0.07644  1.0000
  H   H2341     1.0  0.32112  0.55941  0.21006  1.0000
  H   H2342     1.0  0.52639  0.55820  0.99817  1.0000
  H   H2343     1.0  0.55471  0.53780  0.01125  1.0000
  C   C1355     1.0  0.58075  0.51032  0.04206  1.0000
  S   S411      1.0  0.64995  0.49253  0.98459  1.0000
  C   C1356     1.0  0.55658  0.89265  0.97933  1.0000
  C   C1357     1.0  0.56564  0.90324  0.98817  1.0000
  C   C1358     1.0  0.58267  0.91262  0.98130  1.0000
  H   H2344     1.0  0.55956  0.90405  0.00045  1.0000
  H   H2345     1.0  0.58962  0.92052  0.98827  1.0000
  H   H2346     1.0  0.33272  0.69909  0.14991  1.0000
  C   C1359     1.0  0.37279  0.59458  0.97707  1.0000
  H   H2347     1.0  0.52579  0.68879  0.02919  1.0000
  H   H2348     1.0  0.37118  0.68663  0.16773  1.0000
  C   C1360     1.0  0.48293  0.72009  0.14570  1.0000
  H   H2349     1.0  0.63834  0.48882  0.07434  1.0000
  H   H2350     1.0  0.51374  0.73156  0.00614  1.0000
  C   C1361     1.0  0.43270  0.71461  0.13278  1.0000
  C   C1362     1.0  0.41825  0.72529  0.14317  1.0000
  C   C1363     1.0  0.41043  0.71549  0.15803  1.0000
  C   C1364     1.0  0.41682  0.69485  0.16241  1.0000
  C   C1365     1.0  0.43091  0.68410  0.15187  1.0000
  C   C1366     1.0  0.43893  0.69396  0.13716  1.0000
  H   H2351     1.0  0.41326  0.74125  0.13978  1.0000
  H   H2352     1.0  0.39944  0.72386  0.16602  1.0000
  H   H2353     1.0  0.43565  0.66805  0.15509  1.0000
  H   H2354     1.0  0.44970  0.68551  0.12909  1.0000
  C   C1367     1.0  0.54662  0.70156  0.13947  1.0000
  C   C1368     1.0  0.54333  0.72270  0.13775  1.0000
  C   C1369     1.0  0.55429  0.73295  0.14544  1.0000
  C   C1370     1.0  0.56805  0.72222  0.15546  1.0000
  C   C1371     1.0  0.57050  0.70106  0.15787  1.0000
  C   C1372     1.0  0.55994  0.69081  0.14983  1.0000
  H   H2355     1.0  0.53276  0.73117  0.13015  1.0000
  H   H2356     1.0  0.55219  0.74932  0.14357  1.0000
  H   H2357     1.0  0.58108  0.69259  0.16549  1.0000
  H   H2358     1.0  0.56249  0.67444  0.15136  1.0000
  C   C1373     1.0  0.48859  0.79266  0.02217  1.0000
  C   C1374     1.0  0.50969  0.78933  0.01990  1.0000
  C   C1375     1.0  0.52017  0.77668  0.03143  1.0000
  C   C1376     1.0  0.50963  0.76694  0.04515  1.0000
  C   C1377     1.0  0.48854  0.76968  0.04715  1.0000
  C   C1378     1.0  0.47807  0.78255  0.03571  1.0000
  H   H2359     1.0  0.51792  0.79668  0.00933  1.0000
  H   H2360     1.0  0.53650  0.77451  0.02975  1.0000
  H   H2361     1.0  0.48025  0.76234  0.05771  1.0000
  H   H2362     1.0  0.46173  0.78500  0.03752  1.0000
  C   C1379     1.0  0.49433  0.65333  0.05207  1.0000
  C   C1380     1.0  0.50450  0.64319  0.03943  1.0000
  C   C1381     1.0  0.49397  0.63361  0.03085  1.0000
  C   C1382     1.0  0.47313  0.63379  0.03498  1.0000
  C   C1383     1.0  0.46291  0.64440  0.04735  1.0000
  C   C1384     1.0  0.47338  0.65428  0.05575  1.0000
  H   H2363     1.0  0.52071  0.64230  0.03650  1.0000
  H   H2364     1.0  0.50206  0.62543  0.02144  1.0000
  H   H2365     1.0  0.44681  0.64458  0.05068  1.0000
  H   H2366     1.0  0.46534  0.66193  0.06546  1.0000
  H   H2367     1.0  0.44960  0.92312  0.97738  1.0000
  H   H2368     1.0  0.39008  0.69239  0.14336  1.0000
  C   C1385     1.0  0.49035  0.70049  0.01320  1.0000
  H   H2369     1.0  0.58362  0.52230  0.03193  1.0000
  H   H2370     1.0  0.45769  0.69514  0.03469  1.0000
  H   H2371     1.0  0.48945  0.70684  0.13968  1.0000
  C   C1386     1.0  0.50819  0.69708  0.99982  1.0000
  C   C1387     1.0  0.40890  0.54996  0.97575  1.0000
  C   C1388     1.0  0.52325  0.70408  0.03278  1.0000
  H   H2372     1.0  0.34722  0.67918  0.17108  1.0000
  C   C1389     1.0  0.54087  0.55379  0.97468  1.0000
  H   H2373     1.0  0.49530  0.72832  0.14665  1.0000
  H   H2374     1.0  0.36485  0.64933  0.14196  1.0000
  H   H2375     1.0  0.48314  0.65386  0.15717  1.0000
  H   H2376     1.0  0.50020  0.73133  0.17190  1.0000
  C   C1390     1.0  0.39294  0.53912  0.98269  1.0000
  C   C1391     1.0  0.48595  0.74687  0.99829  1.0000
  H   H2377     1.0  0.57921  0.51658  0.05329  1.0000
  H   H2378     1.0  0.50650  0.71628  0.19022  1.0000
  C   C1392     1.0  0.38930  0.65713  0.96662  1.0000
  C   C1393     1.0  0.64997  0.79613  0.20029  1.0000
  N   N99       1.0  0.50790  0.84590  0.03876  1.0000
  C   C1394     1.0  0.48748  0.85900  0.03873  1.0000
  C   C1395     1.0  0.52115  0.85713  0.04533  1.0000
  C   C1396     1.0  0.50493  0.82624  0.04944  1.0000
  C   C1397     1.0  0.51585  0.84226  0.02199  1.0000
  C   C1398     1.0  0.47058  0.84941  0.03429  1.0000
  C   C1399     1.0  0.52600  0.87723  0.03526  1.0000
  C   C1400     1.0  0.38313  0.68176  0.13833  1.0000
  C   C1401     1.0  0.53807  0.83240  0.01842  1.0000
  H   H2379     1.0  0.48182  0.86382  0.05057  1.0000
  H   H2380     1.0  0.48845  0.87319  0.03022  1.0000
  H   H2381     1.0  0.53592  0.84789  0.04713  1.0000
  H   H2382     1.0  0.51412  0.86047  0.05738  1.0000
  H   H2383     1.0  0.49367  0.82909  0.06008  1.0000
  H   H2384     1.0  0.49847  0.81623  0.04335  1.0000
  H   H2385     1.0  0.50673  0.83245  0.01807  1.0000
  H   H2386     1.0  0.51367  0.85649  0.01353  1.0000
  H   H2387     1.0  0.45642  0.86044  0.03484  1.0000
  H   H2388     1.0  0.47410  0.84594  0.02202  1.0000
  H   H2389     1.0  0.46723  0.83560  0.04252  1.0000
  H   H2390     1.0  0.53656  0.88353  0.04089  1.0000
  H   H2391     1.0  0.53366  0.87500  0.02320  1.0000
  H   H2392     1.0  0.51241  0.88884  0.03451  1.0000
  H   H2393     1.0  0.35342  0.66744  0.12803  1.0000
  H   H2394     1.0  0.61563  0.52130  0.02576  1.0000
  H   H2395     1.0  0.52982  0.51389  0.96705  1.0000
  H   H2396     1.0  0.53935  0.81571  0.01960  1.0000
  H   H2397     1.0  0.54834  0.83635  0.02560  1.0000
  H   H2398     1.0  0.54414  0.83805  0.00603  1.0000
  N   N100      1.0  0.58305  0.72481  0.08747  1.0000
  C   C1402     1.0  0.56544  0.73920  0.08149  1.0000
  C   C1403     1.0  0.59427  0.71438  0.07380  1.0000
  C   C1404     1.0  0.59639  0.73720  0.09285  1.0000
  C   C1405     1.0  0.57471  0.71020  0.10110  1.0000
  C   C1406     1.0  0.55295  0.75320  0.09309  1.0000
  C   C1407     1.0  0.58231  0.70113  0.06720  1.0000
  C   C1408     1.0  0.61865  0.72781  0.09350  1.0000
  C   C1409     1.0  0.58954  0.69237  0.10805  1.0000
  H   H2399     1.0  0.57060  0.74912  0.07043  1.0000
  H   H2400     1.0  0.55445  0.73079  0.07829  1.0000
  H   H2401     1.0  0.60822  0.70442  0.07685  1.0000
  H   H2402     1.0  0.59958  0.72580  0.06382  1.0000
  H   H2403     1.0  0.59693  0.75193  0.08490  1.0000
  H   H2404     1.0  0.59004  0.74117  0.10486  1.0000
  H   H2405     1.0  0.56784  0.71838  0.11117  1.0000
  H   H2406     1.0  0.56180  0.70400  0.09834  1.0000
  H   H2407     1.0  0.54100  0.76335  0.08705  1.0000
  H   H2408     1.0  0.54505  0.74450  0.10357  1.0000
  H   H2409     1.0  0.56210  0.76307  0.09685  1.0000
  H   H2410     1.0  0.56976  0.71029  0.06129  1.0000
  C   C1410     1.0  0.44299  0.95085  0.98863  1.0000
  C   C1411     1.0  0.62551  0.50647  0.02740  1.0000
  H   H2411     1.0  0.62042  0.71259  0.10052  1.0000
  H   H2412     1.0  0.62586  0.73759  0.09925  1.0000
  S   S412      1.0  0.58822  0.71009  0.20858  1.0000
  H   H2413     1.0  0.59611  0.69664  0.11769  1.0000
  H   H2414     1.0  0.60171  0.68619  0.09924  1.0000
  H   H2415     1.0  0.58115  0.67954  0.11320  1.0000
  H   H2416     1.0  0.63928  0.65368  0.19552  1.0000
  C   C1412     1.0  0.38459  0.61251  0.97554  1.0000
  H   H2417     1.0  0.38045  0.58297  0.96966  1.0000
  C   C1413     1.0  0.34804  0.69995  0.14304  1.0000
  H   H2418     1.0  0.54219  0.50973  0.98387  1.0000
  H   H2419     1.0  0.51238  0.49495  0.00046  1.0000
  H   H2420     1.0  0.39618  0.98041  0.98656  1.0000
  H   H2421     1.0  0.52308  0.69621  0.00359  1.0000
  C   C1414     1.0  0.52363  0.81342  0.05592  1.0000
  H   H2422     1.0  0.57034  0.96833  0.99295  1.0000
  H   H2423     1.0  0.45589  0.71071  0.15955  1.0000
  H   H2424     1.0  0.62497  0.49906  0.01699  1.0000
  H   H2425     1.0  0.49561  0.75629  0.98946  1.0000
  H   H2426     1.0  0.40383  0.94068  0.00894  1.0000
  H   H2427     1.0  0.43995  0.71572  0.04139  1.0000
  S   S413      1.0  0.33025  0.75737  0.20129  1.0000
  H   H2428     1.0  0.38764  0.65051  0.16472  1.0000
  C   C1415     1.0  0.44403  0.92777  0.98924  1.0000
  H   H2429     1.0  0.52962  0.70219  0.04403  1.0000
  H   H2430     1.0  0.62723  0.72728  0.08144  1.0000
  C   C1416     1.0  0.65149  0.64597  0.20186  1.0000
  H   H2431     1.0  0.49901  0.74765  0.01899  1.0000
  C   C1417     1.0  0.40741  0.96817  0.99174  1.0000
  H   H2432     1.0  0.34559  0.70272  0.13043  1.0000
  H   H2433     1.0  0.53636  0.81002  0.04655  1.0000
  H   H2434     1.0  0.45863  0.73045  0.01820  1.0000
  N   N101      1.0  0.61813  0.49345  0.04247  1.0000
  H   H2435     1.0  0.38861  0.53740  0.99538  1.0000
  H   H2436     1.0  0.45955  0.67735  0.17270  1.0000
  H   H2437     1.0  0.40176  0.68945  0.11590  1.0000
  C   C1418     1.0  0.32493  0.64532  0.20277  1.0000
  C   C1419     1.0  0.33276  0.65965  0.14868  1.0000
  C   C1420     1.0  0.35479  0.71903  0.14675  1.0000
  H   H2438     1.0  0.46646  0.73885  0.03424  1.0000
  N   N102      1.0  0.36192  0.68039  0.14661  1.0000
  H   H2439     1.0  0.44438  0.68518  0.19629  1.0000
  C   C1421     1.0  0.36251  0.67609  0.16419  1.0000
  H   H2440     1.0  0.64103  0.82764  0.20313  1.0000
  H   H2441     1.0  0.32606  0.63155  0.18186  1.0000
  C   C1422     1.0  0.38970  0.90985  0.97229  1.0000
  H   H2442     1.0  0.47272  0.75742  0.00299  1.0000
  H   H2443     1.0  0.37130  0.58698  0.98954  1.0000
  H   H2444     1.0  0.39305  0.66695  0.14033  1.0000
  C   C1423     1.0  0.63859  0.50018  0.06347  1.0000
  Fe  Fe207     1.0  0.46091  0.62086  0.96821  1.0000
  H   H2445     1.0  0.51949  0.79863  0.06210  1.0000
  H   H2446     1.0  0.55108  0.95569  0.98934  1.0000
  H   H2447     1.0  0.50797  0.68242  0.99578  1.0000
  N   N103      1.0  0.47977  0.69847  0.17372  1.0000
  C   C1424     1.0  0.38232  0.53067  0.97338  1.0000
  Fe  Fe208     1.0  0.62140  0.70028  0.21064  1.0000
  H   H2448     1.0  0.63553  0.79440  0.19744  1.0000
  H   H2449     1.0  0.48129  0.66627  0.18162  1.0000
  H   H2450     1.0  0.44148  0.70698  0.20577  1.0000
  H   H2451     1.0  0.38358  0.65360  0.97937  1.0000
  H   H2452     1.0  0.36928  0.72228  0.13952  1.0000
  C   C1425     1.0  0.53217  0.50308  0.97800  1.0000
  H   H2453     1.0  0.49401  0.69979  0.04438  1.0000
  C   C1426     1.0  0.46768  0.72540  0.02810  1.0000
  H   H2454     1.0  0.41496  0.63358  0.96751  1.0000
  H   H2455     1.0  0.50212  0.66975  0.15358  1.0000
  C   C1427     1.0  0.38556  0.68844  0.12027  1.0000
  H   H2456     1.0  0.42944  0.92235  0.99386  1.0000
  H   H2457     1.0  0.49896  0.72502  0.04277  1.0000
  H   H2458     1.0  0.39724  0.60738  0.98268  1.0000
  H   H2459     1.0  0.46542  0.72932  0.16677  1.0000
  H   H2460     1.0  0.46122  0.70643  0.05130  1.0000
  C   C1428     1.0  0.45629  0.70957  0.03948  1.0000
  H   H2461     1.0  0.50907  0.68470  0.18015  1.0000
  H   H2462     1.0  0.52493  0.71714  0.17294  1.0000
  C   C1429     1.0  0.50056  0.71206  0.03605  1.0000
  H   H2463     1.0  0.39651  0.88839  0.99275  1.0000
  H   H2464     1.0  0.37002  0.52253  0.97896  1.0000
  H   H2465     1.0  0.38070  0.95495  0.00308  1.0000
  C   C1430     1.0  0.49799  0.73596  0.01166  1.0000
  C   C1431     1.0  0.42258  0.88907  0.97465  1.0000
  H   H2466     1.0  0.47806  0.67817  0.14619  1.0000
  C   C1432     1.0  0.37200  0.65453  0.17060  1.0000
  H   H2467     1.0  0.59254  0.69318  0.05803  1.0000
  H   H2468     1.0  0.35599  0.71802  0.15947  1.0000
  C   C1433     1.0  0.47598  0.67779  0.17182  1.0000
  H   H2469     1.0  0.52859  0.82066  0.06486  1.0000
  C   C1434     1.0  0.47022  0.70229  0.19021  1.0000
  C   C1435     1.0  0.50222  0.69823  0.17254  1.0000
  C   C1436     1.0  0.44739  0.70105  0.19442  1.0000
  C   C1437     1.0  0.50857  0.71695  0.17717  1.0000
  H   H2470     1.0  0.47799  0.69146  0.19926  1.0000
  H   H2471     1.0  0.47185  0.71769  0.19218  1.0000
  H   H2472     1.0  0.43853  0.71023  0.18537  1.0000
  C   C1438     1.0  0.61830  0.50323  0.05682  1.0000
  H   H2473     1.0  0.41894  0.94074  0.96967  1.0000
  H   H2474     1.0  0.39618  0.93983  0.99005  1.0000
  C   C1439     1.0  0.51151  0.50414  0.98867  1.0000
  H   H2475     1.0  0.56580  0.50630  0.04132  1.0000
  H   H2476     1.0  0.44182  0.95380  0.00103  1.0000
  H   H2477     1.0  0.59598  0.48474  0.03057  1.0000
  H   H2478     1.0  0.37289  0.65383  0.18338  1.0000
  H   H2479     1.0  0.60719  0.49729  0.06677  1.0000
  C   C1440     1.0  0.57422  0.53304  0.97306  1.0000
  H   H2480     1.0  0.32117  0.66857  0.14160  1.0000
  H   H2481     1.0  0.65064  0.52014  0.01366  1.0000
  H   H2482     1.0  0.64039  0.51454  0.06722  1.0000
  Fe  Fe209     1.0  0.34680  0.94760  0.97193  1.0000
  H   H2483     1.0  0.41033  0.97421  0.00215  1.0000
  Fe  Fe210     1.0  0.35022  0.72885  0.21088  1.0000
  S   S414      1.0  0.38432  0.72349  0.20949  1.0000
  C   C1441     1.0  0.64697  0.51168  0.02568  1.0000
  S   S415      1.0  0.61797  0.97025  0.97762  1.0000
  H   H2484     1.0  0.55234  0.93966  0.96669  1.0000
  H   H2485     1.0  0.33188  0.64328  0.14944  1.0000
  C   C1442     1.0  0.55890  0.96906  0.98503  1.0000
  Fe  Fe211     1.0  0.64959  0.96594  0.98406  1.0000
  H   H2486     1.0  0.58142  0.95509  0.96800  1.0000
  C   C1443     1.0  0.56987  0.96893  0.96790  1.0000
  H   H2487     1.0  0.53047  0.95805  0.96911  1.0000
  N   N104      1.0  0.54199  0.48246  0.97408  1.0000
  H   H2488     1.0  0.65231  0.49593  0.05517  1.0000
  C   C1444     1.0  0.42347  0.95592  0.96623  1.0000
  S   S416      1.0  0.34461  0.71076  0.23510  1.0000
  Fe  Fe212     1.0  0.37871  0.70353  0.23292  1.0000
  S   S417      1.0  0.40006  0.69629  0.25160  1.0000
  S   S418      1.0  0.56743  0.75290  0.23656  1.0000
  Fe  Fe213     1.0  0.45730  0.73597  0.30965  1.0000
  S   S419      1.0  0.47227  0.70374  0.31215  1.0000
  S   S420      1.0  0.43514  0.74871  0.29204  1.0000
  Fe  Fe214     1.0  0.47773  0.74631  0.33637  1.0000
  S   S421      1.0  0.49380  0.71418  0.34078  1.0000
  S   S422      1.0  0.47632  0.77110  0.35204  1.0000
  Fe  Fe215     1.0  0.49988  0.71684  0.31408  1.0000
  S   S423      1.0  0.52944  0.70388  0.30043  1.0000
  Fe  Fe216     1.0  0.46479  0.70373  0.33843  1.0000
  S   S424      1.0  0.44642  0.68111  0.35492  1.0000
  S   S425      1.0  0.48543  0.74934  0.30979  1.0000
  S   S426      1.0  0.44815  0.73564  0.33580  1.0000
  Fe  Fe217     1.0  0.53286  0.85583  0.37821  1.0000
  S   S427      1.0  0.52910  0.88644  0.36318  1.0000
  S   S428      1.0  0.53612  0.82848  0.36488  1.0000
  Fe  Fe218     1.0  0.53300  0.87527  0.40804  1.0000
  S   S429      1.0  0.52935  0.90671  0.39470  1.0000
  S   S430      1.0  0.52752  0.87420  0.43485  1.0000
  Fe  Fe219     1.0  0.50647  0.89654  0.38338  1.0000
  S   S431      1.0  0.47486  0.91377  0.38224  1.0000
  Fe  Fe220     1.0  0.55257  0.89415  0.37575  1.0000
  S   S432      1.0  0.57378  0.91556  0.36169  1.0000
  S   S433      1.0  0.50856  0.86557  0.39763  1.0000
  S   S434      1.0  0.55801  0.86297  0.38977  1.0000
  Fe  Fe221     1.0  0.44190  0.56225  0.38217  1.0000
  S   S435      1.0  0.40846  0.56881  0.39000  1.0000
  S   S436      1.0  0.46249  0.58455  0.36824  1.0000
  Fe  Fe222     1.0  0.44401  0.51720  0.39626  1.0000
  S   S437      1.0  0.41058  0.52063  0.40470  1.0000
  H   H2489     1.0  0.39479  0.93741  0.36849  1.0000
  Fe  Fe223     1.0  0.40693  0.53959  0.38130  1.0000
  S   S438      1.0  0.38398  0.53852  0.36513  1.0000
  Fe  Fe224     1.0  0.41496  0.54909  0.41285  1.0000
  S   S439      1.0  0.39898  0.55444  0.43733  1.0000
  S   S440      1.0  0.44020  0.53409  0.37204  1.0000
  S   S441      1.0  0.44853  0.54466  0.40579  1.0000
  C   C1445     1.0  0.41277  0.55544  0.45264  1.0000
  C   C1446     1.0  0.43112  0.56298  0.44941  1.0000
  H   H2490     1.0  0.52486  0.94916  0.41919  1.0000
  H   H2491     1.0  0.43802  0.56633  0.43733  1.0000
  H   H2492     1.0  0.45198  0.61626  0.43559  1.0000
  C   C1447     1.0  0.54445  0.87827  0.44697  1.0000
  C   C1448     1.0  0.56533  0.87315  0.44318  1.0000
  H   H2493     1.0  0.57147  0.86684  0.43241  1.0000
  C   C1449     1.0  0.60732  0.93447  0.35671  1.0000
  C   C1450     1.0  0.59906  0.91682  0.36353  1.0000
  C   C1451     1.0  0.61104  0.90084  0.37158  1.0000
  H   H2494     1.0  0.59820  0.94685  0.35033  1.0000
  H   H2495     1.0  0.60497  0.88705  0.37662  1.0000
  H   H2496     1.0  0.63427  0.89279  0.43770  1.0000
  H   H2497     1.0  0.33255  0.60117  0.23612  1.0000
  H   H2498     1.0  0.56927  0.91961  0.44204  1.0000
  H   H2499     1.0  0.63820  0.92505  0.41893  1.0000
  C   C1452     1.0  0.53659  0.88557  0.46134  1.0000
  C   C1453     1.0  0.60386  0.93782  0.40481  1.0000
  H   H2500     1.0  0.53442  0.71350  0.22821  1.0000
  C   C1454     1.0  0.36696  0.50413  0.37895  1.0000
  C   C1455     1.0  0.36767  0.52027  0.36658  1.0000
  C   C1456     1.0  0.35567  0.52160  0.35462  1.0000
  C   C1457     1.0  0.34349  0.50669  0.35477  1.0000
  H   H2501     1.0  0.37565  0.50329  0.38844  1.0000
  H   H2502     1.0  0.59391  0.78286  0.23502  1.0000
  H   H2503     1.0  0.46011  0.70423  0.24002  1.0000
  H   H2504     1.0  0.44583  0.59990  0.39743  1.0000
  H   H2505     1.0  0.42505  0.60524  0.43141  1.0000
  C   C1458     1.0  0.48709  0.95133  0.37690  1.0000
  C   C1459     1.0  0.47135  0.94007  0.38262  1.0000
  C   C1460     1.0  0.45243  0.94988  0.38878  1.0000
  H   H2506     1.0  0.60926  0.79682  0.26947  1.0000
  H   H2507     1.0  0.60907  0.89470  0.40393  1.0000
  H   H2508     1.0  0.50175  0.94391  0.37215  1.0000
  H   H2509     1.0  0.44032  0.94114  0.39349  1.0000
  C   C1461     1.0  0.60900  0.75880  0.25882  1.0000
  C   C1462     1.0  0.49382  0.78593  0.35596  1.0000
  C   C1463     1.0  0.51292  0.78670  0.34698  1.0000
  C   C1464     1.0  0.52578  0.79939  0.35016  1.0000
  C   C1465     1.0  0.51980  0.81156  0.36231  1.0000
  C   C1466     1.0  0.50086  0.81052  0.37147  1.0000
  C   C1467     1.0  0.48797  0.79789  0.36826  1.0000
  H   H2510     1.0  0.51773  0.77763  0.33751  1.0000
  H   H2511     1.0  0.54040  0.79994  0.34301  1.0000
  H   H2512     1.0  0.49614  0.81941  0.38105  1.0000
  H   H2513     1.0  0.47333  0.79733  0.37539  1.0000
  C   C1468     1.0  0.45071  0.65423  0.35726  1.0000
  C   C1469     1.0  0.46913  0.64330  0.35152  1.0000
  C   C1470     1.0  0.47221  0.62196  0.35455  1.0000
  C   C1471     1.0  0.45689  0.61127  0.36314  1.0000
  C   C1472     1.0  0.43822  0.62220  0.36838  1.0000
  C   C1473     1.0  0.43525  0.64354  0.36560  1.0000
  H   H2514     1.0  0.48117  0.65129  0.34510  1.0000
  H   H2515     1.0  0.48673  0.61368  0.35044  1.0000
  H   H2516     1.0  0.42624  0.61422  0.37493  1.0000
  H   H2517     1.0  0.42096  0.65182  0.37016  1.0000
  C   C1474     1.0  0.55741  0.73907  0.25436  1.0000
  C   C1475     1.0  0.56411  0.71843  0.25839  1.0000
  C   C1476     1.0  0.55561  0.70787  0.27268  1.0000
  C   C1477     1.0  0.54036  0.71783  0.28296  1.0000
  C   C1478     1.0  0.53388  0.73853  0.27897  1.0000
  C   C1479     1.0  0.54233  0.74909  0.26471  1.0000
  H   H2518     1.0  0.57579  0.71060  0.25051  1.0000
  H   H2519     1.0  0.56078  0.69187  0.27573  1.0000
  H   H2520     1.0  0.52241  0.74644  0.28690  1.0000
  H   H2521     1.0  0.53718  0.76509  0.26169  1.0000
  H   H2522     1.0  0.50934  0.74198  0.24047  1.0000
  C   C1480     1.0  0.41064  0.71179  0.26151  1.0000
  C   C1481     1.0  0.40378  0.73251  0.26122  1.0000
  C   C1482     1.0  0.41166  0.74371  0.27043  1.0000
  C   C1483     1.0  0.42640  0.73432  0.28001  1.0000
  C   C1484     1.0  0.43364  0.71372  0.27991  1.0000
  C   C1485     1.0  0.42584  0.70257  0.27069  1.0000
  H   H2523     1.0  0.39208  0.73980  0.25422  1.0000
  H   H2524     1.0  0.40602  0.75966  0.27036  1.0000
  H   H2525     1.0  0.44496  0.70626  0.28719  1.0000
  H   H2526     1.0  0.43125  0.68655  0.27096  1.0000
  N   N105      1.0  0.39983  0.68808  0.32360  1.0000
  C   C1486     1.0  0.41298  0.67347  0.31339  1.0000
  C   C1487     1.0  0.37978  0.69383  0.31751  1.0000
  C   C1488     1.0  0.39652  0.67689  0.34019  1.0000
  C   C1489     1.0  0.41049  0.70606  0.32309  1.0000
  C   C1490     1.0  0.43354  0.66384  0.31866  1.0000
  C   C1491     1.0  0.38086  0.70215  0.29971  1.0000
  C   C1492     1.0  0.38361  0.68892  0.35282  1.0000
  C   C1493     1.0  0.39716  0.72661  0.32528  1.0000
  H   H2527     1.0  0.40486  0.66084  0.31251  1.0000
  H   H2528     1.0  0.41657  0.68109  0.30109  1.0000
  H   H2529     1.0  0.36957  0.70526  0.32401  1.0000
  H   H2530     1.0  0.37161  0.68049  0.31959  1.0000
  H   H2531     1.0  0.38965  0.66306  0.34033  1.0000
  H   H2532     1.0  0.41110  0.67144  0.34474  1.0000
  H   H2533     1.0  0.42088  0.70290  0.33213  1.0000
  H   H2534     1.0  0.42051  0.70891  0.31168  1.0000
  H   H2535     1.0  0.44335  0.65682  0.30882  1.0000
  H   H2536     1.0  0.44160  0.67512  0.32179  1.0000
  H   H2537     1.0  0.43177  0.65152  0.32878  1.0000
  H   H2538     1.0  0.36571  0.70981  0.29712  1.0000
  H   H2539     1.0  0.39148  0.71328  0.29589  1.0000
  H   H2540     1.0  0.38540  0.68974  0.29235  1.0000
  H   H2541     1.0  0.38095  0.67838  0.36401  1.0000
  H   H2542     1.0  0.36859  0.69595  0.34967  1.0000
  H   H2543     1.0  0.39185  0.70040  0.35551  1.0000
  H   H2544     1.0  0.38941  0.73303  0.31489  1.0000
  H   H2545     1.0  0.40699  0.73769  0.32625  1.0000
  H   H2546     1.0  0.38589  0.72591  0.33608  1.0000
  H   H2547     1.0  0.47966  0.76132  0.27689  1.0000
  H   H2548     1.0  0.64022  0.78617  0.23160  1.0000
  H   H2549     1.0  0.57186  0.94257  0.42827  1.0000
  C   C1494     1.0  0.65139  0.75722  0.24342  1.0000
  H   H2550     1.0  0.37775  0.96523  0.40196  1.0000
  H   H2551     1.0  0.59300  0.76932  0.28114  1.0000
  H   H2552     1.0  0.64944  0.57135  0.25758  1.0000
  H   H2553     1.0  0.49051  0.69057  0.24974  1.0000
  H   H2554     1.0  0.41829  0.62113  0.41344  1.0000
  H   H2555     1.0  0.46003  0.66590  0.39656  1.0000
  H   H2556     1.0  0.57656  0.76807  0.26698  1.0000
  H   H2557     1.0  0.35435  0.58671  0.22684  1.0000
  H   H2558     1.0  0.33246  0.76715  0.23255  1.0000
  H   H2559     1.0  0.45807  0.73415  0.25213  1.0000
  H   H2560     1.0  0.49316  0.61677  0.39950  1.0000
  H   H2561     1.0  0.63944  0.88610  0.32352  1.0000
  H   H2562     1.0  0.57802  0.91617  0.39675  1.0000
  H   H2563     1.0  0.48481  0.95894  0.45149  1.0000
  H   H2564     1.0  0.35919  0.60256  0.46335  1.0000
  H   H2565     1.0  0.50578  0.58284  0.39531  1.0000
  H   H2566     1.0  0.48784  0.61385  0.44266  1.0000
  H   H2567     1.0  0.40669  0.93863  0.34810  1.0000
  H   H2568     1.0  0.65194  0.54468  0.25826  1.0000
  H   H2569     1.0  0.50396  0.67204  0.27240  1.0000
  C   C1495     1.0  0.33478  0.56813  0.24348  1.0000
  C   C1496     1.0  0.59927  0.79126  0.24312  1.0000
  C   C1497     1.0  0.32237  0.77910  0.22669  1.0000
  H   H2570     1.0  0.51170  0.72361  0.21966  1.0000
  H   H2571     1.0  0.34519  0.55519  0.23909  1.0000
  C   C1498     1.0  0.64259  0.93079  0.31807  1.0000
  H   H2572     1.0  0.58747  0.94292  0.40483  1.0000
  H   H2573     1.0  0.47376  0.69711  0.26649  1.0000
  H   H2574     1.0  0.45659  0.72615  0.22567  1.0000
  C   C1499     1.0  0.57797  0.90683  0.40857  1.0000
  H   H2575     1.0  0.49822  0.72717  0.27566  1.0000
  H   H2576     1.0  0.56640  0.91408  0.41726  1.0000
  C   C1500     1.0  0.63362  0.77277  0.23790  1.0000
  H   H2577     1.0  0.44228  0.51337  0.33753  1.0000
  S   S442      1.0  0.37915  0.67568  0.22186  1.0000
  C   C1501     1.0  0.48849  0.94411  0.44704  1.0000
  C   C1502     1.0  0.51767  0.71481  0.23034  1.0000
  H   H2578     1.0  0.60348  0.90952  0.44222  1.0000
  C   C1503     1.0  0.63827  0.80335  0.25678  1.0000
  C   C1504     1.0  0.38151  0.97474  0.37657  1.0000
  C   C1505     1.0  0.49134  0.58511  0.40345  1.0000
  H   H2579     1.0  0.45226  0.58438  0.41487  1.0000
  N   N106      1.0  0.60820  0.91947  0.41697  1.0000
  H   H2580     1.0  0.37359  0.95568  0.34883  1.0000
  H   H2581     1.0  0.47801  0.60972  0.38755  1.0000
  C   C1506     1.0  0.45362  0.63536  0.40558  1.0000
  H   H2582     1.0  0.35549  0.97664  0.35537  1.0000
  H   H2583     1.0  0.42394  0.96514  0.34884  1.0000
  C   C1507     1.0  0.50963  0.72557  0.24493  1.0000
  H   H2584     1.0  0.46926  0.59454  0.43285  1.0000
  C   C1508     1.0  0.48130  0.60729  0.39992  1.0000
  C   C1509     1.0  0.48227  0.62189  0.43159  1.0000
  H   H2585     1.0  0.58777  0.74558  0.27778  1.0000
  H   H2586     1.0  0.47015  0.76221  0.25897  1.0000
  C   C1510     1.0  0.35528  0.48891  0.37887  1.0000
  H   H2587     1.0  0.61624  0.81023  0.22393  1.0000
  S   S443      1.0  0.46025  0.48599  0.40466  1.0000
  C   C1511     1.0  0.44013  0.56681  0.46183  1.0000
  C   C1512     1.0  0.48308  0.75549  0.26538  1.0000
  H   H2588     1.0  0.59435  0.87105  0.45085  1.0000
  H   H2589     1.0  0.33171  0.54033  0.22481  1.0000
  N   N107      1.0  0.48037  0.86641  0.34385  1.0000
  C   C1513     1.0  0.48485  0.84505  0.33985  1.0000
  C   C1514     1.0  0.48253  0.86484  0.36109  1.0000
  C   C1515     1.0  0.49647  0.87779  0.33396  1.0000
  C   C1516     1.0  0.45955  0.87572  0.34026  1.0000
  C   C1517     1.0  0.48169  0.84221  0.32317  1.0000
  C   C1518     1.0  0.46550  0.85630  0.37318  1.0000
  C   C1519     1.0  0.49426  0.90062  0.33478  1.0000
  C   C1520     1.0  0.44970  0.89523  0.34737  1.0000
  H   H2590     1.0  0.50075  0.83841  0.34116  1.0000
  H   H2591     1.0  0.47534  0.83495  0.34811  1.0000
  H   H2592     1.0  0.48384  0.87954  0.36439  1.0000
  H   H2593     1.0  0.49705  0.85526  0.36354  1.0000
  H   H2594     1.0  0.51164  0.87072  0.33714  1.0000
  H   H2595     1.0  0.49732  0.87680  0.32122  1.0000
  H   H2596     1.0  0.45968  0.87937  0.32723  1.0000
  H   H2597     1.0  0.44890  0.86446  0.34431  1.0000
  H   H2598     1.0  0.49188  0.84987  0.31359  1.0000
  H   H2599     1.0  0.48534  0.82578  0.32220  1.0000
  C   C1521     1.0  0.48851  0.92660  0.42384  1.0000
  H   H2600     1.0  0.46936  0.85534  0.38526  1.0000
  H   H2601     1.0  0.45082  0.86631  0.37285  1.0000
  H   H2602     1.0  0.46368  0.84084  0.37177  1.0000
  H   H2603     1.0  0.50828  0.90629  0.32844  1.0000
  H   H2604     1.0  0.49242  0.90429  0.34694  1.0000
  H   H2605     1.0  0.48177  0.90926  0.32858  1.0000
  H   H2606     1.0  0.44715  0.90811  0.33778  1.0000
  H   H2607     1.0  0.45838  0.89989  0.35544  1.0000
  H   H2608     1.0  0.43463  0.89312  0.35418  1.0000
  H   H2609     1.0  0.35599  0.53412  0.34504  1.0000
  C   C1522     1.0  0.45153  0.97358  0.43551  1.0000
  H   H2610     1.0  0.33057  0.58733  0.22047  1.0000
  H   H2611     1.0  0.34855  0.62854  0.46002  1.0000
  C   C1523     1.0  0.44921  0.97091  0.38912  1.0000
  C   C1524     1.0  0.57840  0.93209  0.43792  1.0000
  H   H2612     1.0  0.48415  0.90450  0.44553  1.0000
  H   H2613     1.0  0.62805  0.76674  0.22853  1.0000
  H   H2614     1.0  0.34079  0.57021  0.25419  1.0000
  H   H2615     1.0  0.42397  0.96070  0.36916  1.0000
  C   C1525     1.0  0.46760  0.71697  0.23317  1.0000
  H   H2616     1.0  0.59866  0.88999  0.42400  1.0000
  S   S444      1.0  0.62305  0.72605  0.22331  1.0000
  H   H2617     1.0  0.52152  0.72237  0.25275  1.0000
  H   H2618     1.0  0.51408  0.94811  0.40171  1.0000
  C   C1526     1.0  0.51415  0.95726  0.41117  1.0000
  H   H2619     1.0  0.51809  0.92442  0.44198  1.0000
  H   H2620     1.0  0.63311  0.95031  0.35338  1.0000
  Fe  Fe225     1.0  0.59120  0.73719  0.21920  1.0000
  S   S445      1.0  0.32241  0.66286  0.22994  1.0000
  H   H2621     1.0  0.62099  0.74841  0.26467  1.0000
  H   H2622     1.0  0.44418  0.63609  0.39614  1.0000
  H   H2623     1.0  0.63735  0.91276  0.40262  1.0000
  H   H2624     1.0  0.47975  0.65066  0.40636  1.0000
  H   H2625     1.0  0.42408  0.49842  0.33546  1.0000
  C   C1527     1.0  0.38997  0.96968  0.39242  1.0000
  C   C1528     1.0  0.59056  0.76094  0.27189  1.0000
  C   C1529     1.0  0.63085  0.90281  0.37323  1.0000
  H   H2626     1.0  0.45523  0.97642  0.44681  1.0000
  H   H2627     1.0  0.63493  0.94155  0.30900  1.0000
  C   C1530     1.0  0.40841  0.94079  0.36019  1.0000
  H   H2628     1.0  0.50192  0.69367  0.28188  1.0000
  H   H2629     1.0  0.44322  0.64191  0.41543  1.0000
  H   H2630     1.0  0.48428  0.49256  0.37329  1.0000
  C   C1531     1.0  0.49254  0.96287  0.41968  1.0000
  H   H2631     1.0  0.51999  0.97135  0.40516  1.0000
  H   H2632     1.0  0.64995  0.56252  0.28405  1.0000
  H   H2633     1.0  0.47201  0.72786  0.27646  1.0000
  C   C1532     1.0  0.34353  0.49005  0.36675  1.0000
  C   C1533     1.0  0.46860  0.65036  0.39854  1.0000
  C   C1534     1.0  0.41381  0.96195  0.36018  1.0000
  N   N108      1.0  0.46240  0.61368  0.41093  1.0000
  H   H2634     1.0  0.59000  0.81894  0.22790  1.0000
  C   C1535     1.0  0.62713  0.93644  0.35835  1.0000
  H   H2635     1.0  0.47572  0.74492  0.23693  1.0000
  N   N109      1.0  0.48294  0.94621  0.43066  1.0000
  C   C1536     1.0  0.42556  0.60603  0.41849  1.0000
  H   H2636     1.0  0.43026  0.48714  0.38324  1.0000
  H   H2637     1.0  0.49590  0.62171  0.42262  1.0000
  H   H2638     1.0  0.42089  0.51198  0.35232  1.0000
  H   H2639     1.0  0.47596  0.63775  0.43329  1.0000
  H   H2640     1.0  0.39705  0.48848  0.35309  1.0000
  C   C1537     1.0  0.48883  0.69934  0.25966  1.0000
  N   N110      1.0  0.61646  0.77823  0.25068  1.0000
  C   C1538     1.0  0.48570  0.73210  0.26848  1.0000
  H   H2641     1.0  0.49498  0.58116  0.41568  1.0000
  C   C1539     1.0  0.57822  0.87541  0.45367  1.0000
  H   H2642     1.0  0.46576  0.84688  0.32116  1.0000
  C   C1540     1.0  0.47937  0.90832  0.43364  1.0000
  H   H2643     1.0  0.47905  0.93435  0.45582  1.0000
  C   C1541     1.0  0.46602  0.61084  0.42790  1.0000
  H   H2644     1.0  0.60749  0.96938  0.39748  1.0000
  C   C1542     1.0  0.44719  0.60030  0.40995  1.0000
  H   H2645     1.0  0.57673  0.94118  0.44772  1.0000
  C   C1543     1.0  0.44427  0.48460  0.35301  1.0000
  H   H2646     1.0  0.45508  0.95052  0.42062  1.0000
  C   C1544     1.0  0.33794  0.58692  0.23100  1.0000
  C   C1545     1.0  0.51081  0.93657  0.44901  1.0000
  H   H2647     1.0  0.48199  0.57439  0.40107  1.0000
  H   H2648     1.0  0.52042  0.69025  0.26445  1.0000
  H   H2649     1.0  0.63063  0.92393  0.32652  1.0000
  Fe  Fe226     1.0  0.34582  0.68444  0.22191  1.0000
  C   C1546     1.0  0.47259  0.73035  0.24428  1.0000
  H   H2650     1.0  0.48404  0.92866  0.41184  1.0000
  H   H2651     1.0  0.40920  0.49289  0.37334  1.0000
  H   H2652     1.0  0.45240  0.94146  0.44119  1.0000
  H   H2653     1.0  0.41611  0.59489  0.41688  1.0000
  H   H2654     1.0  0.49706  0.76116  0.25912  1.0000
  H   H2655     1.0  0.51465  0.69907  0.23191  1.0000
  H   H2656     1.0  0.47653  0.64708  0.38673  1.0000
  C   C1547     1.0  0.50482  0.68851  0.27014  1.0000
  N   N111      1.0  0.48940  0.72158  0.25401  1.0000
  H   H2657     1.0  0.61006  0.93373  0.43731  1.0000
  H   H2658     1.0  0.64288  0.56741  0.23289  1.0000
  H   H2659     1.0  0.57308  0.89241  0.40743  1.0000
  H   H2660     1.0  0.48508  0.89487  0.42750  1.0000
  H   H2661     1.0  0.40253  0.95685  0.39244  1.0000
  H   H2662     1.0  0.60942  0.93393  0.39269  1.0000
  C   C1548     1.0  0.60091  0.92364  0.43371  1.0000
  C   C1549     1.0  0.63088  0.91349  0.41525  1.0000
  H   H2663     1.0  0.60508  0.75042  0.25003  1.0000
  H   H2664     1.0  0.63521  0.81552  0.26436  1.0000
  H   H2665     1.0  0.45397  0.57332  0.45923  1.0000
  H   H2666     1.0  0.37412  0.62193  0.46339  1.0000
  H   H2667     1.0  0.51166  0.92950  0.46147  1.0000
  H   H2668     1.0  0.50502  0.92170  0.42198  1.0000
  C   C1550     1.0  0.60346  0.81176  0.23361  1.0000
  C   C1551     1.0  0.59921  0.90205  0.41361  1.0000
  H   H2669     1.0  0.49265  0.97582  0.42602  1.0000
  H   H2670     1.0  0.43478  0.97552  0.43665  1.0000
  H   H2671     1.0  0.63395  0.88005  0.42094  1.0000
  C   C1552     1.0  0.62275  0.78849  0.26284  1.0000
  H   H2672     1.0  0.34010  0.52537  0.25183  1.0000
  H   H2673     1.0  0.46270  0.91053  0.43457  1.0000
  H   H2674     1.0  0.42078  0.92918  0.36441  1.0000
  H   H2675     1.0  0.58607  0.79504  0.25215  1.0000
  C   C1553     1.0  0.43184  0.50298  0.34427  1.0000
  H   H2676     1.0  0.62979  0.95402  0.40317  1.0000
  H   H2677     1.0  0.60570  0.82233  0.24139  1.0000
  H   H2678     1.0  0.65006  0.94000  0.32406  1.0000
  C   C1554     1.0  0.63888  0.92070  0.36680  1.0000
  S   S446      1.0  0.63709  0.67184  0.22413  1.0000
  H   H2679     1.0  0.37346  0.96211  0.37596  1.0000
  H   H2680     1.0  0.60865  0.96130  0.41808  1.0000
  C   C1555     1.0  0.63874  0.89306  0.42477  1.0000
  C   C1556     1.0  0.48376  0.97237  0.37692  1.0000
  C   C1557     1.0  0.46027  0.95195  0.43184  1.0000
  H   H2681     1.0  0.33457  0.50777  0.34536  1.0000
  H   H2682     1.0  0.63994  0.89047  0.37966  1.0000
  C   C1558     1.0  0.61310  0.95654  0.40621  1.0000
  H   H2683     1.0  0.51975  0.94928  0.44626  1.0000
  C   C1559     1.0  0.36902  0.97225  0.34679  1.0000
  N   N112      1.0  0.39660  0.97910  0.36198  1.0000
  H   H2684     1.0  0.52042  0.88923  0.46449  1.0000
  H   H2685     1.0  0.62980  0.77685  0.27179  1.0000
  H   H2686     1.0  0.55247  0.82570  0.45395  1.0000
  H   H2687     1.0  0.33052  0.84166  0.27377  1.0000
  H   H2688     1.0  0.45435  0.49050  0.35947  1.0000
  H   H2689     1.0  0.64449  0.89442  0.34063  1.0000
  H   H2690     1.0  0.48098  0.71107  0.22518  1.0000
  H   H2691     1.0  0.64903  0.86055  0.34914  1.0000
  H   H2692     1.0  0.49595  0.98105  0.37225  1.0000
  H   H2693     1.0  0.63809  0.81108  0.24450  1.0000
  H   H2694     1.0  0.48344  0.96921  0.40996  1.0000
  H   H2695     1.0  0.36413  0.97623  0.33490  1.0000
  C   C1560     1.0  0.32377  0.52526  0.25582  1.0000
  H   H2696     1.0  0.43474  0.97831  0.39418  1.0000
  H   H2697     1.0  0.32242  0.51351  0.26642  1.0000
  H   H2698     1.0  0.64753  0.74164  0.24575  1.0000
  H   H2699     1.0  0.64934  0.90940  0.30189  1.0000
  C   C1561     1.0  0.65173  0.88624  0.33053  1.0000
  Fe  Fe227     1.0  0.57687  0.88879  0.50669  1.0000
  S   S447      1.0  0.54686  0.88236  0.51987  1.0000
  S   S448      1.0  0.58719  0.88557  0.48067  1.0000
  Fe  Fe228     1.0  0.59236  0.89548  0.53694  1.0000
  S   S449      1.0  0.56282  0.88953  0.55218  1.0000
  S   S450      1.0  0.62255  0.89527  0.54602  1.0000
  Fe  Fe229     1.0  0.56368  0.86358  0.53873  1.0000
  S   S451      1.0  0.56120  0.83073  0.54981  1.0000
  Fe  Fe230     1.0  0.54808  0.90896  0.53207  1.0000
  S   S452      1.0  0.51775  0.92963  0.53325  1.0000
  S   S453      1.0  0.59388  0.86830  0.52471  1.0000
  S   S454      1.0  0.57743  0.91657  0.51759  1.0000
  Fe  Fe231     1.0  0.39100  0.56069  0.54269  1.0000
  S   S455      1.0  0.40751  0.58676  0.53097  1.0000
  S   S456      1.0  0.35691  0.56473  0.54245  1.0000
  Fe  Fe232     1.0  0.43041  0.53281  0.54848  1.0000
  S   S457      1.0  0.44976  0.55647  0.53716  1.0000
  S   S458      1.0  0.44203  0.50157  0.56069  1.0000
  Fe  Fe233     1.0  0.42689  0.57819  0.55040  1.0000
  S   S459      1.0  0.43632  0.59856  0.56563  1.0000
  Fe  Fe234     1.0  0.42900  0.56328  0.51859  1.0000
  S   S460      1.0  0.44179  0.56973  0.49266  1.0000
  S   S461      1.0  0.40860  0.55380  0.56314  1.0000
  S   S462      1.0  0.41141  0.53788  0.52887  1.0000
  Fe  Fe235     1.0  0.63220  0.66147  0.64050  1.0000
  C   C1562     1.0  0.39725  0.61348  0.48861  1.0000
  S   S463      1.0  0.59804  0.66985  0.64204  1.0000
  H   H2700     1.0  0.64673  0.97665  0.64705  1.0000
  Fe  Fe236     1.0  0.33107  0.77352  0.63038  1.0000
  S   S464      1.0  0.33231  0.79909  0.64356  1.0000
  S   S465      1.0  0.35496  0.76512  0.60976  1.0000
  H   H2701     1.0  0.37115  0.71350  0.59021  1.0000
  H   H2702     1.0  0.33234  0.60266  0.52658  1.0000
  H   H2703     1.0  0.35172  0.50375  0.54364  1.0000
  Fe  Fe237     1.0  0.48068  0.70187  0.56518  1.0000
  S   S466      1.0  0.48719  0.69040  0.58993  1.0000
  S   S467      1.0  0.46682  0.68490  0.54999  1.0000
  Fe  Fe238     1.0  0.49210  0.74448  0.56612  1.0000
  S   S468      1.0  0.49879  0.73551  0.59100  1.0000
  S   S469      1.0  0.49128  0.77730  0.55408  1.0000
  Fe  Fe239     1.0  0.51477  0.70619  0.58296  1.0000
  S   S470      1.0  0.54812  0.69411  0.58407  1.0000
  Fe  Fe240     1.0  0.47053  0.72090  0.59536  1.0000
  S   S471      1.0  0.44597  0.72536  0.61640  1.0000
  S   S472      1.0  0.50921  0.71594  0.55761  1.0000
  S   S473      1.0  0.46295  0.73160  0.57102  1.0000
  C   C1563     1.0  0.38017  0.75431  0.61200  1.0000
  C   C1564     1.0  0.39392  0.75033  0.59846  1.0000
  C   C1565     1.0  0.41407  0.74160  0.59965  1.0000
  C   C1566     1.0  0.42073  0.73664  0.61442  1.0000
  C   C1567     1.0  0.40699  0.74068  0.62798  1.0000
  C   C1568     1.0  0.38682  0.74952  0.62679  1.0000
  H   H2704     1.0  0.38890  0.75400  0.58698  1.0000
  H   H2705     1.0  0.42432  0.73852  0.58915  1.0000
  H   H2706     1.0  0.41194  0.73692  0.63949  1.0000
  H   H2707     1.0  0.37638  0.75251  0.63733  1.0000
  H   H2708     1.0  0.36889  0.59973  0.52027  1.0000
  H   H2709     1.0  0.60666  0.63772  0.58348  1.0000
  H   H2710     1.0  0.55733  0.74946  0.58262  1.0000
  C   C1569     1.0  0.58436  0.67599  0.62581  1.0000
  C   C1570     1.0  0.59411  0.67807  0.61021  1.0000
  C   C1571     1.0  0.58271  0.68326  0.59760  1.0000
  C   C1572     1.0  0.56148  0.68673  0.60045  1.0000
  C   C1573     1.0  0.55171  0.68463  0.61605  1.0000
  C   C1574     1.0  0.56313  0.67922  0.62867  1.0000
  H   H2711     1.0  0.61043  0.67579  0.60788  1.0000
  H   H2712     1.0  0.59037  0.68479  0.58555  1.0000
  H   H2713     1.0  0.53539  0.68722  0.61839  1.0000
  H   H2714     1.0  0.55548  0.67767  0.64072  1.0000
  H   H2715     1.0  0.36152  0.69619  0.60604  1.0000
  H   H2716     1.0  0.40055  0.80209  0.62326  1.0000
  H   H2717     1.0  0.36530  0.57012  0.47838  1.0000
  C   C1575     1.0  0.44650  0.62170  0.56024  1.0000
  C   C1576     1.0  0.45670  0.62793  0.57100  1.0000
  C   C1577     1.0  0.46363  0.64688  0.56785  1.0000
  C   C1578     1.0  0.46023  0.66000  0.55393  1.0000
  C   C1579     1.0  0.45034  0.65362  0.54305  1.0000
  C   C1580     1.0  0.44358  0.63459  0.54613  1.0000
  H   H2718     1.0  0.45911  0.61807  0.58192  1.0000
  H   H2719     1.0  0.47143  0.65139  0.57626  1.0000
  H   H2720     1.0  0.44768  0.66359  0.53223  1.0000
  H   H2721     1.0  0.43576  0.63006  0.53774  1.0000
  H   H2722     1.0  0.33432  0.92508  0.55883  1.0000
  C   C1581     1.0  0.62895  0.96735  0.60300  1.0000
  C   C1582     1.0  0.34411  0.53737  0.56835  1.0000
  C   C1583     1.0  0.33986  0.54909  0.55408  1.0000
  C   C1584     1.0  0.38837  0.49677  0.56166  1.0000
  C   C1585     1.0  0.35074  0.57291  0.48611  1.0000
  H   H2723     1.0  0.40143  0.97634  0.55225  1.0000
  H   H2724     1.0  0.35802  0.53792  0.57263  1.0000
  H   H2725     1.0  0.52626  0.86013  0.49920  1.0000
  H   H2726     1.0  0.37018  0.68780  0.58741  1.0000
  C   C1586     1.0  0.43614  0.67554  0.61080  1.0000
  H   H2727     1.0  0.57285  0.79408  0.49271  1.0000
  H   H2728     1.0  0.41435  0.78306  0.60235  1.0000
  H   H2729     1.0  0.40684  0.54976  0.49304  1.0000
  C   C1587     1.0  0.54118  0.81654  0.55119  1.0000
  C   C1588     1.0  0.52287  0.82490  0.54575  1.0000
  C   C1589     1.0  0.50771  0.81271  0.54675  1.0000
  C   C1590     1.0  0.51063  0.79213  0.55332  1.0000
  C   C1591     1.0  0.52888  0.78384  0.55887  1.0000
  C   C1592     1.0  0.54406  0.79598  0.55772  1.0000
  H   H2730     1.0  0.52043  0.84072  0.54072  1.0000
  H   H2731     1.0  0.49367  0.81926  0.54238  1.0000
  H   H2732     1.0  0.53138  0.76801  0.56382  1.0000
  H   H2733     1.0  0.55826  0.78941  0.56175  1.0000
  H   H2734     1.0  0.42679  0.79681  0.62468  1.0000
  H   H2735     1.0  0.35528  0.93533  0.58919  1.0000
  C   C1593     1.0  0.62814  0.93125  0.55551  1.0000
  H   H2736     1.0  0.60124  0.74013  0.56677  1.0000
  C   C1594     1.0  0.56099  0.78189  0.59812  1.0000
  H   H2737     1.0  0.44589  0.76563  0.59448  1.0000
  H   H2738     1.0  0.33960  0.62531  0.52985  1.0000
  H   H2739     1.0  0.61404  0.93806  0.55132  1.0000
  H   H2740     1.0  0.53657  0.75484  0.60956  1.0000
  H   H2741     1.0  0.39153  0.65435  0.57648  1.0000
  H   H2742     1.0  0.56791  0.74165  0.62387  1.0000
  S   S474      1.0  0.64947  0.67491  0.65504  1.0000
  C   C1595     1.0  0.43117  0.56256  0.47761  1.0000
  C   C1596     1.0  0.49226  0.96448  0.53875  1.0000
  H   H2743     1.0  0.54326  0.89368  0.48279  1.0000
  H   H2744     1.0  0.37343  0.50627  0.56274  1.0000
  H   H2745     1.0  0.39093  0.58381  0.49900  1.0000
  C   C1597     1.0  0.60922  0.73033  0.61499  1.0000
  C   C1598     1.0  0.51201  0.95405  0.53900  1.0000
  H   H2746     1.0  0.48092  0.95725  0.53545  1.0000
  C   C1599     1.0  0.33885  0.61631  0.52044  1.0000
  H   H2747     1.0  0.35125  0.48602  0.56982  1.0000
  C   C1600     1.0  0.34548  0.95021  0.58903  1.0000
  C   C1601     1.0  0.33029  0.95951  0.53885  1.0000
  H   H2748     1.0  0.57064  0.71921  0.61534  1.0000
  C   C1602     1.0  0.58617  0.74958  0.56821  1.0000
  C   C1603     1.0  0.43748  0.80012  0.57373  1.0000
  H   H2749     1.0  0.37884  0.96036  0.57202  1.0000
  C   C1604     1.0  0.54332  0.73882  0.61203  1.0000
  C   C1605     1.0  0.39434  0.69142  0.60119  1.0000
  H   H2750     1.0  0.47005  0.82095  0.57066  1.0000
  H   H2751     1.0  0.42959  0.81543  0.56950  1.0000
  H   H2752     1.0  0.39859  0.70586  0.60308  1.0000
  C   C1606     1.0  0.55771  0.82828  0.47750  1.0000
  C   C1607     1.0  0.63918  0.94293  0.56195  1.0000
  H   H2753     1.0  0.32472  0.97005  0.52869  1.0000
  C   C1608     1.0  0.57300  0.74205  0.58367  1.0000
  H   H2754     1.0  0.35254  0.63364  0.48679  1.0000
  H   H2755     1.0  0.56519  0.63089  0.59895  1.0000
  H   H2756     1.0  0.54743  0.79121  0.49404  1.0000
  H   H2757     1.0  0.32622  0.95063  0.57175  1.0000
  C   C1609     1.0  0.43111  0.68422  0.59403  1.0000
  C   C1610     1.0  0.51964  0.84894  0.49454  1.0000
  H   H2758     1.0  0.54012  0.73022  0.60316  1.0000
  H   H2759     1.0  0.60169  0.71786  0.59597  1.0000
  H   H2760     1.0  0.55493  0.84500  0.47448  1.0000
  N   N113      1.0  0.41113  0.68057  0.59048  1.0000
  C   C1611     1.0  0.52654  0.96347  0.54337  1.0000
  C   C1612     1.0  0.64537  0.96719  0.61336  1.0000
  H   H2761     1.0  0.54178  0.95558  0.54362  1.0000
  H   H2762     1.0  0.39557  0.63345  0.59148  1.0000
  C   C1613     1.0  0.41569  0.80510  0.61706  1.0000
  H   H2763     1.0  0.42880  0.71250  0.56683  1.0000
  H   H2764     1.0  0.39144  0.50310  0.58477  1.0000
  C   C1614     1.0  0.41040  0.68795  0.57313  1.0000
  H   H2765     1.0  0.42525  0.78770  0.55650  1.0000
  H   H2766     1.0  0.42484  0.65005  0.58722  1.0000
  H   H2767     1.0  0.47384  0.76405  0.61188  1.0000
  C   C1615     1.0  0.32979  0.77808  0.70496  1.0000
  H   H2768     1.0  0.43855  0.83070  0.58906  1.0000
  H   H2769     1.0  0.62303  0.64376  0.59618  1.0000
  H   H2770     1.0  0.41013  0.78561  0.57547  1.0000
  H   H2771     1.0  0.40296  0.72050  0.57536  1.0000
  N   N114      1.0  0.35547  0.95698  0.55875  1.0000
  H   H2772     1.0  0.64379  0.66700  0.68962  1.0000
  C   C1616     1.0  0.33889  0.95843  0.57268  1.0000
  H   H2773     1.0  0.59283  0.77261  0.59071  1.0000
  C   C1617     1.0  0.36463  0.93540  0.55692  1.0000
  H   H2774     1.0  0.32307  0.70882  0.69677  1.0000
  H   H2775     1.0  0.46466  0.50630  0.52902  1.0000
  H   H2776     1.0  0.50332  0.85078  0.49938  1.0000
  H   H2777     1.0  0.63376  0.97230  0.59029  1.0000
  H   H2778     1.0  0.36031  0.57190  0.50866  1.0000
  N   N115      1.0  0.55169  0.82193  0.49493  1.0000
  H   H2779     1.0  0.63323  0.63522  0.57788  1.0000
  H   H2780     1.0  0.44782  0.76752  0.62073  1.0000
  H   H2781     1.0  0.64004  0.60703  0.59802  1.0000
  H   H2782     1.0  0.52529  0.82408  0.51280  1.0000
  H   H2783     1.0  0.37269  0.93453  0.54469  1.0000
  H   H2784     1.0  0.37629  0.92997  0.56492  1.0000
  H   H2785     1.0  0.57428  0.82410  0.47409  1.0000
  H   H2786     1.0  0.59203  0.84035  0.49224  1.0000
  H   H2787     1.0  0.33903  0.58167  0.47910  1.0000
  C   C1618     1.0  0.46999  0.81823  0.58364  1.0000
  H   H2788     1.0  0.63422  0.68782  0.71134  1.0000
  H   H2789     1.0  0.53537  0.73247  0.62361  1.0000
  H   H2790     1.0  0.55650  0.83122  0.51670  1.0000
  C   C1619     1.0  0.35890  0.61744  0.46701  1.0000
  H   H2791     1.0  0.55854  0.84984  0.50015  1.0000
  C   C1620     1.0  0.65087  0.66266  0.70019  1.0000
  H   H2792     1.0  0.35948  0.96786  0.53353  1.0000
  H   H2793     1.0  0.35018  0.91157  0.57313  1.0000
  H   H2794     1.0  0.42244  0.67877  0.56581  1.0000
  C   C1621     1.0  0.44866  0.81652  0.59283  1.0000
  H   H2795     1.0  0.47540  0.83145  0.58666  1.0000
  H   H2796     1.0  0.39623  0.68586  0.56940  1.0000
  C   C1622     1.0  0.36529  0.50699  0.53522  1.0000
  H   H2797     1.0  0.42388  0.68041  0.62016  1.0000
  H   H2798     1.0  0.58503  0.76824  0.61102  1.0000
  H   H2799     1.0  0.39586  0.49553  0.52755  1.0000
  H   H2800     1.0  0.52088  0.81685  0.49524  1.0000
  H   H2801     1.0  0.46255  0.78815  0.61610  1.0000
  H   H2802     1.0  0.46720  0.77676  0.58652  1.0000
  H   H2803     1.0  0.44966  0.81717  0.60535  1.0000
  C   C1623     1.0  0.56220  0.83326  0.50380  1.0000
  H   H2804     1.0  0.60075  0.72054  0.62446  1.0000
  N   N116      1.0  0.43974  0.79831  0.59099  1.0000
  H   H2805     1.0  0.44979  0.68130  0.61259  1.0000
  H   H2806     1.0  0.39049  0.54376  0.47100  1.0000
  C   C1624     1.0  0.41285  0.71032  0.56761  1.0000
  H   H2807     1.0  0.52611  0.49950  0.55247  1.0000
  Fe  Fe241     1.0  0.32182  0.77777  0.66518  1.0000
  H   H2808     1.0  0.55144  0.80265  0.46738  1.0000
  N   N117      1.0  0.57970  0.74484  0.59879  1.0000
  H   H2809     1.0  0.58786  0.76570  0.56734  1.0000
  H   H2810     1.0  0.33492  0.61727  0.48681  1.0000
  C   C1625     1.0  0.41095  0.65801  0.59363  1.0000
  C   C1626     1.0  0.32140  0.54869  0.54894  1.0000
  H   H2811     1.0  0.40737  0.80861  0.59411  1.0000
  H   H2812     1.0  0.62571  0.95165  0.60391  1.0000
  H   H2813     1.0  0.43990  0.65880  0.61234  1.0000
  H   H2814     1.0  0.60963  0.74488  0.61903  1.0000
  H   H2815     1.0  0.41570  0.82164  0.61611  1.0000
  H   H2816     1.0  0.41116  0.65213  0.60639  1.0000
  H   H2817     1.0  0.57874  0.74824  0.55804  1.0000
  H   H2818     1.0  0.36743  0.62471  0.50979  1.0000
  H   H2819     1.0  0.48114  0.80474  0.58682  1.0000
  H   H2820     1.0  0.35571  0.90740  0.55318  1.0000
  H   H2821     1.0  0.37869  0.65519  0.59676  1.0000
  C   C1627     1.0  0.35007  0.91941  0.56079  1.0000
  C   C1628     1.0  0.45326  0.77871  0.59529  1.0000
  H   H2822     1.0  0.55205  0.78337  0.60995  1.0000
  H   H2823     1.0  0.35325  0.96118  0.59297  1.0000
  C   C1629     1.0  0.58056  0.76672  0.59957  1.0000
  C   C1630     1.0  0.57037  0.88284  0.46799  1.0000
  H   H2824     1.0  0.57256  0.72573  0.58360  1.0000
  H   H2825     1.0  0.43187  0.70069  0.59263  1.0000
  C   C1631     1.0  0.35141  0.61808  0.48483  1.0000
  H   H2826     1.0  0.55125  0.77822  0.59037  1.0000
  H   H2827     1.0  0.56755  0.79666  0.52212  1.0000
  N   N118      1.0  0.36198  0.60231  0.49644  1.0000
  C   C1632     1.0  0.45941  0.77464  0.61199  1.0000
  H   H2828     1.0  0.55215  0.49315  0.57222  1.0000
  H   H2829     1.0  0.38991  0.62824  0.48307  1.0000
  H   H2830     1.0  0.56069  0.77414  0.51786  1.0000
  C   C1633     1.0  0.39296  0.65028  0.58921  1.0000
  H   H2831     1.0  0.62503  0.72241  0.61339  1.0000
  N   N119      1.0  0.61007  0.60535  0.61090  1.0000
  C   C1634     1.0  0.61704  0.58345  0.61706  1.0000
  C   C1635     1.0  0.61238  0.61774  0.62321  1.0000
  C   C1636     1.0  0.62402  0.61098  0.59588  1.0000
  C   C1637     1.0  0.58854  0.60740  0.60780  1.0000
  C   C1638     1.0  0.61863  0.56809  0.60548  1.0000
  C   C1639     1.0  0.60083  0.61208  0.63987  1.0000
  C   C1640     1.0  0.62121  0.63329  0.58820  1.0000
  C   C1641     1.0  0.57567  0.62861  0.60785  1.0000
  H   H2832     1.0  0.63209  0.58171  0.62094  1.0000
  H   H2833     1.0  0.60675  0.57801  0.62776  1.0000
  H   H2834     1.0  0.60765  0.63412  0.61979  1.0000
  H   H2835     1.0  0.62865  0.61643  0.62441  1.0000
  S   S475      1.0  0.32251  0.75172  0.65205  1.0000
  H   H2836     1.0  0.62252  0.60222  0.58651  1.0000
  H   H2837     1.0  0.58814  0.60237  0.59629  1.0000
  H   H2838     1.0  0.58008  0.59714  0.61696  1.0000
  H   H2839     1.0  0.62165  0.55250  0.61199  1.0000
  H   H2840     1.0  0.60449  0.56927  0.60041  1.0000
  C   C1642     1.0  0.33024  0.52502  0.57718  1.0000
  H   H2841     1.0  0.58496  0.61054  0.63958  1.0000
  H   H2842     1.0  0.60858  0.59795  0.64611  1.0000
  H   H2843     1.0  0.60058  0.62422  0.64709  1.0000
  H   H2844     1.0  0.56492  0.79699  0.59254  1.0000
  H   H2845     1.0  0.56196  0.49005  0.54545  1.0000
  H   H2846     1.0  0.59186  0.81372  0.49813  1.0000
  H   H2847     1.0  0.32852  0.62562  0.51249  1.0000
  H   H2848     1.0  0.58427  0.64138  0.60490  1.0000
  H   H2849     1.0  0.56584  0.62973  0.61939  1.0000
  H   H2850     1.0  0.36994  0.52106  0.53738  1.0000
  H   H2851     1.0  0.40885  0.71492  0.55547  1.0000
  H   H2852     1.0  0.39221  0.68238  0.61318  1.0000
  C   C1643     1.0  0.38305  0.48939  0.53567  1.0000
  C   C1644     1.0  0.56614  0.73588  0.61297  1.0000
  C   C1645     1.0  0.60081  0.73328  0.59912  1.0000
  C   C1646     1.0  0.35219  0.58337  0.50019  1.0000
  C   C1647     1.0  0.55751  0.79932  0.49875  1.0000
  H   H2853     1.0  0.54124  0.79417  0.52301  1.0000
  H   H2854     1.0  0.38654  0.59064  0.47919  1.0000
  C   C1648     1.0  0.36040  0.61068  0.51176  1.0000
  H   H2855     1.0  0.34592  0.55790  0.49067  1.0000
  H   H2856     1.0  0.52062  0.85260  0.48151  1.0000
  H   H2857     1.0  0.63339  0.95871  0.56260  1.0000
  H   H2858     1.0  0.33370  0.51596  0.58820  1.0000
  H   H2859     1.0  0.43383  0.76896  0.57180  1.0000
  C   C1649     1.0  0.38413  0.59652  0.49065  1.0000
  H   H2860     1.0  0.61458  0.97678  0.60708  1.0000
  C   C1650     1.0  0.37341  0.69731  0.59554  1.0000
  H   H2861     1.0  0.32655  0.88232  0.60336  1.0000
  H   H2862     1.0  0.45246  0.79848  0.56620  1.0000
  C   C1651     1.0  0.41894  0.79835  0.60058  1.0000
  H   H2863     1.0  0.33640  0.58641  0.50614  1.0000
  C   C1652     1.0  0.42593  0.78460  0.56941  1.0000
  H   H2864     1.0  0.63158  0.56959  0.59589  1.0000
  H   H2865     1.0  0.59097  0.82922  0.51275  1.0000
  H   H2866     1.0  0.61190  0.74079  0.59008  1.0000
  H   H2867     1.0  0.44383  0.67804  0.58543  1.0000
  C   C1653     1.0  0.58553  0.82879  0.50144  1.0000
  C   C1654     1.0  0.63541  0.91083  0.55441  1.0000
  C   C1655     1.0  0.52920  0.82696  0.49972  1.0000
  H   H2868     1.0  0.41178  0.60915  0.48105  1.0000
  C   C1656     1.0  0.41358  0.55361  0.48092  1.0000
  H   H2869     1.0  0.63908  0.96081  0.62544  1.0000
  H   H2870     1.0  0.33575  0.94466  0.53469  1.0000
  C   C1657     1.0  0.64541  0.67439  0.71255  1.0000
  C   C1658     1.0  0.50605  0.48658  0.57176  1.0000
  H   H2871     1.0  0.39594  0.95631  0.54336  1.0000
  H   H2872     1.0  0.33191  0.94813  0.59792  1.0000
  C   C1659     1.0  0.54948  0.88796  0.47179  1.0000
  C   C1660     1.0  0.55664  0.79088  0.51649  1.0000
  H   H2873     1.0  0.36081  0.51024  0.52319  1.0000
  S   S476      1.0  0.33695  0.76766  0.68716  1.0000
  C   C1661     1.0  0.38928  0.97073  0.54785  1.0000
  H   H2874     1.0  0.54023  0.48211  0.52730  1.0000
  C   C1662     1.0  0.46982  0.49144  0.53506  1.0000
  H   H2875     1.0  0.39903  0.50747  0.55591  1.0000
  H   H2876     1.0  0.53066  0.82343  0.46836  1.0000
  S   S477      1.0  0.64567  0.62942  0.64879  1.0000
  C   C1663     1.0  0.39268  0.48958  0.57879  1.0000
  C   C1664     1.0  0.46131  0.48542  0.55061  1.0000
  H   H2877     1.0  0.40113  0.61531  0.50017  1.0000
  H   H2878     1.0  0.49267  0.49607  0.56711  1.0000
  H   H2879     1.0  0.50992  0.49484  0.58055  1.0000
  C   C1665     1.0  0.37172  0.96810  0.56151  1.0000
  H   H2880     1.0  0.42092  0.48237  0.54345  1.0000
  C   C1666     1.0  0.52319  0.48392  0.55780  1.0000
  H   H2881     1.0  0.33176  0.97444  0.57300  1.0000
  H   H2882     1.0  0.49174  0.48317  0.51531  1.0000
  C   C1667     1.0  0.40431  0.55029  0.46844  1.0000
  C   C1668     1.0  0.34741  0.96792  0.54392  1.0000
  C   C1669     1.0  0.54731  0.81933  0.46638  1.0000
  S   S478      1.0  0.51035  0.86770  0.95257  1.0000
  C   C1670     1.0  0.63538  0.74696  0.83818  1.0000
  S   S479      1.0  0.52697  0.81671  0.93475  1.0000
  C   C1671     1.0  0.42377  0.61153  0.93804  1.0000
  Fe  Fe242     1.0  0.48385  0.75262  0.88134  1.0000
  S   S480      1.0  0.45938  0.73554  0.87838  1.0000
  S   S481      1.0  0.47572  0.76829  0.90333  1.0000
  Fe  Fe243     1.0  0.51132  0.73916  0.85164  1.0000
  S   S482      1.0  0.48876  0.72112  0.84686  1.0000
  S   S483      1.0  0.53970  0.74422  0.83393  1.0000
  Fe  Fe244     1.0  0.46498  0.74755  0.85243  1.0000
  S   S484      1.0  0.44218  0.76532  0.83650  1.0000
  Fe  Fe245     1.0  0.48504  0.71075  0.87315  1.0000
  S   S485      1.0  0.48645  0.67738  0.88267  1.0000
  S   S486      1.0  0.48779  0.76640  0.85576  1.0000
  S   S487      1.0  0.50923  0.72699  0.87758  1.0000
  H   H2883     1.0  0.63745  0.49421  0.90390  1.0000
  Fe  Fe246     1.0  0.35149  0.50080  0.95025  1.0000
  C   C1672     1.0  0.56390  0.49507  0.94805  1.0000
  H   H2884     1.0  0.55929  0.54673  0.95294  1.0000
  H   H2885     1.0  0.54344  0.70526  0.92626  1.0000
  C   C1673     1.0  0.40338  0.54392  0.94995  1.0000
  C   C1674     1.0  0.39729  0.91827  0.95705  1.0000
  S   S488      1.0  0.34999  0.96415  0.94704  1.0000
  H   H2886     1.0  0.37386  0.80858  0.81631  1.0000
  H   H2887     1.0  0.54943  0.70175  0.95189  1.0000
  C   C1675     1.0  0.34095  0.80976  0.85658  1.0000
  S   S489      1.0  0.61873  0.67957  0.82040  1.0000
  Fe  Fe247     1.0  0.47795  0.86759  0.96367  1.0000
  C   C1676     1.0  0.49088  0.77155  0.80479  1.0000
  Fe  Fe248     1.0  0.34053  0.75870  0.80047  1.0000
  H   H2888     1.0  0.36141  0.56196  0.88625  1.0000
  S   S490      1.0  0.36901  0.74076  0.80984  1.0000
  H   H2889     1.0  0.42667  0.56002  0.95374  1.0000
  C   C1677     1.0  0.53742  0.69295  0.95102  1.0000
  S   S491      1.0  0.61222  0.92284  0.95604  1.0000
  C   C1678     1.0  0.53693  0.69204  0.93343  1.0000
  H   H2890     1.0  0.36501  0.64895  0.92979  1.0000
  H   H2891     1.0  0.58785  0.89999  0.94440  1.0000
  C   C1679     1.0  0.46723  0.73562  0.80096  1.0000
  C   C1680     1.0  0.63401  0.74989  0.80213  1.0000
  C   C1681     1.0  0.50592  0.75156  0.80631  1.0000
  C   C1682     1.0  0.34835  0.51389  0.89439  1.0000
  C   C1683     1.0  0.39120  0.53980  0.90352  1.0000
  C   C1684     1.0  0.42210  0.75797  0.82910  1.0000
  C   C1685     1.0  0.41650  0.73869  0.83352  1.0000
  C   C1686     1.0  0.40024  0.73372  0.82749  1.0000
  C   C1687     1.0  0.38929  0.74796  0.81708  1.0000
  C   C1688     1.0  0.39506  0.76716  0.81251  1.0000
  C   C1689     1.0  0.41133  0.77213  0.81852  1.0000
  H   H2892     1.0  0.42466  0.72760  0.84159  1.0000
  H   H2893     1.0  0.39608  0.71873  0.83095  1.0000
  H   H2894     1.0  0.38720  0.77803  0.80414  1.0000
  H   H2895     1.0  0.41566  0.78702  0.81489  1.0000
  C   C1690     1.0  0.56120  0.72572  0.83006  1.0000
  C   C1691     1.0  0.56438  0.70732  0.84003  1.0000
  C   C1692     1.0  0.58197  0.69332  0.83681  1.0000
  C   C1693     1.0  0.59643  0.69739  0.82347  1.0000
  C   C1694     1.0  0.59301  0.71560  0.81328  1.0000
  C   C1695     1.0  0.57558  0.72976  0.81665  1.0000
  H   H2896     1.0  0.55342  0.70397  0.85035  1.0000
  H   H2897     1.0  0.58442  0.67925  0.84473  1.0000
  H   H2898     1.0  0.60379  0.71875  0.80284  1.0000
  H   H2899     1.0  0.57322  0.74390  0.80881  1.0000
  S   S492      1.0  0.52077  0.56723  0.96483  1.0000
  H   H2900     1.0  0.34224  0.50551  0.90585  1.0000
  H   H2901     1.0  0.64474  0.75925  0.79442  1.0000
  S   S493      1.0  0.45567  0.89135  0.95126  1.0000
  C   C1696     1.0  0.45998  0.65787  0.93411  1.0000
  C   C1697     1.0  0.47137  0.64355  0.92502  1.0000
  C   C1698     1.0  0.47905  0.64963  0.90912  1.0000
  C   C1699     1.0  0.47556  0.67003  0.90231  1.0000
  C   C1700     1.0  0.46405  0.68427  0.91140  1.0000
  C   C1701     1.0  0.45617  0.67817  0.92721  1.0000
  H   H2902     1.0  0.47442  0.62786  0.93026  1.0000
  H   H2903     1.0  0.48799  0.63855  0.90213  1.0000
  H   H2904     1.0  0.46125  0.70001  0.90626  1.0000
  H   H2905     1.0  0.44732  0.68930  0.93419  1.0000
  C   C1702     1.0  0.50495  0.72872  0.92727  1.0000
  H   H2906     1.0  0.37817  0.51246  0.91257  1.0000
  H   H2907     1.0  0.52509  0.93472  0.95302  1.0000
  H   H2908     1.0  0.58033  0.95140  0.94184  1.0000
  C   C1703     1.0  0.37898  0.52349  0.90145  1.0000
  H   H2909     1.0  0.53500  0.80051  0.90525  1.0000
  H   H2910     1.0  0.49731  0.65140  0.95644  1.0000
  H   H2911     1.0  0.50321  0.74420  0.81874  1.0000
  C   C1704     1.0  0.51311  0.80253  0.92627  1.0000
  C   C1705     1.0  0.49465  0.79719  0.93410  1.0000
  C   C1706     1.0  0.48357  0.78654  0.92693  1.0000
  C   C1707     1.0  0.49092  0.78086  0.91192  1.0000
  C   C1708     1.0  0.50961  0.78575  0.90419  1.0000
  C   C1709     1.0  0.52065  0.79656  0.91136  1.0000
  H   H2912     1.0  0.48892  0.80117  0.94574  1.0000
  H   H2913     1.0  0.46920  0.78267  0.93305  1.0000
  H   H2914     1.0  0.51543  0.78145  0.89263  1.0000
  C   C1710     1.0  0.40750  0.60485  0.95172  1.0000
  N   N120      1.0  0.45630  0.85286  0.91413  1.0000
  C   C1711     1.0  0.47192  0.86677  0.91247  1.0000
  C   C1712     1.0  0.43761  0.86563  0.90859  1.0000
  C   C1713     1.0  0.46465  0.83715  0.90334  1.0000
  C   C1714     1.0  0.45271  0.84316  0.93116  1.0000
  C   C1715     1.0  0.49300  0.85668  0.91638  1.0000
  C   C1716     1.0  0.42793  0.88308  0.91808  1.0000
  C   C1717     1.0  0.45082  0.82195  0.90208  1.0000
  C   C1718     1.0  0.43273  0.83439  0.93696  1.0000
  H   H2915     1.0  0.47408  0.87519  0.90024  1.0000
  H   H2916     1.0  0.46687  0.87849  0.92042  1.0000
  H   H2917     1.0  0.42555  0.85658  0.90868  1.0000
  H   H2918     1.0  0.44103  0.87242  0.89597  1.0000
  H   H2919     1.0  0.46932  0.84462  0.89109  1.0000
  H   H2920     1.0  0.47851  0.82762  0.90718  1.0000
  H   H2921     1.0  0.46527  0.83078  0.93370  1.0000
  H   H2922     1.0  0.45300  0.85432  0.93915  1.0000
  H   H2923     1.0  0.50127  0.84714  0.90744  1.0000
  H   H2924     1.0  0.50230  0.86864  0.91634  1.0000
  H   H2925     1.0  0.49220  0.84769  0.92832  1.0000
  H   H2926     1.0  0.43702  0.89565  0.91551  1.0000
  H   H2927     1.0  0.41287  0.88949  0.91458  1.0000
  H   H2928     1.0  0.42559  0.87798  0.93100  1.0000
  H   H2929     1.0  0.63464  0.52958  0.88771  1.0000
  H   H2930     1.0  0.43639  0.82924  0.89795  1.0000
  H   H2931     1.0  0.55783  0.88360  0.95653  1.0000
  H   H2932     1.0  0.36202  0.63673  0.95647  1.0000
  H   H2933     1.0  0.42463  0.83188  0.92764  1.0000
  H   H2934     1.0  0.41072  0.64502  0.94842  1.0000
  C   C1719     1.0  0.52186  0.75917  0.77079  1.0000
  H   H2935     1.0  0.34072  0.80544  0.86959  1.0000
  H   H2936     1.0  0.56235  0.96571  0.93043  1.0000
  H   H2937     1.0  0.35805  0.82626  0.82819  1.0000
  H   H2938     1.0  0.46397  0.74389  0.78931  1.0000
  C   C1720     1.0  0.50046  0.70704  0.93348  1.0000
  H   H2939     1.0  0.50647  0.73209  0.91419  1.0000
  C   C1721     1.0  0.43023  0.89775  0.95951  1.0000
  H   H2940     1.0  0.42329  0.91902  0.93896  1.0000
  H   H2941     1.0  0.35193  0.48722  0.88288  1.0000
  N   N121      1.0  0.34833  0.79141  0.84831  1.0000
  C   C1722     1.0  0.33425  0.77610  0.85513  1.0000
  H   H2942     1.0  0.44818  0.81157  0.91331  1.0000
  C   C1723     1.0  0.36924  0.78204  0.85184  1.0000
  C   C1724     1.0  0.34778  0.79605  0.83073  1.0000
  C   C1725     1.0  0.33265  0.77557  0.73296  1.0000
  H   H2943     1.0  0.49199  0.73961  0.93186  1.0000
  C   C1726     1.0  0.38484  0.79640  0.85080  1.0000
  Fe  Fe249     1.0  0.51199  0.83381  0.95515  1.0000
  H   H2944     1.0  0.48420  0.67644  0.95365  1.0000
  H   H2945     1.0  0.50474  0.69403  0.90677  1.0000
  H   H2946     1.0  0.35467  0.74675  0.85578  1.0000
  C   C1727     1.0  0.35796  0.54772  0.88324  1.0000
  H   H2947     1.0  0.36845  0.77354  0.86407  1.0000
  H   H2948     1.0  0.37609  0.77063  0.84388  1.0000
  H   H2949     1.0  0.35483  0.78265  0.82488  1.0000
  H   H2950     1.0  0.43601  0.81945  0.94436  1.0000
  H   H2951     1.0  0.59377  0.97855  0.92230  1.0000
  H   H2952     1.0  0.38758  0.92947  0.95021  1.0000
  H   H2953     1.0  0.36362  0.53620  0.86043  1.0000
  H   H2954     1.0  0.54836  0.93638  0.94026  1.0000
  H   H2955     1.0  0.53642  0.74913  0.76830  1.0000
  C   C1728     1.0  0.57068  0.96647  0.94018  1.0000
  H   H2956     1.0  0.38111  0.80574  0.86054  1.0000
  H   H2957     1.0  0.38689  0.80614  0.83927  1.0000
  H   H2958     1.0  0.39979  0.78712  0.85225  1.0000
  H   H2959     1.0  0.63073  0.76331  0.83398  1.0000
  C   C1729     1.0  0.65066  0.50188  0.89851  1.0000
  H   H2960     1.0  0.57984  0.49693  0.94336  1.0000
  S   S494      1.0  0.64003  0.96631  0.94117  1.0000
  H   H2961     1.0  0.54844  0.67895  0.93039  1.0000
  H   H2962     1.0  0.35128  0.82121  0.85324  1.0000
  H   H2963     1.0  0.41616  0.59533  0.96087  1.0000
  H   H2964     1.0  0.36836  0.61416  0.94840  1.0000
  H   H2965     1.0  0.48305  0.77424  0.81677  1.0000
  H   H2966     1.0  0.48622  0.70553  0.92931  1.0000
  H   H2967     1.0  0.45657  0.72439  0.80452  1.0000
  H   H2968     1.0  0.53400  0.67745  0.89058  1.0000
  H   H2969     1.0  0.43504  0.61850  0.94235  1.0000
  H   H2970     1.0  0.52371  0.77036  0.77818  1.0000
  S   S495      1.0  0.37330  0.52441  0.94442  1.0000
  N   N122      1.0  0.51698  0.69022  0.92884  1.0000
  H   H2971     1.0  0.33509  0.51965  0.88804  1.0000
  H   H2972     1.0  0.65112  0.57994  0.74326  1.0000
  C   C1730     1.0  0.48896  0.72432  0.80064  1.0000
  H   H2973     1.0  0.40590  0.96005  0.94687  1.0000
  C   C1731     1.0  0.41748  0.91224  0.95069  1.0000
  H   H2974     1.0  0.52542  0.65989  0.90690  1.0000
  C   C1732     1.0  0.50465  0.74693  0.77838  1.0000
  H   H2975     1.0  0.38606  0.53304  0.86976  1.0000
  Fe  Fe250     1.0  0.64494  0.68107  0.80009  1.0000
  H   H2976     1.0  0.64754  0.69597  0.83342  1.0000
  H   H2977     1.0  0.63972  0.54483  0.83934  1.0000
  N   N123      1.0  0.39246  0.62128  0.95886  1.0000
  H   H2978     1.0  0.49643  0.70625  0.94646  1.0000
  H   H2979     1.0  0.32480  0.97451  0.84528  1.0000
  C   C1733     1.0  0.52562  0.72230  0.79483  1.0000
  H   H2980     1.0  0.49914  0.78459  0.80022  1.0000
  N   N124      1.0  0.50591  0.73674  0.79514  1.0000
  H   H2981     1.0  0.34250  0.55214  0.87995  1.0000
  H   H2982     1.0  0.41749  0.62202  0.92827  1.0000
  H   H2983     1.0  0.48966  0.71656  0.81296  1.0000
  H   H2984     1.0  0.51946  0.69465  0.81119  1.0000
  H   H2985     1.0  0.52117  0.75611  0.80499  1.0000
  H   H2986     1.0  0.60433  0.74646  0.83407  1.0000
  H   H2987     1.0  0.53875  0.73072  0.79250  1.0000
  C   C1734     1.0  0.61572  0.73735  0.84124  1.0000
  C   C1735     1.0  0.34553  0.53976  0.91137  1.0000
  C   C1736     1.0  0.52846  0.70714  0.81002  1.0000
  C   C1737     1.0  0.54379  0.95331  0.96041  1.0000
  H   H2988     1.0  0.39026  0.64949  0.93146  1.0000
  H   H2989     1.0  0.50448  0.73547  0.77059  1.0000
  H   H2990     1.0  0.39965  0.59430  0.94731  1.0000
  H   H2991     1.0  0.63529  0.72061  0.81631  1.0000
  H   H2992     1.0  0.40614  0.53220  0.90666  1.0000
  C   C1738     1.0  0.35811  0.81391  0.82139  1.0000
  S   S496      1.0  0.33066  0.79226  0.79422  1.0000
  C   C1739     1.0  0.41427  0.55201  0.95929  1.0000
  H   H2993     1.0  0.51828  0.76771  0.75923  1.0000
  H   H2994     1.0  0.64050  0.74629  0.84982  1.0000
  C   C1740     1.0  0.53588  0.94531  0.94736  1.0000
  C   C1741     1.0  0.64558  0.51661  0.88359  1.0000
  S   S497      1.0  0.64710  0.70549  0.77927  1.0000
  H   H2995     1.0  0.54815  0.67065  0.90677  1.0000
  C   C1742     1.0  0.36174  0.49745  0.88542  1.0000
  C   C1743     1.0  0.38732  0.53319  0.95690  1.0000
  H   H2996     1.0  0.64347  0.70513  0.85243  1.0000
  C   C1744     1.0  0.56460  0.89170  0.96348  1.0000
  C   C1745     1.0  0.34106  0.75462  0.85059  1.0000
  H   H2997     1.0  0.39406  0.55044  0.89246  1.0000
  N   N125      1.0  0.55674  0.96994  0.95530  1.0000
  C   C1746     1.0  0.58164  0.90101  0.95663  1.0000
  H   H2998     1.0  0.38863  0.51481  0.89251  1.0000
  H   H2999     1.0  0.33200  0.79862  0.82806  1.0000
  H   H3000     1.0  0.51850  0.73184  0.93142  1.0000
  C   C1747     1.0  0.51074  0.66985  0.93576  1.0000
  H   H3001     1.0  0.38398  0.62828  0.92413  1.0000
  H   H3002     1.0  0.52564  0.48682  0.95391  1.0000
  H   H3003     1.0  0.40751  0.54589  0.93724  1.0000
  H   H3004     1.0  0.32048  0.56010  0.90089  1.0000
  H   H3005     1.0  0.34396  0.75476  0.83764  1.0000
  H   H3006     1.0  0.64841  0.61146  0.79206  1.0000
  H   H3007     1.0  0.38403  0.54833  0.91335  1.0000
  C   C1748     1.0  0.51965  0.69188  0.91102  1.0000
  C   C1749     1.0  0.53264  0.67378  0.90368  1.0000
  H   H3008     1.0  0.50035  0.66593  0.92854  1.0000
  H   H3009     1.0  0.55492  0.51040  0.94719  1.0000
  H   H3010     1.0  0.42235  0.84414  0.94490  1.0000
  C   C1750     1.0  0.56289  0.48428  0.96526  1.0000
  H   H3011     1.0  0.45867  0.81218  0.89314  1.0000
  H   H3012     1.0  0.33176  0.77430  0.86830  1.0000
  N   N126      1.0  0.35806  0.53115  0.89722  1.0000
  H   H3013     1.0  0.63169  0.52490  0.85393  1.0000
  H   H3014     1.0  0.47892  0.77218  0.79750  1.0000
  H   H3015     1.0  0.37666  0.66337  0.95980  1.0000
  H   H3016     1.0  0.37631  0.55726  0.86099  1.0000
  H   H3017     1.0  0.62650  0.74357  0.79407  1.0000
  H   H3018     1.0  0.49051  0.71210  0.79319  1.0000
  H   H3019     1.0  0.49037  0.75738  0.77730  1.0000
  H   H3020     1.0  0.52784  0.95741  0.93948  1.0000
  H   H3021     1.0  0.34624  0.52831  0.92219  1.0000
  H   H3022     1.0  0.33948  0.76797  0.74319  1.0000
  H   H3023     1.0  0.32883  0.74533  0.85525  1.0000
  S   S498      1.0  0.32752  0.75010  0.78056  1.0000
  H   H3024     1.0  0.64629  0.59136  0.78195  1.0000
  H   H3025     1.0  0.52768  0.71310  0.78500  1.0000
  H   H3026     1.0  0.54457  0.70010  0.80943  1.0000
  H   H3027     1.0  0.52458  0.71450  0.82080  1.0000
  H   H3028     1.0  0.46354  0.74579  0.81010  1.0000
  H   H3029     1.0  0.35149  0.55294  0.91391  1.0000
  Fe  Fe251     1.0  0.62963  0.94525  0.96289  1.0000
  H   H3030     1.0  0.62221  0.75958  0.80909  1.0000
  H   H3031     1.0  0.34971  0.82110  0.81144  1.0000
  S   S499      1.0  0.64720  0.68470  0.74130  1.0000
  H   H3032     1.0  0.60872  0.73789  0.85374  1.0000
  H   H3033     1.0  0.61758  0.72136  0.83945  1.0000
  C   C1751     1.0  0.40750  0.96846  0.95640  1.0000
  H   H3034     1.0  0.36988  0.50362  0.87398  1.0000
  C   C1752     1.0  0.37485  0.62765  0.94975  1.0000
  C   C1753     1.0  0.59081  0.91146  0.96547  1.0000
  H   H3035     1.0  0.65011  0.60268  0.75126  1.0000
  C   C1754     1.0  0.37172  0.54297  0.86784  1.0000
  S   S500      1.0  0.45075  0.65130  0.95424  1.0000
  H   H3036     1.0  0.43225  0.59794  0.93304  1.0000
  C   C1755     1.0  0.33852  0.76833  0.71835  1.0000
  H   H3037     1.0  0.63673  0.50898  0.87746  1.0000
  C   C1756     1.0  0.37907  0.63906  0.93285  1.0000
  H   H3038     1.0  0.58751  0.52613  0.96601  1.0000
  S   S501      1.0  0.46606  0.58960  0.96150  1.0000
  H   H3039     1.0  0.52672  0.70542  0.90534  1.0000
  C   C1757     1.0  0.64525  0.73237  0.81268  1.0000
  H   H3040     1.0  0.43795  0.95356  0.95805  1.0000
  H   H3041     1.0  0.37258  0.48785  0.89285  1.0000
  H   H3042     1.0  0.52401  0.65763  0.93525  1.0000
  C   C1758     1.0  0.64513  0.53179  0.84799  1.0000
  H   H3043     1.0  0.64537  0.55234  0.86440  1.0000
  Fe  Fe252     1.0  0.32118  0.48421  0.93362  1.0000
  H   H3044     1.0  0.34984  0.75505  0.71743  1.0000
  H   H3045     1.0  0.52345  0.70098  0.95703  1.0000
  H   H3046     1.0  0.39240  0.97094  0.96359  1.0000
  C   C1759     1.0  0.49956  0.66747  0.95285  1.0000
  H   H3047     1.0  0.50794  0.67120  0.96153  1.0000
  C   C1760     1.0  0.32290  0.54698  0.91026  1.0000
  H   H3048     1.0  0.54085  0.67749  0.95759  1.0000
  C   C1761     1.0  0.40282  0.63882  0.96001  1.0000
  H   H3049     1.0  0.55902  0.48599  0.94029  1.0000
  C   C1762     1.0  0.55825  0.54474  0.96569  1.0000
  S   S502      1.0  0.47919  0.83412  0.96460  1.0000
  C   C1763     1.0  0.31981  0.82102  0.85377  1.0000
  H   H3050     1.0  0.39862  0.66936  0.96560  1.0000
  Fe  Fe253     1.0  0.76786  0.44113  0.10197  1.0000
  S   S503      1.0  0.74095  0.46582  0.09979  1.0000
  S   S504      1.0  0.76123  0.41164  0.11771  1.0000
  S   S505      1.0  0.77956  0.44571  0.07586  1.0000
  Fe  Fe254     1.0  0.80277  0.27665  0.16994  1.0000
  S   S506      1.0  0.82961  0.28776  0.15416  1.0000
  S   S507      1.0  0.79115  0.28577  0.19422  1.0000
  Fe  Fe255     1.0  0.79264  0.25449  0.14514  1.0000
  S   S508      1.0  0.81863  0.26424  0.12729  1.0000
  S   S509      1.0  0.77637  0.23052  0.13944  1.0000
  Fe  Fe256     1.0  0.83690  0.25650  0.14727  1.0000
  S   S510      1.0  0.86778  0.23690  0.14608  1.0000
  Fe  Fe257     1.0  0.80924  0.29485  0.13540  1.0000
  S   S511      1.0  0.81172  0.32301  0.11710  1.0000
  S   S512      1.0  0.81158  0.24479  0.16477  1.0000
  S   S513      1.0  0.78170  0.28579  0.15156  1.0000
  H   H3051     1.0  0.86191  0.02914  0.98048  1.0000
  C   C1764     1.0  0.67593  0.19644  0.18156  1.0000
  Fe  Fe258     1.0  0.72460  0.01912  0.08904  1.0000
  S   S514      1.0  0.74872  0.99813  0.10123  1.0000
  S   S515      1.0  0.70028  0.04188  0.10058  1.0000
  Fe  Fe259     1.0  0.76721  0.00002  0.07675  1.0000
  S   S516      1.0  0.80176  0.99695  0.07137  1.0000
  N   N127      1.0  0.67693  0.12441  0.07916  1.0000
  S   S517      1.0  0.74387  0.02290  0.06510  1.0000
  H   H3052     1.0  0.94245  0.99040  0.04753  1.0000
  Fe  Fe260     1.0  0.93050  0.05569  0.01449  1.0000
  S   S518      1.0  0.91799  0.03258  0.03388  1.0000
  S   S519      1.0  0.94039  0.04547  0.99033  1.0000
  Fe  Fe261     1.0  0.93050  0.08612  0.03749  1.0000
  S   S520      1.0  0.91785  0.06506  0.05835  1.0000
  S   S521      1.0  0.93394  0.11916  0.03815  1.0000
  Fe  Fe262     1.0  0.93996  0.04026  0.04771  1.0000
  Fe  Fe263     1.0  0.89691  0.05903  0.04264  1.0000
  S   S522      1.0  0.86271  0.06170  0.04995  1.0000
  S   S523      1.0  0.95398  0.06166  0.02787  1.0000
  S   S524      1.0  0.90804  0.08172  0.02231  1.0000
  Fe  Fe264     1.0  0.96880  0.23168  0.08529  1.0000
  H   H3053     1.0  0.86647  0.03534  0.10312  1.0000
  S   S525      1.0  0.93799  0.25080  0.08873  1.0000
  H   H3054     1.0  0.68255  0.18036  0.20997  1.0000
  H   H3055     1.0  0.70729  0.02215  0.15184  1.0000
  Fe  Fe265     1.0  0.68251  0.14593  0.13325  1.0000
  S   S526      1.0  0.67617  0.17415  0.11587  1.0000
  S   S527      1.0  0.70879  0.12183  0.12631  1.0000
  Fe  Fe266     1.0  0.67461  0.19113  0.13634  1.0000
  S   S528      1.0  0.68523  0.22099  0.13732  1.0000
  S   S529      1.0  0.68350  0.16320  0.15308  1.0000
  H   H3056     1.0  0.89445  0.03098  0.07124  1.0000
  N   N128      1.0  0.95788  0.26159  0.13470  1.0000
  S   S530      1.0  0.67043  0.45002  0.01903  1.0000
  C   C1765     1.0  0.91407  0.07146  0.97204  1.0000
  H   H3057     1.0  0.96942  0.00214  0.02345  1.0000
  H   H3058     1.0  0.67980  0.04438  0.14748  1.0000
  H   H3059     1.0  0.90851  0.27329  0.15425  1.0000
  C   C1766     1.0  0.71337  0.16532  0.18709  1.0000
  C   C1767     1.0  0.95012  0.13036  0.04723  1.0000
  C   C1768     1.0  0.96287  0.11899  0.05765  1.0000
  H   H3060     1.0  0.86518  0.01076  0.00540  1.0000
  H   H3061     1.0  0.69058  0.12826  0.21169  1.0000
  C   C1769     1.0  0.96223  0.16113  0.05104  1.0000
  C   C1770     1.0  0.94988  0.15150  0.04401  1.0000
  H   H3062     1.0  0.81238  0.03613  0.01261  1.0000
  H   H3063     1.0  0.91888  0.29051  0.13848  1.0000
  H   H3064     1.0  0.94020  0.16045  0.03589  1.0000
  C   C1771     1.0  0.70356  0.06294  0.10887  1.0000
  C   C1772     1.0  0.68659  0.07364  0.11714  1.0000
  C   C1773     1.0  0.68810  0.09132  0.12304  1.0000
  C   C1774     1.0  0.70659  0.09854  0.12061  1.0000
  C   C1775     1.0  0.72372  0.08741  0.11287  1.0000
  C   C1776     1.0  0.72222  0.06969  0.10696  1.0000
  H   H3065     1.0  0.67212  0.06844  0.11872  1.0000
  H   H3066     1.0  0.67489  0.09957  0.12922  1.0000
  H   H3067     1.0  0.73813  0.09282  0.11105  1.0000
  H   H3068     1.0  0.73540  0.06153  0.10066  1.0000
  C   C1777     1.0  0.81813  0.01541  0.06459  1.0000
  C   C1778     1.0  0.81149  0.03610  0.06474  1.0000
  C   C1779     1.0  0.82533  0.05003  0.06012  1.0000
  C   C1780     1.0  0.84590  0.04350  0.05516  1.0000
  C   C1781     1.0  0.85242  0.02291  0.05450  1.0000
  C   C1782     1.0  0.83866  0.00893  0.05937  1.0000
  H   H3069     1.0  0.79577  0.04131  0.06873  1.0000
  H   H3070     1.0  0.82008  0.06596  0.06056  1.0000
  H   H3071     1.0  0.86806  0.01775  0.05041  1.0000
  C   C1783     1.0  0.92300  0.27793  0.14791  1.0000
  H   H3072     1.0  0.94554  0.01689  0.10347  1.0000
  C   C1784     1.0  0.87472  0.04111  0.09155  1.0000
  H   H3073     1.0  0.90531  0.02583  0.00473  1.0000
  C   C1785     1.0  0.88668  0.24020  0.12955  1.0000
  C   C1786     1.0  0.90456  0.22617  0.12855  1.0000
  C   C1787     1.0  0.92026  0.22888  0.11586  1.0000
  C   C1788     1.0  0.91823  0.24580  0.10420  1.0000
  C   C1789     1.0  0.90025  0.25961  0.10508  1.0000
  C   C1790     1.0  0.88450  0.25682  0.11767  1.0000
  H   H3074     1.0  0.90631  0.21330  0.13774  1.0000
  H   H3075     1.0  0.93407  0.21821  0.11530  1.0000
  H   H3076     1.0  0.89857  0.27271  0.09607  1.0000
  H   H3077     1.0  0.87081  0.26770  0.11832  1.0000
  C   C1791     1.0  0.75073  0.22820  0.13969  1.0000
  C   C1792     1.0  0.74623  0.20979  0.13684  1.0000
  C   C1793     1.0  0.72624  0.20728  0.13629  1.0000
  C   C1794     1.0  0.71053  0.22331  0.13839  1.0000
  C   C1795     1.0  0.71497  0.24172  0.14136  1.0000
  C   C1796     1.0  0.73496  0.24412  0.14215  1.0000
  H   H3078     1.0  0.75833  0.19739  0.13491  1.0000
  H   H3079     1.0  0.72306  0.19306  0.13397  1.0000
  H   H3080     1.0  0.70287  0.25417  0.14304  1.0000
  H   H3081     1.0  0.73819  0.25828  0.14452  1.0000
  C   C1797     1.0  0.73086  0.99897  0.14536  1.0000
  C   C1798     1.0  0.68855  0.45888  0.02814  1.0000
  C   C1799     1.0  0.69459  0.44779  0.04230  1.0000
  C   C1800     1.0  0.70866  0.45416  0.05005  1.0000
  H   H3082     1.0  0.68848  0.43400  0.04727  1.0000
  H   H3083     1.0  0.71319  0.44526  0.06081  1.0000
  C   C1801     1.0  0.77531  0.38708  0.11701  1.0000
  C   C1802     1.0  0.79344  0.38361  0.10681  1.0000
  C   C1803     1.0  0.80431  0.36388  0.10695  1.0000
  C   C1804     1.0  0.79731  0.34747  0.11735  1.0000
  C   C1805     1.0  0.77907  0.35087  0.12743  1.0000
  C   C1806     1.0  0.76814  0.37058  0.12722  1.0000
  H   H3084     1.0  0.79910  0.39614  0.09884  1.0000
  H   H3085     1.0  0.81833  0.36140  0.09901  1.0000
  H   H3086     1.0  0.77338  0.33836  0.13538  1.0000
  H   H3087     1.0  0.75402  0.37313  0.13503  1.0000
  C   C1807     1.0  0.68469  0.09524  0.06209  1.0000
  C   C1808     1.0  0.89538  0.01703  0.00073  1.0000
  H   H3088     1.0  0.87533  0.09119  0.00260  1.0000
  H   H3089     1.0  0.83078  0.26155  0.19629  1.0000
  H   H3090     1.0  0.67967  0.19909  0.16845  1.0000
  H   H3091     1.0  0.83292  0.31495  0.20282  1.0000
  Fe  Fe267     1.0  0.75353  0.47136  0.07388  1.0000
  S   S531      1.0  0.71047  0.99388  0.08355  1.0000
  H   H3092     1.0  0.84000  0.36218  0.17712  1.0000
  C   C1809     1.0  0.71693  0.47188  0.04381  1.0000
  H   H3093     1.0  0.67393  0.18031  0.18470  1.0000
  H   H3094     1.0  0.96545  0.28094  0.14962  1.0000
  C   C1810     1.0  0.96735  0.24270  0.12762  1.0000
  C   C1811     1.0  0.97491  0.14973  0.06151  1.0000
  C   C1812     1.0  0.67591  0.13758  0.21255  1.0000
  H   H3095     1.0  0.70784  0.12098  0.06706  1.0000
  C   C1813     1.0  0.68760  0.19548  0.20682  1.0000
  H   H3096     1.0  0.79157  0.25578  0.09477  1.0000
  H   H3097     1.0  0.71202  0.16071  0.20008  1.0000
  H   H3098     1.0  0.84104  0.35664  0.15072  1.0000
  H   H3099     1.0  0.91010  0.08034  0.98166  1.0000
  H   H3100     1.0  0.93012  0.99886  0.11414  1.0000
  C   C1814     1.0  0.89111  0.99867  0.10691  1.0000
  S   S532      1.0  0.83042  0.46920  0.07316  1.0000
  H   H3101     1.0  0.93029  0.28340  0.15654  1.0000
  H   H3102     1.0  0.85039  0.08614  0.00368  1.0000
  C   C1815     1.0  0.66564  0.14234  0.19931  1.0000
  H   H3103     1.0  0.70210  0.99745  0.11845  1.0000
  C   C1816     1.0  0.86373  0.04420  0.98310  1.0000
  H   H3104     1.0  0.92832  0.25670  0.13141  1.0000
  H   H3105     1.0  0.88650  0.00939  0.11573  1.0000
  C   C1817     1.0  0.67485  0.01653  0.13968  1.0000
  C   C1818     1.0  0.69935  0.12358  0.07887  1.0000
  H   H3106     1.0  0.96054  0.24192  0.11696  1.0000
  H   H3107     1.0  0.70206  0.15907  0.18232  1.0000
  H   H3108     1.0  0.94351  0.99581  0.09449  1.0000
  Fe  Fe268     1.0  0.65262  0.46096  0.99773  1.0000
  H   H3109     1.0  0.86316  0.98768  0.11814  1.0000
  C   C1819     1.0  0.95616  0.99431  0.00538  1.0000
  H   H3110     1.0  0.83251  0.01625  0.01649  1.0000
  H   H3111     1.0  0.68112  0.10533  0.05115  1.0000
  H   H3112     1.0  0.71953  0.19162  0.21131  1.0000
  H   H3113     1.0  0.70329  0.15591  0.07344  1.0000
  Fe  Fe269     1.0  0.73126  0.99608  0.06055  1.0000
  H   H3114     1.0  0.84185  0.04667  0.02226  1.0000
  H   H3115     1.0  0.87204  0.02176  0.02057  1.0000
  H   H3116     1.0  0.72597  0.22528  0.17559  1.0000
  C   C1820     1.0  0.84783  0.05970  0.97482  1.0000
  H   H3117     1.0  0.71968  0.22521  0.19677  1.0000
  H   H3118     1.0  0.87892  0.04708  0.97683  1.0000
  H   H3119     1.0  0.83280  0.34931  0.13443  1.0000
  H   H3120     1.0  0.67286  0.15550  0.06767  1.0000
  H   H3121     1.0  0.71302  0.02193  0.13106  1.0000
  H   H3122     1.0  0.84107  0.07281  0.98093  1.0000
  H   H3123     1.0  0.98364  0.24278  0.12322  1.0000
  H   H3124     1.0  0.65726  0.10298  0.07734  1.0000
  S   S533      1.0  0.73460  0.48110  0.05312  1.0000
  H   H3125     1.0  0.90213  0.98674  0.11258  1.0000
  H   H3126     1.0  0.89625  0.99746  0.06034  1.0000
  H   H3127     1.0  0.65472  0.22519  0.18241  1.0000
  C   C1821     1.0  0.92866  0.05416  0.97319  1.0000
  H   H3128     1.0  0.84633  0.47399  0.10965  1.0000
  H   H3129     1.0  0.67714  0.02426  0.12727  1.0000
  H   H3130     1.0  0.97105  0.01976  0.00608  1.0000
  N   N129      1.0  0.76613  0.29576  0.10032  1.0000
  C   C1822     1.0  0.78669  0.29855  0.09112  1.0000
  C   C1823     1.0  0.76783  0.27435  0.10891  1.0000
  C   C1824     1.0  0.76136  0.31036  0.11225  1.0000
  C   C1825     1.0  0.75081  0.30018  0.08898  1.0000
  C   C1826     1.0  0.78878  0.31991  0.08197  1.0000
  C   C1827     1.0  0.77496  0.25754  0.09835  1.0000
  C   C1828     1.0  0.74148  0.30965  0.12371  1.0000
  C   C1829     1.0  0.73128  0.29044  0.09420  1.0000
  H   H3131     1.0  0.79851  0.29458  0.09909  1.0000
  H   H3132     1.0  0.79120  0.28816  0.08207  1.0000
  H   H3133     1.0  0.75345  0.27091  0.11608  1.0000
  H   H3134     1.0  0.77845  0.27213  0.11772  1.0000
  H   H3135     1.0  0.77373  0.30804  0.11959  1.0000
  H   H3136     1.0  0.76048  0.32630  0.10630  1.0000
  H   H3137     1.0  0.74624  0.31683  0.08604  1.0000
  H   H3138     1.0  0.75778  0.29477  0.07756  1.0000
  H   H3139     1.0  0.80390  0.31939  0.07463  1.0000
  H   H3140     1.0  0.77738  0.32530  0.07385  1.0000
  H   H3141     1.0  0.78818  0.33117  0.08999  1.0000
  H   H3142     1.0  0.77157  0.24283  0.10523  1.0000
  H   H3143     1.0  0.76731  0.26022  0.08773  1.0000
  H   H3144     1.0  0.74076  0.32026  0.13232  1.0000
  H   H3145     1.0  0.74045  0.29454  0.13076  1.0000
  H   H3146     1.0  0.72821  0.31506  0.11743  1.0000
  H   H3147     1.0  0.71855  0.30092  0.08940  1.0000
  H   H3148     1.0  0.72661  0.28718  0.10709  1.0000
  N   N130      1.0  0.91710  0.18406  0.08874  1.0000
  C   C1830     1.0  0.93300  0.19614  0.07937  1.0000
  C   C1831     1.0  0.92474  0.17398  0.10395  1.0000
  C   C1832     1.0  0.89791  0.19872  0.09213  1.0000
  C   C1833     1.0  0.91398  0.16892  0.07883  1.0000
  C   C1834     1.0  0.92732  0.20957  0.06402  1.0000
  C   C1835     1.0  0.94421  0.15848  0.10222  1.0000
  C   C1836     1.0  0.88271  0.19248  0.10676  1.0000
  C   C1837     1.0  0.89970  0.15355  0.08656  1.0000
  H   H3149     1.0  0.93713  0.20630  0.08676  1.0000
  H   H3150     1.0  0.94722  0.18608  0.07578  1.0000
  H   H3151     1.0  0.91339  0.16586  0.11207  1.0000
  H   H3152     1.0  0.92754  0.18561  0.11064  1.0000
  H   H3153     1.0  0.90145  0.21352  0.09398  1.0000
  H   H3154     1.0  0.88953  0.20226  0.08177  1.0000
  H   H3155     1.0  0.90768  0.17677  0.06800  1.0000
  H   H3156     1.0  0.92856  0.16034  0.07401  1.0000
  H   H3157     1.0  0.91380  0.22105  0.06625  1.0000
  H   H3158     1.0  0.93989  0.21814  0.05862  1.0000
  H   H3159     1.0  0.92528  0.20049  0.05508  1.0000
  H   H3160     1.0  0.94749  0.15120  0.11417  1.0000
  H   H3161     1.0  0.94281  0.14619  0.09570  1.0000
  H   H3162     1.0  0.95750  0.16577  0.09654  1.0000
  H   H3163     1.0  0.87837  0.17749  0.10689  1.0000
  H   H3164     1.0  0.86869  0.20373  0.10680  1.0000
  H   H3165     1.0  0.88861  0.19280  0.11789  1.0000
  H   H3166     1.0  0.88378  0.15993  0.08523  1.0000
  H   H3167     1.0  0.90093  0.14794  0.09913  1.0000
  H   H3168     1.0  0.90399  0.13981  0.08061  1.0000
  N   N131      1.0  0.80682  0.34557  0.17347  1.0000
  C   C1838     1.0  0.78623  0.33920  0.17898  1.0000
  C   C1839     1.0  0.82194  0.32921  0.18085  1.0000
  C   C1840     1.0  0.81064  0.34704  0.15563  1.0000
  C   C1841     1.0  0.80647  0.36584  0.17853  1.0000
  C   C1842     1.0  0.76820  0.35382  0.17289  1.0000
  C   C1843     1.0  0.82101  0.32737  0.19896  1.0000
  C   C1844     1.0  0.83273  0.34576  0.14744  1.0000
  C   C1845     1.0  0.82673  0.37405  0.17607  1.0000
  H   H3169     1.0  0.78587  0.32423  0.17545  1.0000
  H   H3170     1.0  0.78259  0.33712  0.19207  1.0000
  H   H3171     1.0  0.83772  0.33105  0.17583  1.0000
  H   H3172     1.0  0.82018  0.31418  0.17818  1.0000
  H   H3173     1.0  0.80467  0.33465  0.15175  1.0000
  H   H3174     1.0  0.80241  0.36142  0.15002  1.0000
  H   H3175     1.0  0.79623  0.37773  0.17198  1.0000
  H   H3176     1.0  0.79961  0.36597  0.19114  1.0000
  H   H3177     1.0  0.77009  0.35718  0.15985  1.0000
  H   H3178     1.0  0.75435  0.34659  0.17666  1.0000
  H   H3179     1.0  0.76534  0.36814  0.17802  1.0000
  C   C1846     1.0  0.91679  0.01994  0.09485  1.0000
  H   H3180     1.0  0.80654  0.32320  0.20553  1.0000
  H   H3181     1.0  0.67608  0.12537  0.10426  1.0000
  H   H3182     1.0  0.82946  0.02715  0.99626  1.0000
  H   H3183     1.0  0.95040  0.21810  0.13939  1.0000
  H   H3184     1.0  0.73045  0.99126  0.15774  1.0000
  H   H3185     1.0  0.95779  0.99445  0.99247  1.0000
  H   H3186     1.0  0.67808  0.09236  0.08736  1.0000
  C   C1847     1.0  0.82845  0.03047  0.00847  1.0000
  H   H3187     1.0  0.73609  0.98794  0.13694  1.0000
  H   H3188     1.0  0.69917  0.14650  0.09439  1.0000
  H   H3189     1.0  0.67417  0.20585  0.21146  1.0000
  H   H3190     1.0  0.70517  0.11056  0.08742  1.0000
  C   C1848     1.0  0.69680  0.47662  0.02192  1.0000
  H   H3191     1.0  0.67981  0.13745  0.05442  1.0000
  N   N132      1.0  0.86282  0.04353  0.00072  1.0000
  C   C1849     1.0  0.87298  0.02299  0.00748  1.0000
  C   C1850     1.0  0.84157  0.04650  0.00946  1.0000
  C   C1851     1.0  0.87411  0.05913  0.00423  1.0000
  H   H3192     1.0  0.68954  0.99740  0.16870  1.0000
  H   H3193     1.0  0.68208  0.23233  0.19214  1.0000
  C   C1852     1.0  0.93604  0.25961  0.14092  1.0000
  C   C1853     1.0  0.86625  0.08145  0.99858  1.0000
  H   H3194     1.0  0.69087  0.22851  0.17222  1.0000
  C   C1854     1.0  0.68617  0.98520  0.03835  1.0000
  C   C1855     1.0  0.67348  0.10362  0.07719  1.0000
  H   H3195     1.0  0.83303  0.06141  0.00551  1.0000
  C   C1856     1.0  0.96869  0.99212  0.05780  1.0000
  H   H3196     1.0  0.87441  0.05760  0.01718  1.0000
  H   H3197     1.0  0.89014  0.05673  0.99876  1.0000
  H   H3198     1.0  0.96331  0.10275  0.06023  1.0000
  H   H3199     1.0  0.72840  0.15803  0.18191  1.0000
  H   H3200     1.0  0.88467  0.05178  0.09304  1.0000
  H   H3201     1.0  0.66112  0.00928  0.14070  1.0000
  H   H3202     1.0  0.96144  0.25663  0.15958  1.0000
  C   C1857     1.0  0.66903  0.03325  0.15042  1.0000
  H   H3203     1.0  0.96832  0.22310  0.15085  1.0000
  H   H3204     1.0  0.90998  0.03091  0.10316  1.0000
  H   H3205     1.0  0.97681  0.21029  0.13392  1.0000
  H   H3206     1.0  0.86838  0.08483  0.98549  1.0000
  H   H3207     1.0  0.93480  0.24648  0.15047  1.0000
  H   H3208     1.0  0.71210  0.24710  0.18329  1.0000
  C   C1858     1.0  0.96814  0.26465  0.14810  1.0000
  H   H3209     1.0  0.95011  0.27701  0.11203  1.0000
  S   S534      1.0  0.98130  0.22330  0.06110  1.0000
  C   C1859     1.0  0.70615  0.14263  0.08259  1.0000
  H   H3210     1.0  0.82661  0.38337  0.18547  1.0000
  H   H3211     1.0  0.94953  0.29349  0.12605  1.0000
  C   C1860     1.0  0.69397  0.22326  0.18462  1.0000
  C   C1861     1.0  0.71199  0.18847  0.18246  1.0000
  C   C1862     1.0  0.96553  0.22252  0.13873  1.0000
  C   C1863     1.0  0.88645  0.02388  0.08257  1.0000
  C   C1864     1.0  0.95800  0.27949  0.12170  1.0000
  H   H3212     1.0  0.66230  0.14674  0.09445  1.0000
  H   H3213     1.0  0.80337  0.21528  0.20592  1.0000
  C   C1865     1.0  0.71047  0.01198  0.14264  1.0000
  N   N133      1.0  0.90112  0.00864  0.09138  1.0000
  S   S535      1.0  0.96069  0.01713  0.06210  1.0000
  H   H3214     1.0  0.86278  0.99619  0.09797  1.0000
  H   H3215     1.0  0.72556  0.19242  0.18597  1.0000
  C   C1866     1.0  0.70428  0.98825  0.02851  1.0000
  H   H3216     1.0  0.96212  0.17729  0.04817  1.0000
  N   N134      1.0  0.69276  0.20091  0.18916  1.0000
  N   N135      1.0  0.69292  0.00087  0.14311  1.0000
  C   C1867     1.0  0.80584  0.27832  0.20974  1.0000
  H   H3217     1.0  0.73250  0.27643  0.08885  1.0000
  H   H3218     1.0  0.84103  0.33018  0.14963  1.0000
  S   S536      1.0  0.78711  0.46173  0.10824  1.0000
  H   H3219     1.0  0.67234  0.13660  0.18840  1.0000
  S   S537      1.0  0.72526  0.99439  0.03559  1.0000
  H   H3220     1.0  0.72022  0.98782  0.00482  1.0000
  C   C1868     1.0  0.66612  0.13001  0.09497  1.0000
  H   H3221     1.0  0.89801  0.01855  0.98764  1.0000
  H   H3222     1.0  0.92450  0.99897  0.07278  1.0000
  C   C1869     1.0  0.97878  0.28517  0.11404  1.0000
  H   H3223     1.0  0.84296  0.47820  0.13011  1.0000
  H   H3224     1.0  0.90033  0.00090  0.00526  1.0000
  H   H3225     1.0  0.94147  0.00367  0.00884  1.0000
  H   H3226     1.0  0.71431  0.19180  0.16928  1.0000
  H   H3227     1.0  0.70126  0.09191  0.06213  1.0000
  H   H3228     1.0  0.82900  0.38376  0.16441  1.0000
  H   H3229     1.0  0.66785  0.02700  0.16315  1.0000
  H   H3230     1.0  0.84392  0.99296  0.05914  1.0000
  S   S538      1.0  0.97895  0.20135  0.09864  1.0000
  H   H3231     1.0  0.87257  0.47261  0.06590  1.0000
  Fe  Fe270     1.0  0.79688  0.46838  0.08196  1.0000
  C   C1870     1.0  0.89938  0.98563  0.07051  1.0000
  C   C1871     1.0  0.71418  0.23029  0.18526  1.0000
  H   H3232     1.0  0.82398  0.34134  0.20260  1.0000
  C   C1872     1.0  0.82477  0.26635  0.20766  1.0000
  H   H3233     1.0  0.92326  0.02911  0.08383  1.0000
  C   C1873     1.0  0.97515  0.12862  0.06471  1.0000
  H   H3234     1.0  0.72271  0.13956  0.08281  1.0000
  C   C1874     1.0  0.93483  0.00682  0.10217  1.0000
  H   H3235     1.0  0.68430  0.98741  0.05061  1.0000
  H   H3236     1.0  0.66853  0.98826  0.12185  1.0000
  C   C1875     1.0  0.65485  0.20866  0.18576  1.0000
  H   H3237     1.0  0.65405  0.04186  0.14826  1.0000
  C   C1876     1.0  0.69758  0.98805  0.12994  1.0000
  H   H3238     1.0  0.74255  0.00908  0.14345  1.0000
  C   C1877     1.0  0.68782  0.98885  0.15924  1.0000
  H   H3239     1.0  0.67980  0.08052  0.06174  1.0000
  H   H3240     1.0  0.97684  0.29650  0.10331  1.0000
  H   H3241     1.0  0.83566  0.05206  0.97251  1.0000
  H   H3242     1.0  0.97937  0.01369  0.97454  1.0000
  C   C1878     1.0  0.91186  0.99297  0.08110  1.0000
  S   S539      1.0  0.65472  0.44578  0.97591  1.0000
  H   H3243     1.0  0.82509  0.46723  0.12294  1.0000
  C   C1879     1.0  0.70630  0.98549  0.01255  1.0000
  H   H3244     1.0  0.87494  0.01671  0.07890  1.0000
  H   H3245     1.0  0.86319  0.05012  0.08446  1.0000
  C   C1880     1.0  0.67042  0.14030  0.06586  1.0000
  H   H3246     1.0  0.67166  0.98666  0.16121  1.0000
  C   C1881     1.0  0.83525  0.47893  0.11977  1.0000
  C   C1882     1.0  0.97309  0.00321  0.01041  1.0000
  C   C1883     1.0  0.87292  0.98809  0.10646  1.0000
  H   H3247     1.0  0.98500  0.11960  0.07267  1.0000
  C   C1884     1.0  0.95676  0.98249  0.05069  1.0000
  H   H3248     1.0  0.98527  0.29251  0.12211  1.0000
  C   C1885     1.0  0.85189  0.01360  0.39700  1.0000
  S   S540      1.0  0.96648  0.22591  0.37604  1.0000
  S   S541      1.0  0.80671  0.44598  0.43494  1.0000
  H   H3249     1.0  0.90988  0.36387  0.44830  1.0000
  Fe  Fe271     1.0  0.97335  0.23186  0.34949  1.0000
  S   S542      1.0  0.95250  0.22992  0.33171  1.0000
  Fe  Fe272     1.0  0.80155  0.29072  0.29778  1.0000
  S   S543      1.0  0.80446  0.26737  0.31925  1.0000
  S   S544      1.0  0.77987  0.32034  0.29718  1.0000
  Fe  Fe273     1.0  0.82842  0.26298  0.27617  1.0000
  S   S545      1.0  0.83373  0.23761  0.29623  1.0000
  S   S546      1.0  0.84205  0.25746  0.25121  1.0000
  Fe  Fe274     1.0  0.80033  0.24513  0.30398  1.0000
  S   S547      1.0  0.78088  0.22031  0.31319  1.0000
  Fe  Fe275     1.0  0.83776  0.26184  0.30977  1.0000
  S   S548      1.0  0.85819  0.25942  0.32882  1.0000
  S   S549      1.0  0.79491  0.26880  0.28320  1.0000
  S   S550      1.0  0.83493  0.28689  0.28903  1.0000
  C   C1886     1.0  0.67455  0.08704  0.27342  1.0000
  H   H3250     1.0  0.95310  0.00757  0.46004  1.0000
  Fe  Fe276     1.0  0.71225  0.43635  0.35600  1.0000
  S   S551      1.0  0.73854  0.42280  0.36891  1.0000
  S   S552      1.0  0.68054  0.43908  0.37020  1.0000
  Fe  Fe277     1.0  0.74005  0.45060  0.32549  1.0000
  S   S553      1.0  0.76813  0.43824  0.33667  1.0000
  Fe  Fe278     1.0  0.75280  0.41090  0.34629  1.0000
  S   S554      1.0  0.77129  0.37950  0.34819  1.0000
  Fe  Fe279     1.0  0.75169  0.45106  0.35848  1.0000
  H   H3251     1.0  0.83801  0.41833  0.44935  1.0000
  S   S555      1.0  0.72552  0.42226  0.33404  1.0000
  S   S556      1.0  0.72459  0.46555  0.34649  1.0000
  H   H3252     1.0  0.67760  0.04090  0.37469  1.0000
  S   S557      1.0  0.67564  0.01754  0.32906  1.0000
  Fe  Fe280     1.0  0.69368  0.17553  0.28517  1.0000
  S   S558      1.0  0.70582  0.14680  0.27510  1.0000
  S   S559      1.0  0.71072  0.20278  0.27933  1.0000
  Fe  Fe281     1.0  0.69188  0.13021  0.29787  1.0000
  S   S560      1.0  0.71039  0.10095  0.30808  1.0000
  Fe  Fe282     1.0  0.67572  0.14930  0.26695  1.0000
  S   S561      1.0  0.68129  0.13828  0.24292  1.0000
  S   S562      1.0  0.68224  0.15888  0.30882  1.0000
  H   H3253     1.0  0.72960  0.06454  0.35954  1.0000
  C   C1887     1.0  0.89756  0.04754  0.45186  1.0000
  S   S563      1.0  0.81611  0.00652  0.44800  1.0000
  H   H3254     1.0  0.75148  0.03337  0.36964  1.0000
  H   H3255     1.0  0.71083  0.10146  0.27373  1.0000
  H   H3256     1.0  0.89795  0.98830  0.45954  1.0000
  S   S564      1.0  0.86936  0.02654  0.44539  1.0000
  C   C1888     1.0  0.68577  0.04043  0.32281  1.0000
  C   C1889     1.0  0.70658  0.04087  0.31955  1.0000
  C   C1890     1.0  0.71390  0.05952  0.31486  1.0000
  C   C1891     1.0  0.70054  0.07783  0.31332  1.0000
  C   C1892     1.0  0.67975  0.07733  0.31630  1.0000
  C   C1893     1.0  0.67244  0.05871  0.32099  1.0000
  H   H3257     1.0  0.71699  0.02687  0.32062  1.0000
  H   H3258     1.0  0.73001  0.05977  0.31245  1.0000
  H   H3259     1.0  0.93080  0.01230  0.45059  1.0000
  C   C1894     1.0  0.69565  0.45433  0.42459  1.0000
  C   C1895     1.0  0.92639  0.40234  0.46370  1.0000
  H   H3260     1.0  0.68828  0.46691  0.39361  1.0000
  C   C1896     1.0  0.91030  0.05288  0.46127  1.0000
  H   H3261     1.0  0.68345  0.40135  0.35726  1.0000
  C   C1897     1.0  0.79460  0.45338  0.41772  1.0000
  H   H3262     1.0  0.81278  0.05089  0.42539  1.0000
  H   H3263     1.0  0.75302  0.19949  0.24983  1.0000
  C   C1898     1.0  0.77585  0.46352  0.38990  1.0000
  C   C1899     1.0  0.78044  0.44326  0.39650  1.0000
  H   H3264     1.0  0.75408  0.03461  0.34101  1.0000
  N   N136      1.0  0.86471  0.39711  0.44247  1.0000
  Fe  Fe283     1.0  0.69244  0.98673  0.33807  1.0000
  C   C1900     1.0  0.76149  0.21558  0.30359  1.0000
  C   C1901     1.0  0.75382  0.22959  0.29146  1.0000
  C   C1902     1.0  0.73796  0.22561  0.28445  1.0000
  C   C1903     1.0  0.72991  0.20741  0.28920  1.0000
  C   C1904     1.0  0.73760  0.19338  0.30132  1.0000
  C   C1905     1.0  0.75321  0.19754  0.30855  1.0000
  H   H3265     1.0  0.75998  0.24354  0.28757  1.0000
  H   H3266     1.0  0.73187  0.23668  0.27527  1.0000
  H   H3267     1.0  0.73151  0.17933  0.30512  1.0000
  H   H3268     1.0  0.75898  0.18665  0.31798  1.0000
  C   C1906     1.0  0.82814  0.26625  0.23530  1.0000
  S   S565      1.0  0.84967  0.46482  0.45209  1.0000
  C   C1907     1.0  0.80941  0.27860  0.23725  1.0000
  H   H3269     1.0  0.68742  0.06177  0.35209  1.0000
  H   H3270     1.0  0.80344  0.28349  0.24858  1.0000
  C   C1908     1.0  0.77711  0.33602  0.31195  1.0000
  C   C1909     1.0  0.79004  0.33233  0.32338  1.0000
  C   C1910     1.0  0.78769  0.34548  0.33472  1.0000
  C   C1911     1.0  0.77244  0.36238  0.33471  1.0000
  C   C1912     1.0  0.75919  0.36576  0.32352  1.0000
  C   C1913     1.0  0.76156  0.35264  0.31216  1.0000
  H   H3271     1.0  0.80204  0.31953  0.32336  1.0000
  H   H3272     1.0  0.79801  0.34276  0.34335  1.0000
  H   H3273     1.0  0.74717  0.37850  0.32361  1.0000
  H   H3274     1.0  0.75137  0.35545  0.30344  1.0000
  S   S566      1.0  0.94900  0.39175  0.45281  1.0000
  C   C1914     1.0  0.92650  0.23940  0.33077  1.0000
  C   C1915     1.0  0.91806  0.23692  0.31759  1.0000
  C   C1916     1.0  0.89733  0.24333  0.31659  1.0000
  C   C1917     1.0  0.88470  0.25217  0.32887  1.0000
  C   C1918     1.0  0.89315  0.25466  0.34205  1.0000
  C   C1919     1.0  0.91391  0.24842  0.34298  1.0000
  H   H3275     1.0  0.92762  0.22995  0.30807  1.0000
  H   H3276     1.0  0.89110  0.24124  0.30640  1.0000
  H   H3277     1.0  0.88355  0.26152  0.35160  1.0000
  H   H3278     1.0  0.92015  0.25053  0.35316  1.0000
  C   C1920     1.0  0.67220  0.08394  0.23893  1.0000
  H   H3279     1.0  0.73324  0.45006  0.39268  1.0000
  H   H3280     1.0  0.89774  0.05473  0.43972  1.0000
  C   C1921     1.0  0.96108  0.14980  0.43253  1.0000
  C   C1922     1.0  0.95370  0.16686  0.42231  1.0000
  C   C1923     1.0  0.96615  0.17438  0.40867  1.0000
  H   H3281     1.0  0.67133  0.10179  0.26577  1.0000
  H   H3282     1.0  0.93850  0.17453  0.42521  1.0000
  H   H3283     1.0  0.96061  0.18785  0.40110  1.0000
  H   H3284     1.0  0.91948  0.42550  0.44426  1.0000
  H   H3285     1.0  0.77700  0.43144  0.39089  1.0000
  H   H3286     1.0  0.70650  0.02348  0.35107  1.0000
  H   H3287     1.0  0.69647  0.27548  0.32076  1.0000
  C   C1924     1.0  0.69663  0.05362  0.27531  1.0000
  C   C1925     1.0  0.90065  0.37554  0.44078  1.0000
  H   H3288     1.0  0.72626  0.24090  0.35163  1.0000
  C   C1926     1.0  0.74197  0.23991  0.34539  1.0000
  H   H3289     1.0  0.74974  0.23134  0.24952  1.0000
  H   H3290     1.0  0.74345  0.23296  0.33451  1.0000
  N   N137      1.0  0.84003  0.03449  0.39811  1.0000
  C   C1927     1.0  0.85186  0.38561  0.43575  1.0000
  H   H3291     1.0  0.70935  0.00838  0.39526  1.0000
  C   C1928     1.0  0.95306  0.22546  0.42229  1.0000
  C   C1929     1.0  0.84804  0.04860  0.38398  1.0000
  H   H3292     1.0  0.68607  0.46725  0.42986  1.0000
  H   H3293     1.0  0.77836  0.20681  0.22791  1.0000
  H   H3294     1.0  0.66929  0.09132  0.31524  1.0000
  C   C1930     1.0  0.83679  0.07045  0.38161  1.0000
  C   C1931     1.0  0.87450  0.01096  0.39873  1.0000
  S   S567      1.0  0.66409  0.17939  0.27556  1.0000
  C   C1932     1.0  0.92306  0.14742  0.37849  1.0000
  H   H3295     1.0  0.97017  0.25558  0.43572  1.0000
  H   H3296     1.0  0.81669  0.38991  0.32774  1.0000
  C   C1933     1.0  0.84318  0.04070  0.41334  1.0000
  H   H3297     1.0  0.86390  0.05016  0.38458  1.0000
  H   H3298     1.0  0.84928  0.04217  0.37279  1.0000
  H   H3299     1.0  0.79604  0.02654  0.38530  1.0000
  H   H3300     1.0  0.81975  0.01110  0.38182  1.0000
  H   H3301     1.0  0.66864  0.03925  0.28123  1.0000
  H   H3302     1.0  0.70426  0.44582  0.43411  1.0000
  C   C1934     1.0  0.76132  0.23988  0.24227  1.0000
  H   H3303     1.0  0.68812  0.02755  0.26731  1.0000
  H   H3304     1.0  0.98190  0.21180  0.41170  1.0000
  H   H3305     1.0  0.69062  0.02412  0.28782  1.0000
  H   H3306     1.0  0.96762  0.25474  0.45661  1.0000
  H   H3307     1.0  0.84290  0.08033  0.38804  1.0000
  H   H3308     1.0  0.83797  0.39551  0.43219  1.0000
  H   H3309     1.0  0.83887  0.07654  0.36880  1.0000
  H   H3310     1.0  0.75594  0.25610  0.24334  1.0000
  H   H3311     1.0  0.73626  0.47696  0.40537  1.0000
  H   H3312     1.0  0.71766  0.07257  0.24875  1.0000
  N   N138      1.0  0.91416  0.18662  0.37139  1.0000
  C   C1935     1.0  0.89587  0.20126  0.36687  1.0000
  C   C1936     1.0  0.91473  0.18676  0.38870  1.0000
  C   C1937     1.0  0.91179  0.16577  0.36866  1.0000
  C   C1938     1.0  0.93255  0.19362  0.36105  1.0000
  C   C1939     1.0  0.89017  0.20083  0.35041  1.0000
  C   C1940     1.0  0.91477  0.20758  0.39360  1.0000
  C   C1941     1.0  0.81807  0.03291  0.39851  1.0000
  H   H3313     1.0  0.81635  0.03750  0.37288  1.0000
  H   H3314     1.0  0.88226  0.19859  0.37567  1.0000
  H   H3315     1.0  0.89794  0.21717  0.36697  1.0000
  H   H3316     1.0  0.92803  0.17666  0.39286  1.0000
  H   H3317     1.0  0.90142  0.18054  0.39599  1.0000
  H   H3318     1.0  0.89560  0.16361  0.37146  1.0000
  H   H3319     1.0  0.91641  0.16401  0.35594  1.0000
  H   H3320     1.0  0.93162  0.19360  0.34838  1.0000
  H   H3321     1.0  0.93328  0.20977  0.36147  1.0000
  H   H3322     1.0  0.90231  0.20464  0.34066  1.0000
  H   H3323     1.0  0.88581  0.18616  0.34937  1.0000
  H   H3324     1.0  0.87683  0.21256  0.34851  1.0000
  H   H3325     1.0  0.90000  0.21744  0.39294  1.0000
  H   H3326     1.0  0.91743  0.20538  0.40612  1.0000
  H   H3327     1.0  0.92692  0.21547  0.38645  1.0000
  H   H3328     1.0  0.92014  0.06403  0.45634  1.0000
  C   C1942     1.0  0.81348  0.21099  0.25077  1.0000
  H   H3329     1.0  0.92263  0.99413  0.43316  1.0000
  C   C1943     1.0  0.86213  0.37419  0.42188  1.0000
  C   C1944     1.0  0.67991  0.06641  0.25137  1.0000
  S   S568      1.0  0.97145  0.27397  0.39225  1.0000
  N   N139      1.0  0.73966  0.27671  0.33054  1.0000
  C   C1945     1.0  0.74914  0.29555  0.32959  1.0000
  C   C1946     1.0  0.74478  0.26999  0.31443  1.0000
  C   C1947     1.0  0.74940  0.26061  0.34236  1.0000
  C   C1948     1.0  0.71722  0.28162  0.33571  1.0000
  C   C1949     1.0  0.74741  0.30424  0.34520  1.0000
  C   C1950     1.0  0.73743  0.28553  0.30064  1.0000
  H   H3330     1.0  0.76549  0.29283  0.32483  1.0000
  H   H3331     1.0  0.74236  0.30814  0.32117  1.0000
  H   H3332     1.0  0.73889  0.25590  0.31411  1.0000
  H   H3333     1.0  0.76144  0.26596  0.31139  1.0000
  H   H3334     1.0  0.76606  0.25782  0.33871  1.0000
  H   H3335     1.0  0.74705  0.26559  0.35419  1.0000
  H   H3336     1.0  0.71397  0.28148  0.34876  1.0000
  H   H3337     1.0  0.71161  0.29734  0.33041  1.0000
  H   H3338     1.0  0.73180  0.30600  0.35159  1.0000
  H   H3339     1.0  0.75795  0.29501  0.35303  1.0000
  H   H3340     1.0  0.75196  0.31957  0.34246  1.0000
  H   H3341     1.0  0.74714  0.29757  0.29713  1.0000
  H   H3342     1.0  0.73860  0.27784  0.29012  1.0000
  H   H3343     1.0  0.72152  0.29255  0.30342  1.0000
  N   N140      1.0  0.79664  0.40700  0.29255  1.0000
  C   C1951     1.0  0.78022  0.39894  0.28679  1.0000
  C   C1952     1.0  0.81622  0.40074  0.28228  1.0000
  C   C1953     1.0  0.79154  0.42981  0.29082  1.0000
  C   C1954     1.0  0.79704  0.39797  0.30965  1.0000
  C   C1955     1.0  0.75825  0.40776  0.29282  1.0000
  C   C1956     1.0  0.82306  0.37770  0.28297  1.0000
  C   C1957     1.0  0.80899  0.44199  0.28981  1.0000
  C   C1958     1.0  0.81380  0.40243  0.31792  1.0000
  H   H3344     1.0  0.78177  0.40172  0.27362  1.0000
  H   H3345     1.0  0.78144  0.38221  0.29011  1.0000
  H   H3346     1.0  0.82897  0.40696  0.28516  1.0000
  H   H3347     1.0  0.81517  0.40722  0.26968  1.0000
  H   H3348     1.0  0.78466  0.43584  0.27985  1.0000
  H   H3349     1.0  0.77990  0.43445  0.30075  1.0000
  H   H3350     1.0  0.78264  0.40316  0.31699  1.0000
  H   H3351     1.0  0.79761  0.38127  0.31134  1.0000
  H   H3352     1.0  0.74780  0.39811  0.29043  1.0000
  H   H3353     1.0  0.75557  0.40838  0.30568  1.0000
  H   H3354     1.0  0.75396  0.42317  0.28650  1.0000
  H   H3355     1.0  0.82568  0.37031  0.29504  1.0000
  H   H3356     1.0  0.81224  0.37012  0.27870  1.0000
  H   H3357     1.0  0.81920  0.44139  0.27841  1.0000
  H   H3358     1.0  0.81779  0.43717  0.29975  1.0000
  H   H3359     1.0  0.80251  0.45816  0.29020  1.0000
  H   H3360     1.0  0.80909  0.41673  0.32305  1.0000
  H   H3361     1.0  0.82852  0.40279  0.31028  1.0000
  C   C1959     1.0  0.97241  0.29683  0.41524  1.0000
  C   C1960     1.0  0.68342  0.02571  0.37144  1.0000
  Fe  Fe284     1.0  0.65324  0.16096  0.29876  1.0000
  H   H3362     1.0  0.71154  0.00602  0.36805  1.0000
  H   H3363     1.0  0.82086  0.21884  0.21792  1.0000
  H   H3364     1.0  0.90974  0.38804  0.43661  1.0000
  C   C1961     1.0  0.78978  0.43825  0.41030  1.0000
  H   H3365     1.0  0.71254  0.04740  0.27100  1.0000
  H   H3366     1.0  0.79342  0.42252  0.41520  1.0000
  N   N141      1.0  0.71960  0.03546  0.36796  1.0000
  C   C1962     1.0  0.71878  0.05532  0.35700  1.0000
  C   C1963     1.0  0.70595  0.02221  0.36407  1.0000
  H   H3367     1.0  0.76434  0.00979  0.34921  1.0000
  H   H3368     1.0  0.74255  0.00973  0.37317  1.0000
  H   H3369     1.0  0.89864  0.36864  0.43060  1.0000
  C   C1964     1.0  0.71480  0.03957  0.38486  1.0000
  C   C1965     1.0  0.72153  0.44456  0.40222  1.0000
  H   H3370     1.0  0.70004  0.08319  0.34893  1.0000
  H   H3371     1.0  0.72490  0.04980  0.38704  1.0000
  C   C1966     1.0  0.85101  0.40883  0.45452  1.0000
  H   H3372     1.0  0.71164  0.43787  0.39616  1.0000
  C   C1967     1.0  0.98069  0.13989  0.42878  1.0000
  C   C1968     1.0  0.70395  0.19602  0.21702  1.0000
  H   H3373     1.0  0.94647  0.21138  0.42670  1.0000
  C   C1969     1.0  0.71677  0.02067  0.39758  1.0000
  Fe  Fe285     1.0  0.81674  0.46421  0.45153  1.0000
  H   H3374     1.0  0.82166  0.22241  0.24263  1.0000
  H   H3375     1.0  0.95215  0.99352  0.44499  1.0000
  H   H3376     1.0  0.82409  0.07094  0.41218  1.0000
  C   C1970     1.0  0.75010  0.02066  0.34876  1.0000
  H   H3377     1.0  0.65609  0.06722  0.29041  1.0000
  S   S569      1.0  0.74273  0.46218  0.29884  1.0000
  N   N142      1.0  0.68911  0.07225  0.26430  1.0000
  C   C1971     1.0  0.70355  0.26798  0.33131  1.0000
  H   H3378     1.0  0.82027  0.07170  0.38505  1.0000
  H   H3379     1.0  0.85055  0.37295  0.41460  1.0000
  C   C1972     1.0  0.87451  0.41227  0.43005  1.0000
  H   H3380     1.0  0.68869  0.42702  0.41682  1.0000
  C   C1973     1.0  0.81259  0.02667  0.38365  1.0000
  H   H3381     1.0  0.87687  0.01403  0.41040  1.0000
  C   C1974     1.0  0.86010  0.42772  0.42041  1.0000
  H   H3382     1.0  0.86926  0.35869  0.42628  1.0000
  H   H3383     1.0  0.85804  0.04609  0.41202  1.0000
  H   H3384     1.0  0.70200  0.18470  0.22787  1.0000
  C   C1975     1.0  0.66911  0.40371  0.36482  1.0000
  Fe  Fe286     1.0  0.97164  0.36725  0.46416  1.0000
  H   H3385     1.0  0.88314  0.42099  0.43561  1.0000
  H   H3386     1.0  0.69707  0.05754  0.28717  1.0000
  H   H3387     1.0  0.79176  0.24466  0.24143  1.0000
  C   C1976     1.0  0.97649  0.24763  0.44646  1.0000
  H   H3388     1.0  0.88593  0.40490  0.42128  1.0000
  H   H3389     1.0  0.85086  0.42037  0.41436  1.0000
  H   H3390     1.0  0.73992  0.01370  0.34331  1.0000
  H   H3391     1.0  0.84372  0.02737  0.42280  1.0000
  S   S570      1.0  0.94588  0.14194  0.45031  1.0000
  H   H3392     1.0  0.85015  0.43829  0.42782  1.0000
  H   H3393     1.0  0.86916  0.43715  0.41109  1.0000
  H   H3394     1.0  0.80805  0.04726  0.40043  1.0000
  C   C1977     1.0  0.78053  0.47865  0.39737  1.0000
  H   H3395     1.0  0.73284  0.01470  0.39863  1.0000
  H   H3396     1.0  0.67163  0.43599  0.43301  1.0000
  C   C1978     1.0  0.70707  0.08247  0.25651  1.0000
  H   H3397     1.0  0.88308  0.02037  0.38911  1.0000
  H   H3398     1.0  0.97189  0.31393  0.43427  1.0000
  H   H3399     1.0  0.71088  0.25254  0.32943  1.0000
  N   N143      1.0  0.79219  0.21237  0.24731  1.0000
  S   S571      1.0  0.66242  0.13117  0.28933  1.0000
  H   H3400     1.0  0.84572  0.37393  0.44505  1.0000
  C   C1979     1.0  0.78172  0.19747  0.25967  1.0000
  C   C1980     1.0  0.78188  0.23380  0.24825  1.0000
  C   C1981     1.0  0.81541  0.21437  0.26760  1.0000
  C   C1982     1.0  0.76477  0.18819  0.25497  1.0000
  H   H3401     1.0  0.95755  0.30397  0.41272  1.0000
  Fe  Fe287     1.0  0.84919  0.00175  0.45056  1.0000
  N   N144      1.0  0.70973  0.46187  0.41028  1.0000
  C   C1983     1.0  0.89590  0.42745  0.46426  1.0000
  H   H3402     1.0  0.93939  0.14783  0.37759  1.0000
  H   H3403     1.0  0.84513  0.00225  0.40627  1.0000
  H   H3404     1.0  0.77537  0.20430  0.27057  1.0000
  H   H3405     1.0  0.77944  0.23712  0.26062  1.0000
  C   C1984     1.0  0.79356  0.20668  0.23104  1.0000
  H   H3406     1.0  0.80910  0.23004  0.26970  1.0000
  H   H3407     1.0  0.80835  0.20350  0.27705  1.0000
  H   H3408     1.0  0.83169  0.21235  0.26879  1.0000
  H   H3409     1.0  0.95895  0.22291  0.45257  1.0000
  H   H3410     1.0  0.72357  0.05279  0.34454  1.0000
  H   H3411     1.0  0.77107  0.17717  0.24662  1.0000
  Fe  Fe288     1.0  0.98509  0.25042  0.37603  1.0000
  C   C1985     1.0  0.69809  0.06883  0.35699  1.0000
  H   H3412     1.0  0.69149  0.07302  0.36878  1.0000
  H   H3413     1.0  0.83766  0.37498  0.27510  1.0000
  C   C1986     1.0  0.72446  0.47281  0.41542  1.0000
  H   H3414     1.0  0.88698  0.44041  0.45843  1.0000
  H   H3415     1.0  0.91631  0.14594  0.39116  1.0000
  H   H3416     1.0  0.72441  0.07601  0.27690  1.0000
  H   H3417     1.0  0.87338  0.38211  0.41354  1.0000
  H   H3418     1.0  0.94604  0.23729  0.42975  1.0000
  C   C1987     1.0  0.82709  0.05694  0.42054  1.0000
  H   H3419     1.0  0.94875  0.23112  0.41035  1.0000
  C   C1988     1.0  0.69732  0.47568  0.39877  1.0000
  C   C1989     1.0  0.66741  0.14483  0.22683  1.0000
  C   C1990     1.0  0.88052  0.38278  0.45086  1.0000
  S   S572      1.0  0.76394  0.47079  0.37258  1.0000
  H   H3420     1.0  0.66094  0.09567  0.24432  1.0000
  H   H3421     1.0  0.66686  0.05833  0.25629  1.0000
  C   C1991     1.0  0.95323  0.18112  0.36362  1.0000
  H   H3422     1.0  0.92152  0.13335  0.37414  1.0000
  H   H3423     1.0  0.95510  0.17637  0.37617  1.0000
  H   H3424     1.0  0.68033  0.01402  0.38181  1.0000
  H   H3425     1.0  0.69079  0.26615  0.34105  1.0000
  C   C1992     1.0  0.80452  0.22021  0.21728  1.0000
  H   H3426     1.0  0.88120  0.99492  0.39796  1.0000
  H   H3427     1.0  0.70955  0.02485  0.40930  1.0000
  C   C1993     1.0  0.71942  0.08865  0.26784  1.0000
  C   C1994     1.0  0.74113  0.02478  0.36570  1.0000
  H   H3428     1.0  0.65948  0.37662  0.36064  1.0000
  C   C1995     1.0  0.98318  0.28172  0.40648  1.0000
  H   H3429     1.0  0.69941  0.04789  0.38751  1.0000
  H   H3430     1.0  0.79274  0.18410  0.26360  1.0000
  C   C1996     1.0  0.79825  0.28450  0.22454  1.0000
  H   H3431     1.0  0.85914  0.41957  0.45839  1.0000
  H   H3432     1.0  0.75704  0.17966  0.26573  1.0000
  H   H3433     1.0  0.75154  0.22925  0.35330  1.0000
  H   H3434     1.0  0.82238  0.19595  0.24884  1.0000
  H   H3435     1.0  0.96518  0.19070  0.44270  1.0000
  C   C1997     1.0  0.73283  0.42715  0.41284  1.0000
  C   C1998     1.0  0.68086  0.44093  0.42160  1.0000
  H   H3436     1.0  0.68139  0.09049  0.28323  1.0000
  H   H3437     1.0  0.98201  0.21849  0.46024  1.0000
  H   H3438     1.0  0.78366  0.29386  0.22621  1.0000
  S   S573      1.0  0.96541  0.08264  0.46014  1.0000
  H   H3439     1.0  0.73320  0.09413  0.26086  1.0000
  H   H3440     1.0  0.73296  0.46279  0.42439  1.0000
  H   H3441     1.0  0.74114  0.41568  0.40540  1.0000
  H   H3442     1.0  0.83261  0.06116  0.43072  1.0000
  H   H3443     1.0  0.96511  0.19077  0.35886  1.0000
  H   H3444     1.0  0.95644  0.16778  0.35723  1.0000
  H   H3445     1.0  0.74430  0.43231  0.41826  1.0000
  H   H3446     1.0  0.72246  0.41925  0.42215  1.0000
  C   C1999     1.0  0.65547  0.38972  0.36675  1.0000
  C   C2000     1.0  0.66415  0.42069  0.37266  1.0000
  H   H3447     1.0  0.68468  0.09110  0.23139  1.0000
  H   H3448     1.0  0.65631  0.05851  0.32342  1.0000
  H   H3449     1.0  0.70237  0.09671  0.24871  1.0000
  H   H3450     1.0  0.66453  0.07781  0.23085  1.0000
  H   H3451     1.0  0.85132  0.00863  0.38553  1.0000
  H   H3452     1.0  0.91496  0.46866  0.45198  1.0000
  C   C2001     1.0  0.68511  0.03531  0.27795  1.0000
  H   H3453     1.0  0.67019  0.44934  0.41356  1.0000
  H   H3454     1.0  0.81301  0.02189  0.40890  1.0000
  H   H3455     1.0  0.69108  0.05550  0.24486  1.0000
  H   H3456     1.0  0.80139  0.19083  0.23076  1.0000
  C   C2002     1.0  0.88473  0.03299  0.45799  1.0000
  H   H3457     1.0  0.67403  0.02348  0.36273  1.0000
  C   C2003     1.0  0.94269  0.00028  0.45500  1.0000
  H   H3458     1.0  0.87433  0.36899  0.45726  1.0000
  H   H3459     1.0  0.89778  0.99031  0.43191  1.0000
  H   H3460     1.0  0.76228  0.23849  0.22961  1.0000
  H   H3461     1.0  0.85037  0.25080  0.21882  1.0000
  H   H3462     1.0  0.72032  0.47720  0.37757  1.0000
  C   C2004     1.0  0.91442  0.41907  0.45628  1.0000
  C   C2005     1.0  0.97515  0.22482  0.44933  1.0000
  C   C2006     1.0  0.83583  0.26028  0.22043  1.0000
  C   C2007     1.0  0.97631  0.22191  0.42087  1.0000
  C   C2008     1.0  0.78980  0.47365  0.41121  1.0000
  H   H3463     1.0  0.88495  0.38990  0.46016  1.0000
  C   C2009     1.0  0.65417  0.08041  0.28106  1.0000
  C   C2010     1.0  0.98160  0.19168  0.44051  1.0000
  C   C2011     1.0  0.98052  0.30253  0.42744  1.0000
  H   H3464     1.0  0.89177  0.48083  0.46132  1.0000
  H   H3465     1.0  0.70252  0.21119  0.22069  1.0000
  H   H3466     1.0  0.98147  0.23659  0.41551  1.0000
  H   H3467     1.0  0.74847  0.47612  0.26549  1.0000
  N   N145      1.0  0.98509  0.21337  0.43592  1.0000
  C   C2012     1.0  0.91213  0.98289  0.43619  1.0000
  C   C2013     1.0  0.90836  0.47846  0.46118  1.0000
  H   H3468     1.0  0.79754  0.23631  0.21655  1.0000
  H   H3469     1.0  0.83507  0.02302  0.53604  1.0000
  N   N146      1.0  0.82673  0.99943  0.52547  1.0000
  S   S574      1.0  0.95287  0.19132  0.61902  1.0000
  H   H3470     1.0  0.81121  0.29474  0.67707  1.0000
  H   H3471     1.0  0.67536  0.17087  0.65070  1.0000
  N   N147      1.0  0.84345  0.28818  0.67870  1.0000
  H   H3472     1.0  0.96396  0.14559  0.67236  1.0000
  H   H3473     1.0  0.83712  0.33737  0.68832  1.0000
  S   S575      1.0  0.93919  0.10524  0.48965  1.0000
  Fe  Fe289     1.0  0.96809  0.10108  0.50017  1.0000
  S   S576      1.0  0.96926  0.10958  0.52455  1.0000
  Fe  Fe290     1.0  0.94798  0.07333  0.48396  1.0000
  S   S577      1.0  0.92664  0.04927  0.48928  1.0000
  H   H3474     1.0  0.67755  0.43522  0.55928  1.0000
  S   S578      1.0  0.73457  0.34790  0.71535  1.0000
  H   H3475     1.0  0.97537  0.19448  0.51637  1.0000
  H   H3476     1.0  0.70796  0.02716  0.63318  1.0000
  S   S579      1.0  0.84848  0.20841  0.69629  1.0000
  S   S580      1.0  0.97535  0.06817  0.49663  1.0000
  Fe  Fe291     1.0  0.87960  0.21612  0.69493  1.0000
  S   S581      1.0  0.89470  0.23433  0.67305  1.0000
  H   H3477     1.0  0.66990  0.44137  0.54027  1.0000
  C   C2014     1.0  0.73061  0.00064  0.63234  1.0000
  C   C2015     1.0  0.97860  0.20215  0.66087  1.0000
  H   H3478     1.0  0.80878  0.01107  0.55516  1.0000
  C   C2016     1.0  0.91435  0.46768  0.47724  1.0000
  H   H3479     1.0  0.82450  0.29297  0.65242  1.0000
  S   S582      1.0  0.96770  0.33487  0.47319  1.0000
  H   H3480     1.0  0.85974  0.02039  0.50957  1.0000
  S   S583      1.0  0.86570  0.42910  0.49004  1.0000
  Fe  Fe292     1.0  0.75074  0.05338  0.68359  1.0000
  S   S584      1.0  0.72568  0.05457  0.70433  1.0000
  S   S585      1.0  0.75808  0.02654  0.66914  1.0000
  Fe  Fe293     1.0  0.76478  0.09210  0.68990  1.0000
  C   C2017     1.0  0.83579  0.32102  0.69130  1.0000
  S   S586      1.0  0.78240  0.11897  0.68285  1.0000
  H   H3481     1.0  0.72908  0.23447  0.71421  1.0000
  Fe  Fe294     1.0  0.71983  0.08801  0.69571  1.0000
  S   S587      1.0  0.68748  0.10424  0.69677  1.0000
  S   S588      1.0  0.77411  0.05881  0.69791  1.0000
  S   S589      1.0  0.74343  0.08661  0.67417  1.0000
  S   S590      1.0  0.72541  0.40779  0.69539  1.0000
  H   H3482     1.0  0.66832  0.00086  0.62720  1.0000
  H   H3483     1.0  0.67857  0.14513  0.65874  1.0000
  C   C2018     1.0  0.86801  0.16227  0.63794  1.0000
  H   H3484     1.0  0.93099  0.46292  0.47567  1.0000
  H   H3485     1.0  0.92894  0.38133  0.48512  1.0000
  Fe  Fe295     1.0  0.68376  0.44734  0.61333  1.0000
  C   C2019     1.0  0.93337  0.98473  0.46801  1.0000
  S   S591      1.0  0.68455  0.41979  0.63255  1.0000
  H   H3486     1.0  0.67922  0.40356  0.53704  1.0000
  Fe  Fe296     1.0  0.97883  0.20231  0.60128  1.0000
  S   S592      1.0  0.69021  0.44258  0.58777  1.0000
  C   C2020     1.0  0.88912  0.41917  0.47975  1.0000
  C   C2021     1.0  0.81561  0.15237  0.70027  1.0000
  H   H3487     1.0  0.65268  0.19567  0.64377  1.0000
  H   H3488     1.0  0.90173  0.13450  0.67421  1.0000
  C   C2022     1.0  0.88466  0.02391  0.47376  1.0000
  C   C2023     1.0  0.71391  0.41065  0.67802  1.0000
  C   C2024     1.0  0.70349  0.39600  0.67498  1.0000
  C   C2025     1.0  0.69457  0.39906  0.66103  1.0000
  C   C2026     1.0  0.69589  0.41677  0.65001  1.0000
  C   C2027     1.0  0.70623  0.43146  0.65311  1.0000
  C   C2028     1.0  0.71521  0.42838  0.66702  1.0000
  H   H3489     1.0  0.70233  0.38231  0.68332  1.0000
  H   H3490     1.0  0.68659  0.38762  0.65875  1.0000
  H   H3491     1.0  0.70739  0.44514  0.64476  1.0000
  H   H3492     1.0  0.72328  0.43978  0.66922  1.0000
  C   C2029     1.0  0.74687  0.01697  0.65506  1.0000
  C   C2030     1.0  0.72936  0.02709  0.64903  1.0000
  C   C2031     1.0  0.72138  0.01902  0.63776  1.0000
  H   H3493     1.0  0.91466  0.43976  0.52238  1.0000
  H   H3494     1.0  0.84719  0.99165  0.50449  1.0000
  C   C2032     1.0  0.75607  0.99858  0.64965  1.0000
  H   H3495     1.0  0.72205  0.04123  0.65295  1.0000
  H   H3496     1.0  0.72036  0.45804  0.53639  1.0000
  C   C2033     1.0  0.90823  0.44670  0.51141  1.0000
  S   S593      1.0  0.74045  0.09551  0.71055  1.0000
  H   H3497     1.0  0.97134  0.27621  0.56485  1.0000
  H   H3498     1.0  0.97175  0.20385  0.67327  1.0000
  H   H3499     1.0  0.95416  0.17143  0.66667  1.0000
  H   H3500     1.0  0.87852  0.46870  0.49424  1.0000
  C   C2034     1.0  0.98546  0.22244  0.65289  1.0000
  H   H3501     1.0  0.69040  0.23249  0.70002  1.0000
  C   C2035     1.0  0.66185  0.13723  0.70652  1.0000
  C   C2036     1.0  0.67952  0.26395  0.69438  1.0000
  C   C2037     1.0  0.68200  0.12890  0.70197  1.0000
  C   C2038     1.0  0.67231  0.16888  0.70911  1.0000
  H   H3502     1.0  0.84866  0.11757  0.65983  1.0000
  H   H3503     1.0  0.84301  0.27751  0.64107  1.0000
  H   H3504     1.0  0.87173  0.99695  0.51942  1.0000
  H   H3505     1.0  0.81959  0.32009  0.69560  1.0000
  H   H3506     1.0  0.90139  0.15662  0.65979  1.0000
  H   H3507     1.0  0.82480  0.12646  0.65341  1.0000
  H   H3508     1.0  0.70441  0.16934  0.70406  1.0000
  H   H3509     1.0  0.98234  0.26721  0.52628  1.0000
  H   H3510     1.0  0.71664  0.45350  0.50459  1.0000
  H   H3511     1.0  0.71288  0.13425  0.69774  1.0000
  C   C2039     1.0  0.80126  0.12571  0.69200  1.0000
  H   H3512     1.0  0.87483  0.01277  0.47869  1.0000
  C   C2040     1.0  0.81410  0.98807  0.53898  1.0000
  C   C2041     1.0  0.85235  0.28037  0.66335  1.0000
  H   H3513     1.0  0.68336  0.27926  0.69404  1.0000
  C   C2042     1.0  0.97972  0.12898  0.53054  1.0000
  H   H3514     1.0  0.76960  0.99055  0.65414  1.0000
  H   H3515     1.0  0.80263  0.26077  0.68884  1.0000
  H   H3516     1.0  0.83204  0.38598  0.46726  1.0000
  C   C2043     1.0  0.89742  0.02925  0.48316  1.0000
  H   H3517     1.0  0.82097  0.09731  0.69114  1.0000
  C   C2044     1.0  0.97645  0.21055  0.51139  1.0000
  H   H3518     1.0  0.89739  0.02207  0.49529  1.0000
  H   H3519     1.0  0.68869  0.46985  0.52148  1.0000
  Fe  Fe297     1.0  0.84370  0.45354  0.47790  1.0000
  H   H3520     1.0  0.89159  0.44825  0.51450  1.0000
  H   H3521     1.0  0.67828  0.16361  0.67141  1.0000
  H   H3522     1.0  0.79099  0.46420  0.52275  1.0000
  C   C2045     1.0  0.76817  0.46546  0.54347  1.0000
  C   C2046     1.0  0.91588  0.46720  0.50529  1.0000
  H   H3523     1.0  0.89619  0.39617  0.49928  1.0000
  S   S594      1.0  0.97965  0.21453  0.57518  1.0000
  H   H3524     1.0  0.71799  0.27752  0.69753  1.0000
  Fe  Fe298     1.0  0.70736  0.46901  0.58349  1.0000
  C   C2047     1.0  0.93770  0.20370  0.63423  1.0000
  C   C2048     1.0  0.93641  0.22446  0.63445  1.0000
  C   C2049     1.0  0.92333  0.23367  0.64651  1.0000
  C   C2050     1.0  0.91177  0.22214  0.65857  1.0000
  C   C2051     1.0  0.91358  0.20129  0.65861  1.0000
  C   C2052     1.0  0.92635  0.19218  0.64640  1.0000
  H   H3525     1.0  0.94508  0.23348  0.62512  1.0000
  H   H3526     1.0  0.92202  0.24982  0.64642  1.0000
  H   H3527     1.0  0.90489  0.19227  0.66789  1.0000
  H   H3528     1.0  0.92752  0.17610  0.64634  1.0000
  N   N148      1.0  0.90748  0.47935  0.49099  1.0000
  H   H3529     1.0  0.79431  0.99066  0.56129  1.0000
  C   C2053     1.0  0.91983  0.39423  0.47928  1.0000
  C   C2054     1.0  0.95642  0.25349  0.52521  1.0000
  H   H3530     1.0  0.88677  0.18150  0.62119  1.0000
  N   N149      1.0  0.85989  0.15828  0.65531  1.0000
  N   N150      1.0  0.70240  0.43361  0.53998  1.0000
  C   C2055     1.0  0.68096  0.43102  0.54715  1.0000
  H   H3531     1.0  0.83124  0.03872  0.50446  1.0000
  C   C2056     1.0  0.71627  0.41865  0.54973  1.0000
  C   C2057     1.0  0.70580  0.42963  0.52304  1.0000
  C   C2058     1.0  0.74803  0.99045  0.63845  1.0000
  C   C2059     1.0  0.98259  0.30748  0.53023  1.0000
  C   C2060     1.0  0.73907  0.41919  0.54518  1.0000
  H   H3532     1.0  0.66408  0.26321  0.70081  1.0000
  H   H3533     1.0  0.78599  0.15618  0.69323  1.0000
  H   H3534     1.0  0.72987  0.42893  0.50291  1.0000
  H   H3535     1.0  0.91335  0.43578  0.50284  1.0000
  H   H3536     1.0  0.71239  0.42065  0.56244  1.0000
  H   H3537     1.0  0.71437  0.40284  0.54918  1.0000
  H   H3538     1.0  0.70877  0.41304  0.52257  1.0000
  H   H3539     1.0  0.69180  0.43546  0.51760  1.0000
  H   H3540     1.0  0.65866  0.41056  0.55188  1.0000
  H   H3541     1.0  0.72208  0.45409  0.70901  1.0000
  H   H3542     1.0  0.87778  0.29852  0.69054  1.0000
  H   H3543     1.0  0.93260  0.46358  0.50277  1.0000
  H   H3544     1.0  0.73538  0.44216  0.51723  1.0000
  H   H3545     1.0  0.74323  0.43418  0.54542  1.0000
  Fe  Fe299     1.0  0.72692  0.38163  0.71580  1.0000
  C   C2061     1.0  0.65700  0.15714  0.71016  1.0000
  C   C2062     1.0  0.74889  0.47431  0.54990  1.0000
  S   S595      1.0  0.85518  0.14716  0.70668  1.0000
  H   H3546     1.0  0.96584  0.20046  0.65493  1.0000
  H   H3547     1.0  0.95479  0.30220  0.54532  1.0000
  C   C2063     1.0  0.84344  0.31070  0.67638  1.0000
  C   C2064     1.0  0.81255  0.01596  0.51724  1.0000
  C   C2065     1.0  0.83363  0.13919  0.70204  1.0000
  S   S596      1.0  0.65503  0.46886  0.61004  1.0000
  H   H3548     1.0  0.88012  0.12965  0.65657  1.0000
  S   S597      1.0  0.70309  0.47177  0.60945  1.0000
  H   H3549     1.0  0.84474  0.31475  0.70105  1.0000
  H   H3550     1.0  0.84745  0.19969  0.64294  1.0000
  H   H3551     1.0  0.81681  0.28696  0.69635  1.0000
  H   H3552     1.0  0.86541  0.13446  0.67487  1.0000
  H   H3553     1.0  0.80913  0.03811  0.49635  1.0000
  C   C2066     1.0  0.79959  0.14568  0.69515  1.0000
  H   H3554     1.0  0.71178  0.20659  0.71016  1.0000
  C   C2067     1.0  0.67390  0.01177  0.59379  1.0000
  H   H3555     1.0  0.84853  0.28028  0.70319  1.0000
  C   C2068     1.0  0.84186  0.39615  0.46973  1.0000
  H   H3556     1.0  0.83219  0.40661  0.47747  1.0000
  H   H3557     1.0  0.84693  0.30284  0.64244  1.0000
  H   H3558     1.0  0.84943  0.17350  0.67583  1.0000
  C   C2069     1.0  0.72290  0.43926  0.51167  1.0000
  H   H3559     1.0  0.88691  0.15740  0.67927  1.0000
  H   H3560     1.0  0.83193  0.15028  0.66909  1.0000
  C   C2070     1.0  0.69515  0.24693  0.70141  1.0000
  C   C2071     1.0  0.88695  0.17282  0.63327  1.0000
  H   H3561     1.0  0.70986  0.24755  0.69357  1.0000
  C   C2072     1.0  0.67137  0.16037  0.66155  1.0000
  C   C2073     1.0  0.82167  0.02833  0.50193  1.0000
  H   H3562     1.0  0.83367  0.31846  0.66738  1.0000
  C   C2074     1.0  0.81841  0.26240  0.68343  1.0000
  C   C2075     1.0  0.87388  0.14190  0.66392  1.0000
  H   H3563     1.0  0.82837  0.25096  0.69042  1.0000
  H   H3564     1.0  0.88765  0.18424  0.64075  1.0000
  H   H3565     1.0  0.87204  0.14782  0.63290  1.0000
  C   C2076     1.0  0.82203  0.28407  0.68396  1.0000
  H   H3566     1.0  0.67905  0.26206  0.68198  1.0000
  H   H3567     1.0  0.92089  0.99382  0.47493  1.0000
  H   H3568     1.0  0.82947  0.16152  0.64942  1.0000
  C   C2077     1.0  0.70503  0.45484  0.54141  1.0000
  H   H3569     1.0  0.87011  0.18291  0.66367  1.0000
  H   H3570     1.0  0.82618  0.19194  0.65707  1.0000
  H   H3571     1.0  0.68300  0.01293  0.58183  1.0000
  C   C2078     1.0  0.84099  0.28909  0.64910  1.0000
  C   C2079     1.0  0.86194  0.01151  0.52122  1.0000
  H   H3572     1.0  0.79993  0.00950  0.51422  1.0000
  H   H3573     1.0  0.90097  0.16159  0.63310  1.0000
  S   S598      1.0  0.66708  0.19432  0.71264  1.0000
  H   H3574     1.0  0.98153  0.28070  0.50049  1.0000
  H   H3575     1.0  0.74714  0.40848  0.55406  1.0000
  H   H3576     1.0  0.82992  0.01886  0.49298  1.0000
  C   C2080     1.0  0.85606  0.27740  0.69122  1.0000
  H   H3577     1.0  0.88697  0.27872  0.67823  1.0000
  C   C2081     1.0  0.89194  0.14830  0.66943  1.0000
  H   H3578     1.0  0.85767  0.26073  0.69159  1.0000
  H   H3579     1.0  0.86798  0.28386  0.65952  1.0000
  H   H3580     1.0  0.85451  0.26351  0.66474  1.0000
  S   S599      1.0  0.71979  0.99145  0.61785  1.0000
  H   H3581     1.0  0.84647  0.99842  0.54302  1.0000
  C   C2082     1.0  0.84190  0.19511  0.65560  1.0000
  H   H3582     1.0  0.82032  0.25905  0.67114  1.0000
  S   S600      1.0  0.73945  0.46602  0.56995  1.0000
  H   H3583     1.0  0.69958  0.44771  0.69644  1.0000
  C   C2083     1.0  0.85602  0.17709  0.66318  1.0000
  H   H3584     1.0  0.95354  0.25482  0.51290  1.0000
  H   H3585     1.0  0.68221  0.39898  0.55788  1.0000
  C   C2084     1.0  0.69731  0.14047  0.70133  1.0000
  C   C2085     1.0  0.69022  0.47197  0.53357  1.0000
  H   H3586     1.0  0.94824  0.26778  0.52933  1.0000
  Fe  Fe300     1.0  0.95835  0.11422  0.46645  1.0000
  C   C2086     1.0  0.90125  0.40264  0.48727  1.0000
  C   C2087     1.0  0.81918  0.11249  0.69403  1.0000
  H   H3587     1.0  0.85875  0.31452  0.67142  1.0000
  H   H3588     1.0  0.84709  0.12910  0.63947  1.0000
  H   H3589     1.0  0.69349  0.98803  0.53517  1.0000
  C   C2088     1.0  0.83517  0.11916  0.69912  1.0000
  C   C2089     1.0  0.69247  0.16038  0.70486  1.0000
  C   C2090     1.0  0.83982  0.15088  0.65675  1.0000
  C   C2091     1.0  0.66403  0.99234  0.59665  1.0000
  H   H3590     1.0  0.66962  0.19790  0.66600  1.0000
  H   H3591     1.0  0.68447  0.01153  0.60227  1.0000
  H   H3592     1.0  0.65748  0.21353  0.68026  1.0000
  H   H3593     1.0  0.98108  0.21102  0.49845  1.0000
  C   C2092     1.0  0.97104  0.29804  0.54355  1.0000
  H   H3594     1.0  0.84140  0.20836  0.66171  1.0000
  C   C2093     1.0  0.77618  0.47123  0.52754  1.0000
  H   H3595     1.0  0.85619  0.17099  0.63094  1.0000
  H   H3596     1.0  0.96725  0.12162  0.55501  1.0000
  H   H3597     1.0  0.81424  0.16786  0.70239  1.0000
  S   S601      1.0  0.81140  0.45055  0.47721  1.0000
  C   C2094     1.0  0.71919  0.27591  0.71028  1.0000
  H   H3598     1.0  0.70354  0.45680  0.55407  1.0000
  C   C2095     1.0  0.67528  0.40967  0.54842  1.0000
  C   C2096     1.0  0.91037  0.04371  0.47699  1.0000
  C   C2097     1.0  0.84052  0.12979  0.65200  1.0000
  H   H3599     1.0  0.77693  0.45390  0.55081  1.0000
  Fe  Fe301     1.0  0.66281  0.46579  0.58418  1.0000
  H   H3600     1.0  0.74486  0.41396  0.53359  1.0000
  C   C2098     1.0  0.97653  0.13120  0.54668  1.0000
  H   H3601     1.0  0.88534  0.27312  0.69913  1.0000
  H   H3602     1.0  0.67513  0.47345  0.54090  1.0000
  S   S602      1.0  0.78698  0.99171  0.48957  1.0000
  H   H3603     1.0  0.80532  0.02730  0.52516  1.0000
  H   H3604     1.0  0.90792  0.45335  0.47961  1.0000
  Fe  Fe302     1.0  0.85960  0.17871  0.71022  1.0000
  C   C2099     1.0  0.87768  0.28250  0.68943  1.0000
  C   C2100     1.0  0.84194  0.00821  0.53212  1.0000
  S   S603      1.0  0.97015  0.32580  0.51671  1.0000
  H   H3605     1.0  0.87052  0.02006  0.52695  1.0000
  S   S604      1.0  0.89157  0.18545  0.70681  1.0000
  H   H3606     1.0  0.97999  0.24498  0.53939  1.0000
  C   C2101     1.0  0.76721  0.98300  0.51967  1.0000
  H   H3607     1.0  0.66250  0.02560  0.59395  1.0000
  H   H3608     1.0  0.75818  0.99767  0.51726  1.0000
  C   C2102     1.0  0.83646  0.98478  0.51413  1.0000
  H   H3609     1.0  0.97808  0.24596  0.49523  1.0000
  H   H3610     1.0  0.67480  0.44166  0.70042  1.0000
  C   C2103     1.0  0.65506  0.20682  0.67006  1.0000
  C   C2104     1.0  0.98036  0.28324  0.55457  1.0000
  H   H3611     1.0  0.67896  0.46507  0.70518  1.0000
  H   H3612     1.0  0.94963  0.24062  0.53259  1.0000
  H   H3613     1.0  0.85358  0.38743  0.47673  1.0000
  H   H3614     1.0  0.91292  0.47614  0.51531  1.0000
  H   H3615     1.0  0.84910  0.10890  0.70032  1.0000
  C   C2105     1.0  0.68556  0.44895  0.70506  1.0000
  C   C2106     1.0  0.66678  0.98561  0.62481  1.0000
  C   C2107     1.0  0.80043  0.00094  0.55085  1.0000
  H   H3616     1.0  0.96117  0.21912  0.51380  1.0000
  H   H3617     1.0  0.78717  0.00985  0.54569  1.0000
  C   C2108     1.0  0.98525  0.14565  0.55219  1.0000
  H   H3618     1.0  0.97220  0.23460  0.65354  1.0000
  C   C2109     1.0  0.97889  0.25169  0.52689  1.0000
  H   H3619     1.0  0.71952  0.29132  0.71294  1.0000
  H   H3620     1.0  0.73377  0.26667  0.71272  1.0000
  Fe  Fe303     1.0  0.81284  0.98371  0.47019  1.0000
  H   H3621     1.0  0.98268  0.14704  0.56464  1.0000
  C   C2110     1.0  0.96772  0.15986  0.66494  1.0000
  Fe  Fe304     1.0  0.98485  0.33834  0.49238  1.0000
  H   H3622     1.0  0.98075  0.16910  0.68273  1.0000
  H   H3623     1.0  0.97065  0.15705  0.65247  1.0000
  H   H3624     1.0  0.80959  0.05647  0.71602  1.0000
  H   H3625     1.0  0.65430  0.99414  0.58728  1.0000
  H   H3626     1.0  0.97835  0.18143  0.46616  1.0000
  S   S605      1.0  0.90460  0.18856  0.74760  1.0000
  S   S606      1.0  0.85146  0.19005  0.73370  1.0000
  H   H3627     1.0  0.81270  0.34715  0.78336  1.0000
  S   S607      1.0  0.72176  0.46082  0.87942  1.0000
  S   S608      1.0  0.96093  0.23614  0.82557  1.0000
  S   S609      1.0  0.81077  0.23839  0.72451  1.0000
  Fe  Fe305     1.0  0.96825  0.23000  0.80041  1.0000
  S   S610      1.0  0.94719  0.24195  0.78206  1.0000
  H   H3628     1.0  0.82640  0.46763  0.89574  1.0000
  C   C2111     1.0  0.69864  0.11180  0.74552  1.0000
  H   H3629     1.0  0.96227  0.24207  0.74088  1.0000
  H   H3630     1.0  0.77887  0.07783  0.72744  1.0000
  C   C2112     1.0  0.79200  0.47141  0.88193  1.0000
  Fe  Fe306     1.0  0.94350  0.06934  0.87581  1.0000
  S   S611      1.0  0.90970  0.07531  0.88120  1.0000
  S   S612      1.0  0.96338  0.08954  0.85837  1.0000
  Fe  Fe307     1.0  0.94547  0.02666  0.89538  1.0000
  S   S613      1.0  0.91179  0.02976  0.90214  1.0000
  C   C2113     1.0  0.68537  0.46325  0.92176  1.0000
  Fe  Fe308     1.0  0.91030  0.04331  0.87674  1.0000
  S   S614      1.0  0.89356  0.03508  0.85855  1.0000
  Fe  Fe309     1.0  0.91434  0.06105  0.90615  1.0000
  S   S615      1.0  0.89883  0.07444  0.92817  1.0000
  S   S616      1.0  0.94407  0.03813  0.86979  1.0000
  S   S617      1.0  0.94812  0.05719  0.90097  1.0000
  H   H3631     1.0  0.70346  0.12250  0.73489  1.0000
  C   C2114     1.0  0.97502  0.14720  0.84379  1.0000
  H   H3632     1.0  0.77695  0.09034  0.77756  1.0000
  H   H3633     1.0  0.96264  0.29621  0.86800  1.0000
  H   H3634     1.0  0.76265  0.36002  0.81379  1.0000
  H   H3635     1.0  0.90495  0.99253  0.87621  1.0000
  S   S618      1.0  0.75774  0.46288  0.79988  1.0000
  H   H3636     1.0  0.92561  0.99312  0.88591  1.0000
  H   H3637     1.0  0.75027  0.12631  0.73398  1.0000
  H   H3638     1.0  0.77009  0.11523  0.72034  1.0000
  H   H3639     1.0  0.80577  0.36105  0.81133  1.0000
  C   C2115     1.0  0.93430  0.04328  0.96033  1.0000
  H   H3640     1.0  0.66544  0.25443  0.72640  1.0000
  S   S619      1.0  0.70296  0.37916  0.73729  1.0000
  Fe  Fe310     1.0  0.75710  0.34871  0.73138  1.0000
  S   S620      1.0  0.73540  0.34439  0.75379  1.0000
  H   H3641     1.0  0.67500  0.41958  0.75287  1.0000
  Fe  Fe311     1.0  0.71219  0.34541  0.73782  1.0000
  S   S621      1.0  0.69288  0.32027  0.74687  1.0000
  Fe  Fe312     1.0  0.72809  0.37837  0.75156  1.0000
  S   S622      1.0  0.72304  0.39424  0.77381  1.0000
  Fe  Fe313     1.0  0.74825  0.06200  0.71786  1.0000
  S   S623      1.0  0.75143  0.38265  0.73018  1.0000
  C   C2116     1.0  0.74739  0.44412  0.79276  1.0000
  C   C2117     1.0  0.73177  0.43427  0.80164  1.0000
  C   C2118     1.0  0.72440  0.41933  0.79554  1.0000
  C   C2119     1.0  0.73245  0.41395  0.78048  1.0000
  C   C2120     1.0  0.74792  0.42394  0.77151  1.0000
  C   C2121     1.0  0.75532  0.43884  0.77762  1.0000
  H   H3642     1.0  0.72547  0.43805  0.81328  1.0000
  H   H3643     1.0  0.71247  0.41175  0.80265  1.0000
  H   H3644     1.0  0.75441  0.41999  0.75997  1.0000
  H   H3645     1.0  0.76741  0.44629  0.77062  1.0000
  C   C2122     1.0  0.84162  0.99759  0.86419  1.0000
  H   H3646     1.0  0.65853  0.01552  0.93191  1.0000
  N   N151      1.0  0.78118  0.35591  0.78074  1.0000
  H   H3647     1.0  0.77387  0.26608  0.72397  1.0000
  S   S624      1.0  0.82192  0.98266  0.86684  1.0000
  C   C2123     1.0  0.97884  0.41319  0.91735  1.0000
  H   H3648     1.0  0.80024  0.43776  0.88158  1.0000
  H   H3649     1.0  0.70371  0.26722  0.73330  1.0000
  H   H3650     1.0  0.71922  0.00427  0.92901  1.0000
  H   H3651     1.0  0.73457  0.47095  0.72726  1.0000
  C   C2124     1.0  0.75862  0.03566  0.75733  1.0000
  C   C2125     1.0  0.77437  0.02154  0.75138  1.0000
  C   C2126     1.0  0.78509  0.00710  0.76184  1.0000
  C   C2127     1.0  0.77993  0.00635  0.77834  1.0000
  C   C2128     1.0  0.76387  0.02019  0.78428  1.0000
  C   C2129     1.0  0.75338  0.03485  0.77381  1.0000
  H   H3652     1.0  0.77848  0.02191  0.73873  1.0000
  H   H3653     1.0  0.96225  0.22393  0.72822  1.0000
  H   H3654     1.0  0.74123  0.04572  0.77855  1.0000
  H   H3655     1.0  0.84137  0.99579  0.88928  1.0000
  H   H3656     1.0  0.71070  0.10911  0.75314  1.0000
  H   H3657     1.0  0.75310  0.45135  0.72016  1.0000
  C   C2130     1.0  0.76432  0.46157  0.90304  1.0000
  Fe  Fe314     1.0  0.73668  0.47998  0.85788  1.0000
  C   C2131     1.0  0.96773  0.45230  0.93155  1.0000
  C   C2132     1.0  0.79920  0.45538  0.90915  1.0000
  H   H3658     1.0  0.80132  0.45321  0.86285  1.0000
  C   C2133     1.0  0.91058  0.06660  0.94536  1.0000
  C   C2134     1.0  0.92537  0.04949  0.94646  1.0000
  C   C2135     1.0  0.79760  0.38296  0.76038  1.0000
  C   C2136     1.0  0.66914  0.01171  0.92120  1.0000
  H   H3659     1.0  0.92983  0.04092  0.93666  1.0000
  C   C2137     1.0  0.75336  0.36470  0.80408  1.0000
  C   C2138     1.0  0.70618  0.00967  0.93760  1.0000
  C   C2139     1.0  0.87338  0.02078  0.86119  1.0000
  C   C2140     1.0  0.86414  0.01320  0.87617  1.0000
  H   H3660     1.0  0.79881  0.37629  0.74934  1.0000
  H   H3661     1.0  0.67355  0.22849  0.72574  1.0000
  C   C2141     1.0  0.85083  0.00520  0.84920  1.0000
  C   C2142     1.0  0.86666  0.01667  0.84774  1.0000
  H   H3662     1.0  0.86899  0.01640  0.88662  1.0000
  C   C2143     1.0  0.76392  0.44022  0.89941  1.0000
  Fe  Fe315     1.0  0.97632  0.20421  0.83193  1.0000
  H   H3663     1.0  0.87369  0.02249  0.83609  1.0000
  C   C2144     1.0  0.68878  0.43772  0.72172  1.0000
  H   H3664     1.0  0.85515  0.06597  0.96296  1.0000
  H   H3665     1.0  0.77448  0.42836  0.90550  1.0000
  H   H3666     1.0  0.93562  0.17818  0.76726  1.0000
  H   H3667     1.0  0.75980  0.01983  0.79694  1.0000
  H   H3668     1.0  0.95200  0.19833  0.78151  1.0000
  H   H3669     1.0  0.98302  0.44089  0.90172  1.0000
  H   H3670     1.0  0.68924  0.22533  0.75054  1.0000
  C   C2145     1.0  0.76119  0.35219  0.79044  1.0000
  H   H3671     1.0  0.82622  0.30444  0.73174  1.0000
  C   C2146     1.0  0.67443  0.31219  0.73815  1.0000
  H   H3672     1.0  0.76645  0.43986  0.88647  1.0000
  H   H3673     1.0  0.71141  0.08378  0.73685  1.0000
  C   C2147     1.0  0.71520  0.23151  0.72254  1.0000
  H   H3674     1.0  0.76607  0.38026  0.76541  1.0000
  S   S625      1.0  0.78959  0.33254  0.72956  1.0000
  H   H3675     1.0  0.79508  0.31368  0.78384  1.0000
  C   C2148     1.0  0.96226  0.15835  0.85471  1.0000
  H   H3676     1.0  0.77475  0.13354  0.73161  1.0000
  C   C2149     1.0  0.96267  0.11600  0.85743  1.0000
  C   C2150     1.0  0.94993  0.12714  0.86837  1.0000
  C   C2151     1.0  0.96446  0.44959  0.87279  1.0000
  C   C2152     1.0  0.91509  0.98302  0.88421  1.0000
  S   S626      1.0  0.79455  0.98842  0.79089  1.0000
  H   H3677     1.0  0.94018  0.11955  0.87786  1.0000
  H   H3678     1.0  0.66534  0.00305  0.89865  1.0000
  C   C2153     1.0  0.80409  0.45242  0.87521  1.0000
  H   H3679     1.0  0.98245  0.25480  0.75303  1.0000
  C   C2154     1.0  0.67817  0.24216  0.72871  1.0000
  H   H3680     1.0  0.80246  0.43989  0.90598  1.0000
  C   C2155     1.0  0.79507  0.30619  0.72880  1.0000
  C   C2156     1.0  0.91644  0.20385  0.75679  1.0000
  C   C2157     1.0  0.91128  0.22490  0.75516  1.0000
  C   C2158     1.0  0.92072  0.23632  0.76309  1.0000
  C   C2159     1.0  0.93527  0.22683  0.77280  1.0000
  C   C2160     1.0  0.94053  0.20578  0.77436  1.0000
  C   C2161     1.0  0.93128  0.19441  0.76626  1.0000
  H   H3681     1.0  0.89991  0.23236  0.74790  1.0000
  H   H3682     1.0  0.91664  0.25260  0.76175  1.0000
  N   N152      1.0  0.91953  0.16151  0.81910  1.0000
  C   C2162     1.0  0.93215  0.15190  0.80545  1.0000
  C   C2163     1.0  0.89828  0.16727  0.81521  1.0000
  C   C2164     1.0  0.91997  0.14583  0.83373  1.0000
  C   C2165     1.0  0.92879  0.17954  0.82090  1.0000
  C   C2166     1.0  0.95398  0.14231  0.80781  1.0000
  C   C2167     1.0  0.89567  0.18278  0.80019  1.0000
  C   C2168     1.0  0.90288  0.14893  0.84766  1.0000
  C   C2169     1.0  0.91680  0.19393  0.83234  1.0000
  H   H3683     1.0  0.92475  0.13981  0.80253  1.0000
  H   H3684     1.0  0.93351  0.16316  0.79455  1.0000
  H   H3685     1.0  0.88768  0.17350  0.82500  1.0000
  H   H3686     1.0  0.89225  0.15352  0.81376  1.0000
  H   H3687     1.0  0.72700  0.19936  0.72561  1.0000
  H   H3688     1.0  0.93442  0.14442  0.83846  1.0000
  H   H3689     1.0  0.94363  0.17447  0.82518  1.0000
  H   H3690     1.0  0.93280  0.18888  0.80928  1.0000
  H   H3691     1.0  0.96298  0.15352  0.80987  1.0000
  H   H3692     1.0  0.95440  0.12936  0.81753  1.0000
  H   H3693     1.0  0.96168  0.13624  0.79686  1.0000
  H   H3694     1.0  0.90228  0.19663  0.80016  1.0000
  H   H3695     1.0  0.90206  0.17601  0.78929  1.0000
  H   H3696     1.0  0.87931  0.18761  0.79958  1.0000
  N   N153      1.0  0.70164  0.44660  0.73060  1.0000
  H   H3697     1.0  0.90104  0.16400  0.85138  1.0000
  H   H3698     1.0  0.90654  0.13760  0.85804  1.0000
  H   H3699     1.0  0.92043  0.18883  0.84452  1.0000
  H   H3700     1.0  0.90030  0.19618  0.83252  1.0000
  H   H3701     1.0  0.92110  0.20927  0.82836  1.0000
  C   C2170     1.0  0.80510  0.26436  0.72665  1.0000
  C   C2171     1.0  0.81982  0.46257  0.90808  1.0000
  H   H3702     1.0  0.93988  0.15667  0.87556  1.0000
  H   H3703     1.0  0.71071  0.41773  0.74434  1.0000
  C   C2172     1.0  0.94979  0.14820  0.86703  1.0000
  H   H3704     1.0  0.70189  0.04129  0.92792  1.0000
  H   H3705     1.0  0.75218  0.38120  0.80019  1.0000
  H   H3706     1.0  0.69745  0.99714  0.94247  1.0000
  H   H3707     1.0  0.96626  0.22816  0.85857  1.0000
  H   H3708     1.0  0.74921  0.35483  0.78268  1.0000
  H   H3709     1.0  0.67332  0.43730  0.72837  1.0000
  H   H3710     1.0  0.83488  0.26753  0.73020  1.0000
  C   C2173     1.0  0.70293  0.43316  0.74627  1.0000
  H   H3711     1.0  0.96799  0.21520  0.74773  1.0000
  H   H3712     1.0  0.67719  0.99632  0.92478  1.0000
  H   H3713     1.0  0.93382  0.21601  0.87220  1.0000
  H   H3714     1.0  0.65814  0.11571  0.73940  1.0000
  H   H3715     1.0  0.81187  0.37828  0.76546  1.0000
  H   H3716     1.0  0.65955  0.09640  0.76574  1.0000
  H   H3717     1.0  0.72889  0.42972  0.71963  1.0000
  H   H3718     1.0  0.69625  0.47840  0.72115  1.0000
  C   C2174     1.0  0.69848  0.02574  0.88631  1.0000
  H   H3719     1.0  0.68448  0.11924  0.75185  1.0000
  C   C2175     1.0  0.70107  0.26746  0.72095  1.0000
  H   H3720     1.0  0.77039  0.31563  0.77772  1.0000
  H   H3721     1.0  0.81362  0.37598  0.79330  1.0000
  H   H3722     1.0  0.95117  0.45282  0.91146  1.0000
  H   H3723     1.0  0.68199  0.25223  0.75091  1.0000
  S   S627      1.0  0.96377  0.99837  0.90671  1.0000
  H   H3724     1.0  0.71871  0.23261  0.73443  1.0000
  H   H3725     1.0  0.95295  0.44067  0.87219  1.0000
  H   H3726     1.0  0.80094  0.34343  0.76110  1.0000
  C   C2176     1.0  0.84844  0.00158  0.87764  1.0000
  C   C2177     1.0  0.80799  0.06061  0.72808  1.0000
  H   H3727     1.0  0.66700  0.04730  0.89917  1.0000
  S   S628      1.0  0.66065  0.98850  0.96374  1.0000
  H   H3728     1.0  0.79850  0.09129  0.71785  1.0000
  N   N154      1.0  0.68400  0.07816  0.75241  1.0000
  H   H3729     1.0  0.70470  0.00269  0.90601  1.0000
  H   H3730     1.0  0.67549  0.46935  0.73417  1.0000
  H   H3731     1.0  0.96252  0.41727  0.92146  1.0000
  H   H3732     1.0  0.69032  0.06026  0.79199  1.0000
  H   H3733     1.0  0.68750  0.27894  0.71947  1.0000
  H   H3734     1.0  0.94299  0.47573  0.87879  1.0000
  C   C2178     1.0  0.67853  0.23885  0.74673  1.0000
  N   N155      1.0  0.97120  0.24316  0.87751  1.0000
  C   C2179     1.0  0.77907  0.37733  0.77220  1.0000
  C   C2180     1.0  0.78033  0.29522  0.72676  1.0000
  H   H3735     1.0  0.76180  0.33619  0.79617  1.0000
  H   H3736     1.0  0.81860  0.47501  0.91518  1.0000
  H   H3737     1.0  0.73781  0.36176  0.80914  1.0000
  H   H3738     1.0  0.95805  0.47704  0.91290  1.0000
  C   C2181     1.0  0.69742  0.47719  0.74614  1.0000
  C   C2182     1.0  0.68492  0.05893  0.78086  1.0000
  C   C2183     1.0  0.70097  0.01944  0.90393  1.0000
  H   H3739     1.0  0.82332  0.06073  0.73063  1.0000
  C   C2184     1.0  0.69602  0.09185  0.74033  1.0000
  C   C2185     1.0  0.69227  0.46814  0.73232  1.0000
  C   C2186     1.0  0.66447  0.29622  0.74654  1.0000
  C   C2187     1.0  0.68620  0.05796  0.74667  1.0000
  H   H3740     1.0  0.69067  0.04323  0.77842  1.0000
  H   H3741     1.0  0.66102  0.06050  0.73319  1.0000
  C   C2188     1.0  0.67775  0.05791  0.73130  1.0000
  H   H3742     1.0  0.96389  0.28382  0.88771  1.0000
  H   H3743     1.0  0.93245  0.23129  0.88734  1.0000
  S   S629      1.0  0.74570  0.05530  0.74483  1.0000
  N   N156      1.0  0.79261  0.09126  0.74328  1.0000
  C   C2189     1.0  0.77187  0.10360  0.74576  1.0000
  C   C2190     1.0  0.79465  0.07549  0.75770  1.0000
  C   C2191     1.0  0.79396  0.08108  0.72879  1.0000
  C   C2192     1.0  0.80794  0.10557  0.74082  1.0000
  C   C2193     1.0  0.76669  0.12052  0.73204  1.0000
  C   C2194     1.0  0.79263  0.08342  0.77364  1.0000
  H   H3744     1.0  0.79255  0.45335  0.92189  1.0000
  C   C2195     1.0  0.83025  0.09597  0.73976  1.0000
  H   H3745     1.0  0.76000  0.09356  0.74807  1.0000
  H   H3746     1.0  0.76983  0.11141  0.75632  1.0000
  H   H3747     1.0  0.80944  0.06550  0.75651  1.0000
  H   H3748     1.0  0.78312  0.06524  0.75901  1.0000
  S   S630      1.0  0.87264  0.23029  0.71735  1.0000
  H   H3749     1.0  0.93141  0.24272  0.86686  1.0000
  H   H3750     1.0  0.80674  0.11634  0.72968  1.0000
  H   H3751     1.0  0.80485  0.11519  0.75041  1.0000
  C   C2196     1.0  0.65547  0.31330  0.71652  1.0000
  H   H3752     1.0  0.70243  0.05105  0.74492  1.0000
  H   H3753     1.0  0.77931  0.47729  0.87499  1.0000
  H   H3754     1.0  0.79629  0.07037  0.78288  1.0000
  H   H3755     1.0  0.80331  0.09411  0.77342  1.0000
  C   C2197     1.0  0.95878  0.46943  0.87652  1.0000
  H   H3756     1.0  0.98526  0.11765  0.83672  1.0000
  C   C2198     1.0  0.68259  0.43065  0.75687  1.0000
  H   H3757     1.0  0.83355  0.08533  0.75052  1.0000
  H   H3758     1.0  0.83963  0.10820  0.73855  1.0000
  C   C2199     1.0  0.81976  0.27523  0.72904  1.0000
  H   H3759     1.0  0.79751  0.99647  0.75713  1.0000
  H   H3760     1.0  0.77536  0.38867  0.78043  1.0000
  C   C2200     1.0  0.67343  0.04747  0.91008  1.0000
  N   N157      1.0  0.68377  0.02676  0.91619  1.0000
  H   H3761     1.0  0.78752  0.37934  0.80240  1.0000
  H   H3762     1.0  0.80131  0.04839  0.73639  1.0000
  H   H3763     1.0  0.68514  0.47638  0.75636  1.0000
  C   C2201     1.0  0.78585  0.34208  0.76821  1.0000
  S   S631      1.0  0.76652  0.46803  0.84433  1.0000
  H   H3764     1.0  0.67610  0.45341  0.92984  1.0000
  H   H3765     1.0  0.89363  0.09090  0.95738  1.0000
  H   H3766     1.0  0.69972  0.04201  0.88250  1.0000
  H   H3767     1.0  0.77494  0.34661  0.75957  1.0000
  H   H3768     1.0  0.71511  0.02505  0.90497  1.0000
  N   N158      1.0  0.78444  0.46915  0.89946  1.0000
  C   C2202     1.0  0.93151  0.99146  0.85145  1.0000
  H   H3769     1.0  0.79581  0.33744  0.79972  1.0000
  C   C2203     1.0  0.69682  0.45663  0.90792  1.0000
  H   H3770     1.0  0.83069  0.44988  0.91308  1.0000
  H   H3771     1.0  0.79274  0.31066  0.76417  1.0000
  Fe  Fe316     1.0  0.88268  0.19893  0.72949  1.0000
  H   H3772     1.0  0.68059  0.03258  0.94049  1.0000
  C   C2204     1.0  0.93851  0.22986  0.87482  1.0000
  C   C2205     1.0  0.70844  0.46946  0.89705  1.0000
  H   H3773     1.0  0.71096  0.01703  0.87902  1.0000
  C   C2206     1.0  0.65611  0.00954  0.90887  1.0000
  H   H3774     1.0  0.69635  0.44159  0.90550  1.0000
  H   H3775     1.0  0.75316  0.47161  0.89610  1.0000
  Fe  Fe317     1.0  0.75203  0.47890  0.82219  1.0000
  S   S632      1.0  0.77827  0.99580  0.83845  1.0000
  H   H3776     1.0  0.74853  0.43627  0.90371  1.0000
  Fe  Fe318     1.0  0.84218  0.22046  0.71960  1.0000
  H   H3777     1.0  0.67836  0.04702  0.75558  1.0000
  C   C2207     1.0  0.96176  0.22781  0.87156  1.0000
  C   C2208     1.0  0.97004  0.22730  0.73753  1.0000
  C   C2209     1.0  0.98155  0.24790  0.90414  1.0000
  H   H3778     1.0  0.67193  0.47616  0.87195  1.0000
  C   C2210     1.0  0.79794  0.35111  0.79083  1.0000
  H   H3779     1.0  0.70999  0.06968  0.76493  1.0000
  H   H3780     1.0  0.74057  0.44695  0.73986  1.0000
  H   H3781     1.0  0.91587  0.99197  0.84930  1.0000
  H   H3782     1.0  0.68543  0.42435  0.76913  1.0000
  H   H3783     1.0  0.96753  0.46334  0.93973  1.0000
  H   H3784     1.0  0.91945  0.13053  0.83082  1.0000
  S   S633      1.0  0.96118  0.18495  0.85323  1.0000
  C   C2211     1.0  0.66202  0.08712  0.75594  1.0000
  C   C2212     1.0  0.78597  0.31926  0.77410  1.0000
  H   H3785     1.0  0.96062  0.43962  0.93898  1.0000
  C   C2213     1.0  0.69266  0.02871  0.93061  1.0000
  C   C2214     1.0  0.80099  0.36806  0.79975  1.0000
  H   H3786     1.0  0.84578  0.00223  0.83876  1.0000
  C   C2215     1.0  0.66984  0.32074  0.72310  1.0000
  N   N159      1.0  0.69743  0.24702  0.71840  1.0000
  H   H3787     1.0  0.66780  0.28965  0.75825  1.0000
  H   H3788     1.0  0.88831  0.14617  0.84491  1.0000
  H   H3789     1.0  0.68422  0.02269  0.88340  1.0000
  H   H3790     1.0  0.69153  0.08889  0.77259  1.0000
  H   H3791     1.0  0.79572  0.39966  0.75693  1.0000
  H   H3792     1.0  0.94117  0.99306  0.83975  1.0000
  C   C2216     1.0  0.90489  0.07751  0.95823  1.0000
  H   H3793     1.0  0.76508  0.30280  0.72590  1.0000
  H   H3794     1.0  0.96408  0.26548  0.85745  1.0000
  H   H3795     1.0  0.71244  0.01329  0.94765  1.0000
  H   H3796     1.0  0.68464  0.05821  0.90657  1.0000
  H   H3797     1.0  0.95139  0.24731  0.89945  1.0000
  C   C2217     1.0  0.65596  0.05715  0.92160  1.0000
  H   H3798     1.0  0.71246  0.43827  0.75350  1.0000
  H   H3799     1.0  0.82058  0.45255  0.87421  1.0000
  H   H3800     1.0  0.94526  0.26642  0.87437  1.0000
  C   C2218     1.0  0.71315  0.20926  0.72217  1.0000
  H   H3801     1.0  0.96762  0.22371  0.89998  1.0000
  H   H3802     1.0  0.66132  0.06091  0.93198  1.0000
  H   H3803     1.0  0.70026  0.20416  0.73064  1.0000
  C   C2219     1.0  0.73830  0.45430  0.72776  1.0000
  H   H3804     1.0  0.68947  0.09594  0.72919  1.0000
  H   H3805     1.0  0.83522  0.08851  0.72907  1.0000
  C   C2220     1.0  0.69339  0.07461  0.76743  1.0000
  H   H3806     1.0  0.66330  0.23622  0.75291  1.0000
  H   H3807     1.0  0.96735  0.21212  0.87688  1.0000
  C   C2221     1.0  0.81478  0.29610  0.73000  1.0000
  H   H3808     1.0  0.71201  0.47059  0.75022  1.0000
  C   C2222     1.0  0.96703  0.24016  0.89536  1.0000
  H   H3809     1.0  0.67227  0.44514  0.75740  1.0000
  H   H3810     1.0  0.93810  0.46734  0.92637  1.0000
  H   H3811     1.0  0.66819  0.06133  0.78305  1.0000
  C   C2223     1.0  0.78535  0.27441  0.72568  1.0000
  H   H3812     1.0  0.94564  0.02994  0.96106  1.0000
  C   C2224     1.0  0.95324  0.46287  0.91970  1.0000
  C   C2225     1.0  0.96186  0.26395  0.87062  1.0000
  C   C2226     1.0  0.98494  0.44114  0.87005  1.0000
  H   H3813     1.0  0.68243  0.04269  0.72756  1.0000
  H   H3814     1.0  0.75790  0.46190  0.91574  1.0000
  H   H3815     1.0  0.97774  0.99653  0.87319  1.0000
  H   H3816     1.0  0.69513  0.42169  0.72046  1.0000
  H   H3817     1.0  0.89280  0.99265  0.90363  1.0000
  H   H3818     1.0  0.93210  0.00493  0.85694  1.0000
  C   C2227     1.0  0.96924  0.28215  0.87512  1.0000
  H   H3819     1.0  0.97278  0.25377  0.91488  1.0000
  C   C2228     1.0  0.72250  0.44568  0.72114  1.0000
  H   H3820     1.0  0.65455  0.09411  0.73131  1.0000
  C   C2229     1.0  0.97529  0.12614  0.84521  1.0000
  S   S634      1.0  0.98115  0.19755  0.80697  1.0000
  H   H3821     1.0  0.98011  0.40508  0.90701  1.0000
  H   H3822     1.0  0.68367  0.06881  0.72134  1.0000
  H   H3823     1.0  0.67732  0.33308  0.71653  1.0000
  C   C2230     1.0  0.97360  0.48109  0.87716  1.0000
  H   H3824     1.0  0.98478  0.15477  0.83430  1.0000
  C   C2231     1.0  0.98530  0.98343  0.88000  1.0000
  H   H3825     1.0  0.65256  0.07490  0.76035  1.0000
  S   S635      1.0  0.88686  0.73376  0.19685  1.0000
  C   C2232     1.0  0.93210  0.63380  0.01857  1.0000
  S   S636      1.0  0.95820  0.68693  0.15368  1.0000
  S   S637      1.0  0.96803  0.71004  0.10635  1.0000
  H   H3826     1.0  0.81869  0.49137  0.14868  1.0000
  H   H3827     1.0  0.86502  0.70940  0.17057  1.0000
  H   H3828     1.0  0.74373  0.55078  0.09237  1.0000
  S   S638      1.0  0.77698  0.53025  0.18183  1.0000
  H   H3829     1.0  0.69259  0.48530  0.01099  1.0000
  H   H3830     1.0  0.82171  0.55734  0.02273  1.0000
  C   C2233     1.0  0.86339  0.51553  0.10152  1.0000
  S   S639      1.0  0.77203  0.49429  0.07809  1.0000
  C   C2234     1.0  0.69033  0.54572  0.07925  1.0000
  H   H3831     1.0  0.80884  0.82723  0.19086  1.0000
  S   S640      1.0  0.75070  0.51330  0.11824  1.0000
  C   C2235     1.0  0.68744  0.80116  0.20745  1.0000
  H   H3832     1.0  0.72801  0.54891  0.03842  1.0000
  C   C2236     1.0  0.89498  0.64667  0.20486  1.0000
  C   C2237     1.0  0.69061  0.97945  0.00653  1.0000
  S   S641      1.0  0.72736  0.94392  0.10957  1.0000
  H   H3833     1.0  0.92496  0.51605  0.97778  1.0000
  H   H3834     1.0  0.95455  0.59955  0.01908  1.0000
  Fe  Fe319     1.0  0.72859  0.88703  0.20046  1.0000
  N   N160      1.0  0.70850  0.52966  0.07739  1.0000
  S   S642      1.0  0.73952  0.91252  0.18165  1.0000
  H   H3835     1.0  0.73405  0.88497  0.06880  1.0000
  H   H3836     1.0  0.71729  0.95830  0.06132  1.0000
  H   H3837     1.0  0.70189  0.80295  0.21024  1.0000
  S   S643      1.0  0.75313  0.58806  0.18838  1.0000
  S   S644      1.0  0.73145  0.85398  0.19835  1.0000
  Fe  Fe320     1.0  0.94332  0.57291  0.05595  1.0000
  S   S645      1.0  0.93361  0.54355  0.06899  1.0000
  S   S646      1.0  0.94421  0.59951  0.06953  1.0000
  Fe  Fe321     1.0  0.94179  0.55945  0.02364  1.0000
  S   S647      1.0  0.93245  0.52931  0.03441  1.0000
  S   S648      1.0  0.94331  0.57339  0.99769  1.0000
  Fe  Fe322     1.0  0.91120  0.54647  0.05208  1.0000
  S   S649      1.0  0.87722  0.54566  0.05818  1.0000
  Fe  Fe323     1.0  0.95569  0.52825  0.05043  1.0000
  H   H3838     1.0  0.70262  0.55667  0.04683  1.0000
  S   S650      1.0  0.91915  0.57681  0.04029  1.0000
  S   S651      1.0  0.96679  0.55735  0.03838  1.0000
  C   C2238     1.0  0.93643  0.56110  0.98329  1.0000
  C   C2239     1.0  0.93340  0.54085  0.98657  1.0000
  H   H3839     1.0  0.93576  0.53221  0.99796  1.0000
  H   H3840     1.0  0.81564  0.80311  0.21570  1.0000
  H   H3841     1.0  0.68443  0.54628  0.09198  1.0000
  C   C2240     1.0  0.75601  0.93518  0.04210  1.0000
  H   H3842     1.0  0.82323  0.85913  0.16800  1.0000
  C   C2241     1.0  0.72327  0.53195  0.08789  1.0000
  C   C2242     1.0  0.73629  0.92037  0.16149  1.0000
  C   C2243     1.0  0.72293  0.91264  0.15430  1.0000
  C   C2244     1.0  0.72052  0.91989  0.13837  1.0000
  C   C2245     1.0  0.73133  0.93497  0.12947  1.0000
  C   C2246     1.0  0.74497  0.94241  0.13658  1.0000
  C   C2247     1.0  0.74745  0.93511  0.15247  1.0000
  H   H3843     1.0  0.71429  0.90126  0.16106  1.0000
  H   H3844     1.0  0.71002  0.91392  0.13297  1.0000
  H   H3845     1.0  0.75364  0.95375  0.12982  1.0000
  H   H3846     1.0  0.75791  0.94110  0.15789  1.0000
  H   H3847     1.0  0.97919  0.66091  0.18083  1.0000
  C   C2248     1.0  0.83266  0.51045  0.06772  1.0000
  C   C2249     1.0  0.84338  0.52706  0.06422  1.0000
  C   C2250     1.0  0.86462  0.52417  0.06156  1.0000
  C   C2251     1.0  0.87507  0.50445  0.06205  1.0000
  H   H3848     1.0  0.83885  0.57458  0.02182  1.0000
  H   H3849     1.0  0.81633  0.51288  0.06990  1.0000
  H   H3850     1.0  0.83517  0.54228  0.06379  1.0000
  H   H3851     1.0  0.89141  0.50198  0.06004  1.0000
  Fe  Fe324     1.0  0.97618  0.70036  0.13097  1.0000
  H   H3852     1.0  0.68626  0.96592  0.11962  1.0000
  H   H3853     1.0  0.77375  0.48735  0.14200  1.0000
  C   C2252     1.0  0.65395  0.65217  0.21590  1.0000
  H   H3854     1.0  0.70313  0.50416  0.10842  1.0000
  H   H3855     1.0  0.70774  0.90881  0.02113  1.0000
  H   H3856     1.0  0.86207  0.53033  0.09371  1.0000
  C   C2253     1.0  0.96253  0.60989  0.02363  1.0000
  C   C2254     1.0  0.67257  0.54334  0.07105  1.0000
  C   C2255     1.0  0.67180  0.81758  0.20723  1.0000
  C   C2256     1.0  0.76803  0.52525  0.16488  1.0000
  C   C2257     1.0  0.77407  0.50611  0.15986  1.0000
  C   C2258     1.0  0.76885  0.50209  0.14571  1.0000
  C   C2259     1.0  0.75732  0.51716  0.13645  1.0000
  C   C2260     1.0  0.75089  0.53613  0.14165  1.0000
  C   C2261     1.0  0.75619  0.54017  0.15575  1.0000
  H   H3857     1.0  0.78303  0.49437  0.16690  1.0000
  S   S652      1.0  0.69467  0.59675  0.19829  1.0000
  H   H3858     1.0  0.74189  0.54789  0.13466  1.0000
  H   H3859     1.0  0.75141  0.55495  0.15940  1.0000
  C   C2262     1.0  0.78734  0.84075  0.17378  1.0000
  C   C2263     1.0  0.68118  0.68108  0.18066  1.0000
  C   C2264     1.0  0.68281  0.69530  0.21225  1.0000
  Fe  Fe325     1.0  0.73576  0.97313  0.09434  1.0000
  H   H3860     1.0  0.76559  0.92053  0.04044  1.0000
  H   H3861     1.0  0.71719  0.89151  0.04586  1.0000
  H   H3862     1.0  0.66194  0.62397  0.18583  1.0000
  C   C2265     1.0  0.86089  0.52894  0.99643  1.0000
  S   S653      1.0  0.69858  0.88731  0.21603  1.0000
  H   H3863     1.0  0.75021  0.87381  0.05309  1.0000
  C   C2266     1.0  0.82425  0.50567  0.14911  1.0000
  H   H3864     1.0  0.82163  0.53664  0.13782  1.0000
  H   H3865     1.0  0.88505  0.98097  0.07690  1.0000
  S   S654      1.0  0.97561  0.49940  0.05955  1.0000
  C   C2267     1.0  0.72027  0.68797  0.20621  1.0000
  H   H3866     1.0  0.90842  0.97230  0.06546  1.0000
  S   S655      1.0  0.65316  0.96658  0.00978  1.0000
  C   C2268     1.0  0.93375  0.57193  0.96826  1.0000
  H   H3867     1.0  0.97962  0.63872  0.99925  1.0000
  C   C2269     1.0  0.79816  0.54099  0.10720  1.0000
  C   C2270     1.0  0.95958  0.61699  0.07300  1.0000
  C   C2271     1.0  0.95124  0.63124  0.08336  1.0000
  C   C2272     1.0  0.96253  0.64560  0.08629  1.0000
  S   S656      1.0  0.66219  0.75542  0.19725  1.0000
  H   H3868     1.0  0.93587  0.63116  0.08922  1.0000
  H   H3869     1.0  0.95577  0.65636  0.09428  1.0000
  H   H3870     1.0  0.98143  0.69622  0.17736  1.0000
  C   C2273     1.0  0.66434  0.62916  0.19641  1.0000
  C   C2274     1.0  0.69252  0.50430  0.09996  1.0000
  C   C2275     1.0  0.91967  0.63161  0.03524  1.0000
  C   C2276     1.0  0.93998  0.70133  0.16595  1.0000
  C   C2277     1.0  0.93393  0.69254  0.18151  1.0000
  C   C2278     1.0  0.91814  0.70266  0.19129  1.0000
  C   C2279     1.0  0.90811  0.72156  0.18549  1.0000
  C   C2280     1.0  0.91456  0.73062  0.17007  1.0000
  C   C2281     1.0  0.93053  0.72058  0.16032  1.0000
  H   H3871     1.0  0.94125  0.67768  0.18594  1.0000
  C   C2282     1.0  0.68021  0.97740  0.12765  1.0000
  H   H3872     1.0  0.90692  0.74529  0.16553  1.0000
  H   H3873     1.0  0.93508  0.72745  0.14832  1.0000
  H   H3874     1.0  0.81849  0.82411  0.17054  1.0000
  C   C2283     1.0  0.96349  0.96263  0.04741  1.0000
  H   H3875     1.0  0.70954  0.93547  0.01486  1.0000
  C   C2284     1.0  0.97953  0.61742  0.06559  1.0000
  C   C2285     1.0  0.95979  0.62547  0.98879  1.0000
  H   H3876     1.0  0.66646  0.68315  0.18838  1.0000
  H   H3877     1.0  0.85891  0.50396  0.09576  1.0000
  S   S657      1.0  0.75566  0.97339  0.07080  1.0000
  H   H3878     1.0  0.94362  0.62690  0.98753  1.0000
  N   N161      1.0  0.86976  0.53769  0.00810  1.0000
  C   C2286     1.0  0.88611  0.52256  0.01512  1.0000
  C   C2287     1.0  0.87881  0.55613  0.99974  1.0000
  C   C2288     1.0  0.92731  0.53171  0.97508  1.0000
  C   C2289     1.0  0.85318  0.54304  0.02130  1.0000
  H   H3879     1.0  0.67849  0.51488  0.10276  1.0000
  C   C2290     1.0  0.88732  0.56777  0.01030  1.0000
  H   H3880     1.0  0.69427  0.56116  0.07517  1.0000
  C   C2291     1.0  0.83675  0.56109  0.01694  1.0000
  H   H3881     1.0  0.90016  0.52082  0.00645  1.0000
  H   H3882     1.0  0.89059  0.52805  0.02524  1.0000
  H   H3883     1.0  0.86787  0.56702  0.99316  1.0000
  H   H3884     1.0  0.89157  0.55190  0.99050  1.0000
  H   H3885     1.0  0.75554  0.89638  0.05850  1.0000
  C   C2292     1.0  0.71071  0.48310  0.02975  1.0000
  C   C2293     1.0  0.98232  0.95226  0.05097  1.0000
  H   H3886     1.0  0.85970  0.54676  0.03114  1.0000
  H   H3887     1.0  0.95421  0.95532  0.04183  1.0000
  C   C2294     1.0  0.88074  0.50120  0.02153  1.0000
  H   H3888     1.0  0.90020  0.55840  0.01564  1.0000
  H   H3889     1.0  0.89333  0.58104  0.00285  1.0000
  H   H3890     1.0  0.87571  0.57358  0.01971  1.0000
  C   C2295     1.0  0.66550  0.77964  0.20077  1.0000
  H   H3891     1.0  0.92538  0.61768  0.04278  1.0000
  H   H3892     1.0  0.85003  0.71334  0.18887  1.0000
  H   H3893     1.0  0.71308  0.67303  0.18212  1.0000
  H   H3894     1.0  0.83590  0.56525  0.00415  1.0000
  H   H3895     1.0  0.88707  0.65822  0.21230  1.0000
  N   N162      1.0  0.87598  0.66515  0.18173  1.0000
  C   C2296     1.0  0.89572  0.65467  0.18704  1.0000
  C   C2297     1.0  0.87969  0.67007  0.16393  1.0000
  C   C2298     1.0  0.86114  0.65027  0.18632  1.0000
  C   C2299     1.0  0.86866  0.68371  0.18985  1.0000
  H   H3896     1.0  0.73473  0.52272  0.05995  1.0000
  C   C2300     1.0  0.89721  0.68228  0.15715  1.0000
  C   C2301     1.0  0.83977  0.65766  0.18201  1.0000
  C   C2302     1.0  0.85585  0.70175  0.18092  1.0000
  H   H3897     1.0  0.90218  0.64168  0.18046  1.0000
  H   H3898     1.0  0.90717  0.66509  0.18431  1.0000
  H   H3899     1.0  0.86603  0.67860  0.15916  1.0000
  H   H3900     1.0  0.88309  0.65590  0.15844  1.0000
  H   H3901     1.0  0.86718  0.63614  0.18104  1.0000
  H   H3902     1.0  0.85879  0.64555  0.19932  1.0000
  H   H3903     1.0  0.73488  0.51823  0.08890  1.0000
  H   H3904     1.0  0.71559  0.53320  0.10017  1.0000
  C   C2303     1.0  0.71801  0.55083  0.04979  1.0000
  H   H3905     1.0  0.84906  0.54017  0.99112  1.0000
  C   C2304     1.0  0.87593  0.52171  0.98236  1.0000
  H   H3906     1.0  0.91205  0.67232  0.15692  1.0000
  H   H3907     1.0  0.89581  0.68913  0.14473  1.0000
  H   H3908     1.0  0.89735  0.69466  0.16395  1.0000
  H   H3909     1.0  0.83108  0.64473  0.18492  1.0000
  H   H3910     1.0  0.83971  0.66326  0.16926  1.0000
  H   H3911     1.0  0.83147  0.66923  0.18932  1.0000
  C   C2305     1.0  0.71766  0.92516  0.06398  1.0000
  H   H3912     1.0  0.84266  0.69756  0.17706  1.0000
  N   N163      1.0  0.79065  0.86264  0.17114  1.0000
  H   H3913     1.0  0.95661  0.65434  0.99705  1.0000
  C   C2306     1.0  0.77298  0.87509  0.16385  1.0000
  C   C2307     1.0  0.79032  0.86851  0.18723  1.0000
  C   C2308     1.0  0.81066  0.86459  0.16084  1.0000
  H   H3914     1.0  0.82365  0.50084  0.10151  1.0000
  C   C2309     1.0  0.77026  0.87053  0.14756  1.0000
  C   C2310     1.0  0.79418  0.89007  0.18774  1.0000
  C   C2311     1.0  0.81373  0.88588  0.15183  1.0000
  H   H3915     1.0  0.69240  0.95058  0.06539  1.0000
  H   H3916     1.0  0.96778  0.63087  0.97696  1.0000
  H   H3917     1.0  0.77355  0.89149  0.16246  1.0000
  H   H3918     1.0  0.75860  0.87315  0.17190  1.0000
  H   H3919     1.0  0.77550  0.86668  0.19467  1.0000
  H   H3920     1.0  0.71597  0.49706  0.08098  1.0000
  H   H3921     1.0  0.81306  0.85447  0.15160  1.0000
  H   H3922     1.0  0.72446  0.56470  0.08150  1.0000
  H   H3923     1.0  0.66468  0.55851  0.06666  1.0000
  H   H3924     1.0  0.92602  0.64881  0.01231  1.0000
  H   H3925     1.0  0.69650  0.76974  0.20444  1.0000
  H   H3926     1.0  0.75987  0.88327  0.14201  1.0000
  H   H3927     1.0  0.78459  0.86891  0.13933  1.0000
  H   H3928     1.0  0.76299  0.85680  0.14879  1.0000
  H   H3929     1.0  0.70751  0.91450  0.07087  1.0000
  H   H3930     1.0  0.78335  0.90195  0.18196  1.0000
  H   H3931     1.0  0.80996  0.89207  0.18276  1.0000
  H   H3932     1.0  0.84536  0.52980  0.02650  1.0000
  H   H3933     1.0  0.80369  0.89874  0.15661  1.0000
  H   H3934     1.0  0.88892  0.51071  0.98609  1.0000
  H   H3935     1.0  0.69694  0.66258  0.19845  1.0000
  H   H3936     1.0  0.71074  0.97613  0.13137  1.0000
  H   H3937     1.0  0.95040  0.66106  0.02557  1.0000
  C   C2312     1.0  0.81852  0.52198  0.13529  1.0000
  H   H3938     1.0  0.95506  0.97875  0.01165  1.0000
  C   C2313     1.0  0.69893  0.67687  0.19030  1.0000
  N   N164      1.0  0.72141  0.92239  0.04674  1.0000
  C   C2314     1.0  0.70130  0.92750  0.04068  1.0000
  C   C2315     1.0  0.72969  0.90054  0.04491  1.0000
  C   C2316     1.0  0.73524  0.93639  0.03693  1.0000
  C   C2317     1.0  0.70142  0.92443  0.02340  1.0000
  C   C2318     1.0  0.70825  0.94653  0.06771  1.0000
  H   H3939     1.0  0.92799  0.62229  0.01240  1.0000
  H   H3940     1.0  0.69005  0.91856  0.04831  1.0000
  H   H3941     1.0  0.69489  0.94360  0.04117  1.0000
  H   H3942     1.0  0.73836  0.89942  0.03289  1.0000
  H   H3943     1.0  0.73832  0.93375  0.02438  1.0000
  H   H3944     1.0  0.72783  0.95230  0.03662  1.0000
  H   H3945     1.0  0.85294  0.51607  0.00245  1.0000
  C   C2319     1.0  0.79745  0.63217  0.21497  1.0000
  C   C2320     1.0  0.73477  0.55016  0.08291  1.0000
  H   H3946     1.0  0.66167  0.53484  0.07944  1.0000
  H   H3947     1.0  0.79184  0.52763  0.10549  1.0000
  S   S658      1.0  0.73426  0.55105  0.21352  1.0000
  C   C2321     1.0  0.71865  0.53003  0.06040  1.0000
  H   H3948     1.0  0.87921  0.49295  0.01191  1.0000
  H   H3949     1.0  0.71182  0.52064  0.05397  1.0000
  N   N165      1.0  0.82850  0.51822  0.11892  1.0000
  S   S659      1.0  0.77688  0.62576  0.20762  1.0000
  C   C2322     1.0  0.85102  0.51733  0.11796  1.0000
  H   H3950     1.0  0.84060  0.50296  0.14989  1.0000
  H   H3951     1.0  0.71467  0.72941  0.16695  1.0000
  H   H3952     1.0  0.69124  0.95566  0.16067  1.0000
  H   H3953     1.0  0.67763  0.53542  0.06056  1.0000
  H   H3954     1.0  0.76392  0.94719  0.03451  1.0000
  H   H3955     1.0  0.88149  0.53464  0.97416  1.0000
  H   H3956     1.0  0.65851  0.49805  0.02657  1.0000
  H   H3957     1.0  0.68218  0.69429  0.17125  1.0000
  H   H3958     1.0  0.79210  0.89248  0.20031  1.0000
  H   H3959     1.0  0.73177  0.92135  0.06939  1.0000
  C   C2323     1.0  0.68431  0.78233  0.20417  1.0000
  H   H3960     1.0  0.72258  0.65473  0.21264  1.0000
  H   H3961     1.0  0.70782  0.94684  0.08053  1.0000
  S   S660      1.0  0.67437  0.84141  0.21201  1.0000
  Fe  Fe326     1.0  0.76315  0.55521  0.19708  1.0000
  N   N166      1.0  0.70073  0.69341  0.19940  1.0000
  H   H3962     1.0  0.73330  0.68574  0.19668  1.0000
  C   C2324     1.0  0.70248  0.50885  0.08262  1.0000
  Fe  Fe327     1.0  0.76617  0.59521  0.20877  1.0000
  H   H3963     1.0  0.97867  0.64823  0.20072  1.0000
  H   H3964     1.0  0.98150  0.65894  0.03628  1.0000
  H   H3965     1.0  0.91350  0.69565  0.20319  1.0000
  H   H3966     1.0  0.95351  0.64030  0.04103  1.0000
  H   H3967     1.0  0.78484  0.83604  0.16270  1.0000
  H   H3968     1.0  0.82942  0.88829  0.15207  1.0000
  H   H3969     1.0  0.71504  0.96519  0.15571  1.0000
  H   H3970     1.0  0.82803  0.53449  0.09514  1.0000
  Fe  Fe328     1.0  0.70252  0.85361  0.21548  1.0000
  H   H3971     1.0  0.88152  0.69003  0.19252  1.0000
  H   H3972     1.0  0.90380  0.63066  0.03424  1.0000
  H   H3973     1.0  0.72311  0.70058  0.21186  1.0000
  H   H3974     1.0  0.88781  0.63275  0.20822  1.0000
  H   H3975     1.0  0.78433  0.66359  0.21420  1.0000
  H   H3976     1.0  0.74582  0.54835  0.07206  1.0000
  C   C2325     1.0  0.68007  0.61886  0.20466  1.0000
  H   H3977     1.0  0.85974  0.67961  0.20164  1.0000
  H   H3978     1.0  0.66866  0.70132  0.20709  1.0000
  C   C2326     1.0  0.69984  0.96737  0.16250  1.0000
  H   H3979     1.0  0.69255  0.97712  0.99429  1.0000
  H   H3980     1.0  0.77343  0.83856  0.18238  1.0000
  C   C2327     1.0  0.98242  0.64617  0.07877  1.0000
  C   C2328     1.0  0.70080  0.71352  0.18884  1.0000
  C   C2329     1.0  0.96321  0.63837  0.00089  1.0000
  H   H3981     1.0  0.67318  0.96942  0.13891  1.0000
  H   H3982     1.0  0.68576  0.71913  0.18496  1.0000
  H   H3983     1.0  0.79506  0.55294  0.09707  1.0000
  H   H3984     1.0  0.68137  0.66772  0.17475  1.0000
  H   H3985     1.0  0.78989  0.54701  0.11800  1.0000
  H   H3986     1.0  0.86685  0.50152  0.03032  1.0000
  C   C2330     1.0  0.71684  0.71405  0.17393  1.0000
  H   H3987     1.0  0.72332  0.56242  0.05492  1.0000
  H   H3988     1.0  0.85769  0.50462  0.12618  1.0000
  Fe  Fe329     1.0  0.72521  0.58435  0.20590  1.0000
  C   C2331     1.0  0.95893  0.64561  0.02839  1.0000
  C   C2332     1.0  0.82120  0.53637  0.10748  1.0000
  H   H3989     1.0  0.81238  0.88679  0.13913  1.0000
  H   H3990     1.0  0.70337  0.72536  0.19541  1.0000
  H   H3991     1.0  0.82608  0.55032  0.10983  1.0000
  H   H3992     1.0  0.69215  0.50561  0.07498  1.0000
  H   H3993     1.0  0.79995  0.80968  0.18177  1.0000
  H   H3994     1.0  0.80178  0.85840  0.19375  1.0000
  C   C2333     1.0  0.74318  0.88851  0.05705  1.0000
  H   H3995     1.0  0.95879  0.60662  0.03670  1.0000
  C   C2334     1.0  0.84311  0.49070  0.06844  1.0000
  H   H3996     1.0  0.75484  0.93808  0.05443  1.0000
  C   C2335     1.0  0.82260  0.49957  0.11461  1.0000
  N   N167      1.0  0.95477  0.63167  0.01786  1.0000
  H   H3997     1.0  0.71698  0.49677  0.02468  1.0000
  H   H3998     1.0  0.97833  0.81029  0.08916  1.0000
  H   H3999     1.0  0.85444  0.53111  0.12178  1.0000
  H   H4000     1.0  0.89321  0.49221  0.02767  1.0000
  H   H4001     1.0  0.86809  0.51401  0.97540  1.0000
  H   H4002     1.0  0.65495  0.56030  0.21426  1.0000
  H   H4003     1.0  0.68559  0.92737  0.02084  1.0000
  C   C2336     1.0  0.80481  0.82486  0.17956  1.0000
  H   H4004     1.0  0.71544  0.70321  0.16610  1.0000
  H   H4005     1.0  0.96593  0.60927  0.99178  1.0000
  H   H4006     1.0  0.91930  0.64490  0.04125  1.0000
  H   H4007     1.0  0.91063  0.64256  0.20772  1.0000
  H   H4008     1.0  0.87798  0.97230  0.10401  1.0000
  H   H4009     1.0  0.68835  0.48884  0.10197  1.0000
  H   H4010     1.0  0.73238  0.71144  0.17695  1.0000
  H   H4011     1.0  0.81656  0.51098  0.16037  1.0000
  H   H4012     1.0  0.80647  0.49843  0.11934  1.0000
  S   S661      1.0  0.98304  0.76681  0.09465  1.0000
  C   C2337     1.0  0.86434  0.48783  0.06542  1.0000
  H   H4013     1.0  0.80187  0.52348  0.13625  1.0000
  C   C2338     1.0  0.67267  0.97598  0.01643  1.0000
  H   H4014     1.0  0.70188  0.96398  0.17519  1.0000
  S   S662      1.0  0.66032  0.93902  0.97096  1.0000
  C   C2339     1.0  0.98107  0.64822  0.02798  1.0000
  Fe  Fe330     1.0  0.76132  0.48662  0.10419  1.0000
  H   H4015     1.0  0.65667  0.97645  0.04010  1.0000
  H   H4016     1.0  0.91899  0.97928  0.08836  1.0000
  H   H4017     1.0  0.87966  0.51107  0.10265  1.0000
  C   C2340     1.0  0.65312  0.81496  0.20353  1.0000
  C   C2341     1.0  0.67050  0.97904  0.03234  1.0000
  C   C2342     1.0  0.98541  0.60246  0.01940  1.0000
  S   S663      1.0  0.84966  0.65017  0.23467  1.0000
  S   S664      1.0  0.96017  0.72850  0.36153  1.0000
  S   S665      1.0  0.93887  0.61516  0.46045  1.0000
  Fe  Fe331     1.0  0.95775  0.73562  0.33533  1.0000
  S   S666      1.0  0.92939  0.74164  0.32297  1.0000
  H   H4018     1.0  0.67668  0.55803  0.27998  1.0000
  Fe  Fe332     1.0  0.87877  0.70387  0.25545  1.0000
  S   S667      1.0  0.86801  0.73440  0.24230  1.0000
  S   S668      1.0  0.90204  0.69620  0.27282  1.0000
  Fe  Fe333     1.0  0.85448  0.68179  0.23792  1.0000
  C   C2343     1.0  0.98545  0.78640  0.38783  1.0000
  H   H4019     1.0  0.70659  0.50355  0.41480  1.0000
  C   C2344     1.0  0.80534  0.79543  0.22464  1.0000
  Fe  Fe334     1.0  0.83755  0.72407  0.24628  1.0000
  S   S669      1.0  0.80755  0.74235  0.25485  1.0000
  S   S670      1.0  0.88640  0.68875  0.23344  1.0000
  S   S671      1.0  0.84778  0.69439  0.26100  1.0000
  H   H4020     1.0  0.94131  0.70045  0.31466  1.0000
  S   S672      1.0  0.95651  0.90236  0.42597  1.0000
  H   H4021     1.0  0.93792  0.67984  0.42311  1.0000
  H   H4022     1.0  0.84690  0.57025  0.43463  1.0000
  H   H4023     1.0  0.98550  0.84833  0.36153  1.0000
  C   C2345     1.0  0.95798  0.88087  0.37450  1.0000
  C   C2346     1.0  0.84433  0.79074  0.26024  1.0000
  S   S673      1.0  0.96013  0.57108  0.45039  1.0000
  H   H4024     1.0  0.67152  0.64643  0.23512  1.0000
  H   H4025     1.0  0.85893  0.59896  0.44061  1.0000
  S   S674      1.0  0.73735  0.59328  0.22559  1.0000
  H   H4026     1.0  0.96815  0.79723  0.44500  1.0000
  Fe  Fe335     1.0  0.74908  0.56024  0.23198  1.0000
  S   S675      1.0  0.74515  0.55054  0.25884  1.0000
  C   C2347     1.0  0.96736  0.70771  0.41118  1.0000
  H   H4027     1.0  0.81229  0.67372  0.22476  1.0000
  H   H4028     1.0  0.67866  0.58944  0.26703  1.0000
  S   S676      1.0  0.71769  0.84571  0.23746  1.0000
  S   S677      1.0  0.70213  0.89792  0.25728  1.0000
  H   H4029     1.0  0.93004  0.68334  0.29519  1.0000
  Fe  Fe336     1.0  0.71896  0.94791  0.33034  1.0000
  S   S678      1.0  0.68569  0.95826  0.33105  1.0000
  S   S679      1.0  0.73665  0.92847  0.31190  1.0000
  Fe  Fe337     1.0  0.72067  0.96412  0.36165  1.0000
  C   C2348     1.0  0.95808  0.83798  0.37286  1.0000
  C   C2349     1.0  0.83001  0.62368  0.22450  1.0000
  Fe  Fe338     1.0  0.68338  0.94570  0.35690  1.0000
  Fe  Fe339     1.0  0.96232  0.60396  0.44116  1.0000
  S   S680      1.0  0.71654  0.93395  0.35602  1.0000
  H   H4030     1.0  0.69778  0.57862  0.23408  1.0000
  S   S681      1.0  0.77790  0.82948  0.21852  1.0000
  Fe  Fe340     1.0  0.85070  0.95615  0.45851  1.0000
  C   C2350     1.0  0.97739  0.68597  0.41673  1.0000
  C   C2351     1.0  0.77248  0.97492  0.41326  1.0000
  C   C2352     1.0  0.96784  0.63609  0.40350  1.0000
  H   H4031     1.0  0.80389  0.57526  0.28958  1.0000
  C   C2353     1.0  0.95318  0.90115  0.38117  1.0000
  C   C2354     1.0  0.81410  0.61786  0.21860  1.0000
  H   H4032     1.0  0.71727  0.49855  0.38807  1.0000
  H   H4033     1.0  0.67411  0.85966  0.33912  1.0000
  H   H4034     1.0  0.70482  0.51032  0.26224  1.0000
  S   S682      1.0  0.73348  0.96922  0.38356  1.0000
  H   H4035     1.0  0.80584  0.97640  0.37936  1.0000
  H   H4036     1.0  0.78105  0.57375  0.30227  1.0000
  C   C2355     1.0  0.66966  0.64182  0.22416  1.0000
  C   C2356     1.0  0.75609  0.97152  0.39077  1.0000
  S   S683      1.0  0.84221  0.71076  0.22372  1.0000
  Fe  Fe341     1.0  0.71567  0.87953  0.23695  1.0000
  H   H4037     1.0  0.77706  0.49438  0.39238  1.0000
  Fe  Fe342     1.0  0.84039  0.49573  0.45953  1.0000
  C   C2357     1.0  0.79092  0.97628  0.40340  1.0000
  H   H4038     1.0  0.87225  0.78903  0.28268  1.0000
  C   C2358     1.0  0.71328  0.90747  0.27113  1.0000
  C   C2359     1.0  0.73179  0.89837  0.27593  1.0000
  C   C2360     1.0  0.73885  0.90516  0.28825  1.0000
  C   C2361     1.0  0.72751  0.92107  0.29596  1.0000
  C   C2362     1.0  0.70926  0.93052  0.29085  1.0000
  C   C2363     1.0  0.70225  0.92376  0.27852  1.0000
  H   H4039     1.0  0.74047  0.88580  0.27041  1.0000
  H   H4040     1.0  0.75308  0.89785  0.29198  1.0000
  H   H4041     1.0  0.70054  0.94302  0.29642  1.0000
  H   H4042     1.0  0.68803  0.93106  0.27477  1.0000
  C   C2364     1.0  0.74499  0.52577  0.26970  1.0000
  C   C2365     1.0  0.74203  0.52340  0.28634  1.0000
  C   C2366     1.0  0.74144  0.50410  0.29547  1.0000
  H   H4043     1.0  0.96581  0.91011  0.37788  1.0000
  H   H4044     1.0  0.70439  0.57632  0.26272  1.0000
  C   C2367     1.0  0.74739  0.50857  0.26226  1.0000
  H   H4045     1.0  0.74015  0.53657  0.29225  1.0000
  S   S684      1.0  0.95392  0.61936  0.41723  1.0000
  H   H4046     1.0  0.74970  0.51010  0.24948  1.0000
  H   H4047     1.0  0.67104  0.88832  0.28730  1.0000
  H   H4048     1.0  0.69695  0.60100  0.25297  1.0000
  C   C2368     1.0  0.77450  0.97301  0.38088  1.0000
  H   H4049     1.0  0.74112  0.97157  0.41477  1.0000
  C   C2369     1.0  0.89510  0.53522  0.45069  1.0000
  H   H4050     1.0  0.70560  0.48862  0.43430  1.0000
  H   H4051     1.0  0.90153  0.53027  0.43944  1.0000
  C   C2370     1.0  0.93276  0.90852  0.43725  1.0000
  C   C2371     1.0  0.91811  0.92301  0.43039  1.0000
  C   C2372     1.0  0.89945  0.92917  0.43936  1.0000
  C   C2373     1.0  0.70930  0.48748  0.38453  1.0000
  H   H4052     1.0  0.85486  0.58479  0.41612  1.0000
  H   H4053     1.0  0.87515  0.57655  0.44645  1.0000
  H   H4054     1.0  0.92131  0.92969  0.41816  1.0000
  H   H4055     1.0  0.66899  0.91648  0.33783  1.0000
  H   H4056     1.0  0.68843  0.55207  0.22332  1.0000
  H   H4057     1.0  0.68529  0.86423  0.29236  1.0000
  C   C2374     1.0  0.79906  0.76603  0.24405  1.0000
  C   C2375     1.0  0.77914  0.77553  0.24795  1.0000
  C   C2376     1.0  0.77227  0.79487  0.24013  1.0000
  C   C2377     1.0  0.81213  0.77604  0.23232  1.0000
  H   H4058     1.0  0.76898  0.76794  0.25709  1.0000
  H   H4059     1.0  0.75692  0.80205  0.24321  1.0000
  C   C2378     1.0  0.68279  0.88428  0.30996  1.0000
  C   C2379     1.0  0.87086  0.58716  0.43587  1.0000
  H   H4060     1.0  0.94466  0.71841  0.25280  1.0000
  C   C2380     1.0  0.79705  0.65236  0.21709  1.0000
  H   H4061     1.0  0.93968  0.88872  0.45844  1.0000
  N   N168      1.0  0.66791  0.89734  0.32043  1.0000
  C   C2381     1.0  0.82943  0.64382  0.22688  1.0000
  S   S685      1.0  0.81767  0.95685  0.45710  1.0000
  C   C2382     1.0  0.68365  0.70909  0.22450  1.0000
  C   C2383     1.0  0.96818  0.66483  0.38217  1.0000
  C   C2384     1.0  0.69647  0.54201  0.25279  1.0000
  H   H4062     1.0  0.73678  0.66651  0.22289  1.0000
  H   H4063     1.0  0.84284  0.61251  0.22725  1.0000
  H   H4064     1.0  0.94887  0.89894  0.39419  1.0000
  H   H4065     1.0  0.83825  0.71498  0.29276  1.0000
  S   S686      1.0  0.86259  0.51760  0.44802  1.0000
  H   H4066     1.0  0.85518  0.72614  0.30094  1.0000
  H   H4067     1.0  0.85551  0.72934  0.27970  1.0000
  H   H4068     1.0  0.79117  0.59729  0.29839  1.0000
  H   H4069     1.0  0.94149  0.65209  0.39357  1.0000
  C   C2385     1.0  0.65789  0.91485  0.30977  1.0000
  C   C2386     1.0  0.92255  0.72885  0.30876  1.0000
  C   C2387     1.0  0.90842  0.73925  0.29892  1.0000
  C   C2388     1.0  0.90220  0.72964  0.28770  1.0000
  C   C2389     1.0  0.90971  0.70934  0.28642  1.0000
  C   C2390     1.0  0.92403  0.69902  0.29612  1.0000
  C   C2391     1.0  0.93050  0.70871  0.30716  1.0000
  H   H4070     1.0  0.90239  0.75489  0.29992  1.0000
  H   H4071     1.0  0.89168  0.73788  0.28000  1.0000
  N   N169      1.0  0.88888  0.59639  0.42669  1.0000
  H   H4072     1.0  0.97113  0.67526  0.41125  1.0000
  C   C2392     1.0  0.89943  0.60287  0.43854  1.0000
  C   C2393     1.0  0.90266  0.58033  0.41822  1.0000
  C   C2394     1.0  0.88114  0.61398  0.41502  1.0000
  S   S687      1.0  0.74546  0.88127  0.22142  1.0000
  C   C2395     1.0  0.92501  0.58302  0.41328  1.0000
  C   C2396     1.0  0.89657  0.62722  0.40535  1.0000
  H   H4073     1.0  0.92012  0.55065  0.45173  1.0000
  H   H4074     1.0  0.97743  0.70103  0.28987  1.0000
  H   H4075     1.0  0.91333  0.60919  0.43295  1.0000
  H   H4076     1.0  0.66212  0.53750  0.28261  1.0000
  H   H4077     1.0  0.90308  0.56536  0.42582  1.0000
  H   H4078     1.0  0.86837  0.62417  0.42077  1.0000
  C   C2397     1.0  0.97195  0.86178  0.39872  1.0000
  C   C2398     1.0  0.97426  0.74029  0.28939  1.0000
  C   C2399     1.0  0.97593  0.79657  0.40065  1.0000
  H   H4079     1.0  0.93291  0.58148  0.42372  1.0000
  H   H4080     1.0  0.92711  0.59746  0.40561  1.0000
  H   H4081     1.0  0.93282  0.57078  0.40640  1.0000
  H   H4082     1.0  0.90344  0.62129  0.39416  1.0000
  H   H4083     1.0  0.90869  0.62901  0.41178  1.0000
  H   H4084     1.0  0.88874  0.64287  0.40231  1.0000
  N   N170      1.0  0.78758  0.59735  0.26318  1.0000
  C   C2400     1.0  0.77247  0.60166  0.25164  1.0000
  C   C2401     1.0  0.80382  0.58070  0.25783  1.0000
  C   C2402     1.0  0.79644  0.61649  0.26263  1.0000
  C   C2403     1.0  0.77640  0.59121  0.27938  1.0000
  C   C2404     1.0  0.75669  0.62095  0.25290  1.0000
  C   C2405     1.0  0.79684  0.56024  0.25788  1.0000
  C   C2406     1.0  0.81749  0.61425  0.26774  1.0000
  C   C2407     1.0  0.78906  0.58420  0.29301  1.0000
  H   H4085     1.0  0.78032  0.60299  0.23924  1.0000
  H   H4086     1.0  0.76373  0.58889  0.25291  1.0000
  H   H4087     1.0  0.81626  0.57739  0.26507  1.0000
  H   H4088     1.0  0.81121  0.58558  0.24561  1.0000
  H   H4089     1.0  0.79812  0.62483  0.25038  1.0000
  H   H4090     1.0  0.78604  0.62711  0.26990  1.0000
  H   H4091     1.0  0.76507  0.60404  0.28316  1.0000
  H   H4092     1.0  0.76695  0.57934  0.27930  1.0000
  H   H4093     1.0  0.74649  0.62223  0.24393  1.0000
  H   H4094     1.0  0.74710  0.62043  0.26459  1.0000
  H   H4095     1.0  0.76372  0.63496  0.25015  1.0000
  H   H4096     1.0  0.78632  0.56133  0.24922  1.0000
  H   H4097     1.0  0.81016  0.54910  0.25427  1.0000
  H   H4098     1.0  0.78982  0.55391  0.26978  1.0000
  H   H4099     1.0  0.82109  0.62958  0.26795  1.0000
  H   H4100     1.0  0.82945  0.60733  0.25901  1.0000
  H   H4101     1.0  0.81841  0.60561  0.27966  1.0000
  H   H4102     1.0  0.96145  0.70798  0.39993  1.0000
  H   H4103     1.0  0.80357  0.77986  0.27121  1.0000
  H   H4104     1.0  0.89622  0.62287  0.45623  1.0000
  H   H4105     1.0  0.89798  0.96371  0.45521  1.0000
  H   H4106     1.0  0.70097  0.54473  0.26384  1.0000
  C   C2408     1.0  0.69123  0.89099  0.34213  1.0000
  C   C2409     1.0  0.87620  0.53019  0.45810  1.0000
  C   C2410     1.0  0.95997  0.73078  0.26820  1.0000
  H   H4107     1.0  0.73914  0.50254  0.30825  1.0000
  H   H4108     1.0  0.92557  0.67221  0.44256  1.0000
  H   H4109     1.0  0.94811  0.83605  0.38429  1.0000
  C   C2411     1.0  0.81884  0.78398  0.29073  1.0000
  C   C2412     1.0  0.69322  0.51966  0.25537  1.0000
  Fe  Fe343     1.0  0.82266  0.97945  0.43497  1.0000
  H   H4110     1.0  0.78951  0.79749  0.28369  1.0000
  H   H4111     1.0  0.71023  0.54340  0.24393  1.0000
  H   H4112     1.0  0.87186  0.78752  0.30337  1.0000
  C   C2413     1.0  0.84538  0.76936  0.26999  1.0000
  C   C2414     1.0  0.69161  0.58627  0.25769  1.0000
  C   C2415     1.0  0.68300  0.62558  0.21836  1.0000
  S   S688      1.0  0.98049  0.84682  0.44370  1.0000
  H   H4113     1.0  0.66917  0.70991  0.23270  1.0000
  C   C2416     1.0  0.74372  0.48691  0.28804  1.0000
  C   C2417     1.0  0.74670  0.48930  0.27138  1.0000
  H   H4114     1.0  0.87419  0.60853  0.40612  1.0000
  H   H4115     1.0  0.97202  0.93800  0.45136  1.0000
  H   H4116     1.0  0.83777  0.76064  0.26361  1.0000
  H   H4117     1.0  0.70254  0.87973  0.33630  1.0000
  H   H4118     1.0  0.89680  0.57849  0.40739  1.0000
  Fe  Fe344     1.0  0.98411  0.57294  0.46497  1.0000
  H   H4119     1.0  0.66447  0.75725  0.23380  1.0000
  H   H4120     1.0  0.82753  0.76896  0.22929  1.0000
  H   H4121     1.0  0.95425  0.67334  0.45496  1.0000
  C   C2418     1.0  0.72219  0.66836  0.21826  1.0000
  H   H4122     1.0  0.94811  0.86133  0.41893  1.0000
  H   H4123     1.0  0.86150  0.76222  0.26855  1.0000
  H   H4124     1.0  0.96136  0.88433  0.36137  1.0000
  S   S689      1.0  0.81324  0.97963  0.41052  1.0000
  H   H4125     1.0  0.68608  0.48691  0.40484  1.0000
  C   C2419     1.0  0.86031  0.57536  0.42674  1.0000
  H   H4126     1.0  0.95424  0.71333  0.41953  1.0000
  C   C2420     1.0  0.98256  0.75338  0.43863  1.0000
  N   N171      1.0  0.97486  0.86584  0.38088  1.0000
  C   C2421     1.0  0.96091  0.94560  0.46030  1.0000
  H   H4127     1.0  0.94003  0.91051  0.37611  1.0000
  S   S690      1.0  0.72610  0.97738  0.33574  1.0000
  N   N172      1.0  0.67896  0.55732  0.24771  1.0000
  H   H4128     1.0  0.66938  0.92305  0.30182  1.0000
  H   H4129     1.0  0.85069  0.80151  0.26550  1.0000
  C   C2422     1.0  0.90566  0.54678  0.45762  1.0000
  H   H4130     1.0  0.67040  0.53687  0.23408  1.0000
  C   C2423     1.0  0.89524  0.92072  0.45521  1.0000
  C   C2424     1.0  0.95889  0.71445  0.25810  1.0000
  S   S691      1.0  0.66299  0.92317  0.37066  1.0000
  S   S692      1.0  0.68707  0.97496  0.36408  1.0000
  H   H4131     1.0  0.95612  0.74575  0.26095  1.0000
  H   H4132     1.0  0.96247  0.82272  0.36913  1.0000
  C   C2425     1.0  0.95150  0.85585  0.40725  1.0000
  C   C2426     1.0  0.90776  0.97562  0.45412  1.0000
  C   C2427     1.0  0.96285  0.76213  0.28721  1.0000
  H   H4133     1.0  0.94357  0.87467  0.37664  1.0000
  H   H4134     1.0  0.95807  0.69948  0.26555  1.0000
  H   H4135     1.0  0.90488  0.58949  0.44693  1.0000
  H   H4136     1.0  0.94602  0.65534  0.43403  1.0000
  C   C2428     1.0  0.71523  0.49211  0.42282  1.0000
  C   C2429     1.0  0.92850  0.89991  0.45305  1.0000
  H   H4137     1.0  0.82283  0.79937  0.28657  1.0000
  C   C2430     1.0  0.79984  0.78286  0.28358  1.0000
  H   H4138     1.0  0.82868  0.79725  0.25823  1.0000
  C   C2431     1.0  0.97739  0.84644  0.37388  1.0000
  H   H4139     1.0  0.65633  0.76080  0.25403  1.0000
  H   H4140     1.0  0.94796  0.76296  0.28335  1.0000
  S   S693      1.0  0.97044  0.77523  0.37767  1.0000
  H   H4141     1.0  0.69514  0.61788  0.22472  1.0000
  H   H4142     1.0  0.94955  0.84743  0.36371  1.0000
  H   H4143     1.0  0.95199  0.83920  0.40931  1.0000
  H   H4144     1.0  0.93845  0.86294  0.40121  1.0000
  C   C2432     1.0  0.95486  0.68102  0.44250  1.0000
  N   N173      1.0  0.83659  0.76777  0.28732  1.0000
  C   C2433     1.0  0.82937  0.74748  0.29248  1.0000
  H   H4145     1.0  0.69029  0.91537  0.32277  1.0000
  C   C2434     1.0  0.85234  0.76874  0.29740  1.0000
  H   H4146     1.0  0.79137  0.77093  0.29062  1.0000
  C   C2435     1.0  0.84573  0.72863  0.29133  1.0000
  H   H4147     1.0  0.66116  0.58182  0.22031  1.0000
  C   C2436     1.0  0.86210  0.78814  0.29416  1.0000
  H   H4148     1.0  0.82154  0.74633  0.30491  1.0000
  H   H4149     1.0  0.81800  0.74563  0.28519  1.0000
  H   H4150     1.0  0.87011  0.56139  0.42340  1.0000
  H   H4151     1.0  0.81414  0.78345  0.30374  1.0000
  H   H4152     1.0  0.84593  0.76648  0.31019  1.0000
  H   H4153     1.0  0.86517  0.75632  0.29596  1.0000
  C   C2437     1.0  0.65738  0.56643  0.22478  1.0000
  C   C2438     1.0  0.95764  0.65102  0.39309  1.0000
  S   S694      1.0  0.85628  0.97664  0.43563  1.0000
  C   C2439     1.0  0.78540  0.80493  0.22846  1.0000
  H   H4154     1.0  0.77551  0.97219  0.36842  1.0000
  H   H4155     1.0  0.96018  0.67642  0.37433  1.0000
  H   H4156     1.0  0.97936  0.81428  0.41836  1.0000
  C   C2440     1.0  0.94049  0.67151  0.43494  1.0000
  H   H4157     1.0  0.93562  0.94296  0.44931  1.0000
  C   C2441     1.0  0.67397  0.87625  0.29740  1.0000
  H   H4158     1.0  0.94731  0.96431  0.44135  1.0000
  H   H4159     1.0  0.94796  0.69694  0.44355  1.0000
  C   C2442     1.0  0.66009  0.55701  0.25972  1.0000
  H   H4160     1.0  0.95985  0.79693  0.40431  1.0000
  H   H4161     1.0  0.68093  0.88362  0.35185  1.0000
  H   H4162     1.0  0.77150  0.97556  0.42575  1.0000
  S   S695      1.0  0.80773  0.49631  0.45666  1.0000
  H   H4163     1.0  0.95977  0.76771  0.29885  1.0000
  H   H4164     1.0  0.69510  0.89273  0.30357  1.0000
  H   H4165     1.0  0.69082  0.87096  0.31681  1.0000
  C   C2443     1.0  0.79171  0.97545  0.38715  1.0000
  H   H4166     1.0  0.85095  0.80208  0.29479  1.0000
  H   H4167     1.0  0.91796  0.96992  0.42957  1.0000
  C   C2444     1.0  0.67935  0.90609  0.33044  1.0000
  C   C2445     1.0  0.66286  0.55354  0.27740  1.0000
  H   H4168     1.0  0.69982  0.89952  0.34783  1.0000
  H   H4169     1.0  0.71006  0.66869  0.22854  1.0000
  H   H4170     1.0  0.65552  0.89072  0.42257  1.0000
  H   H4171     1.0  0.94706  0.72957  0.27790  1.0000
  H   H4172     1.0  0.97069  0.76414  0.43294  1.0000
  H   H4173     1.0  0.68529  0.72480  0.21897  1.0000
  H   H4174     1.0  0.85318  0.78954  0.24833  1.0000
  H   H4175     1.0  0.67825  0.51726  0.26208  1.0000
  C   C2446     1.0  0.68514  0.57812  0.24410  1.0000
  Fe  Fe345     1.0  0.98091  0.88022  0.43718  1.0000
  H   H4176     1.0  0.88834  0.94042  0.43400  1.0000
  H   H4177     1.0  0.97151  0.71320  0.24828  1.0000
  H   H4178     1.0  0.69869  0.49611  0.37649  1.0000
  C   C2447     1.0  0.75523  0.97264  0.40697  1.0000
  H   H4179     1.0  0.88101  0.63274  0.44103  1.0000
  H   H4180     1.0  0.97474  0.87486  0.40382  1.0000
  C   C2448     1.0  0.81290  0.65816  0.22307  1.0000
  Fe  Fe346     1.0  0.74649  0.84815  0.22030  1.0000
  N   N174      1.0  0.92570  0.96771  0.46281  1.0000
  H   H4181     1.0  0.72771  0.49923  0.42527  1.0000
  H   H4182     1.0  0.79342  0.48546  0.41674  1.0000
  S   S696      1.0  0.97316  0.76305  0.33282  1.0000
  C   C2449     1.0  0.94192  0.95538  0.45273  1.0000
  C   C2450     1.0  0.90973  0.90589  0.46195  1.0000
  H   H4183     1.0  0.91414  0.49307  0.45735  1.0000
  H   H4184     1.0  0.67259  0.58969  0.24014  1.0000
  C   C2451     1.0  0.65814  0.86385  0.33734  1.0000
  C   C2452     1.0  0.67464  0.55228  0.23239  1.0000
  Fe  Fe347     1.0  0.87363  0.71857  0.22076  1.0000
  H   H4185     1.0  0.69527  0.51378  0.24391  1.0000
  H   H4186     1.0  0.81480  0.60237  0.21673  1.0000
  H   H4187     1.0  0.96496  0.73144  0.29902  1.0000
  H   H4188     1.0  0.69583  0.70300  0.23180  1.0000
  Fe  Fe348     1.0  0.97824  0.75434  0.35829  1.0000
  C   C2453     1.0  0.88665  0.61864  0.44851  1.0000
  N   N175      1.0  0.97641  0.67969  0.43432  1.0000
  H   H4189     1.0  0.68038  0.68024  0.21893  1.0000
  N   N176      1.0  0.97936  0.72981  0.27486  1.0000
  H   H4190     1.0  0.97948  0.64814  0.43151  1.0000
  H   H4191     1.0  0.97198  0.77263  0.27905  1.0000
  H   H4192     1.0  0.66000  0.86972  0.30236  1.0000
  H   H4193     1.0  0.96834  0.95696  0.46402  1.0000
  H   H4194     1.0  0.98368  0.84940  0.40291  1.0000
  C   C2454     1.0  0.96961  0.78704  0.45640  1.0000
  H   H4195     1.0  0.65432  0.85358  0.32995  1.0000
  H   H4196     1.0  0.87400  0.61241  0.45657  1.0000
  H   H4197     1.0  0.95921  0.77599  0.45691  1.0000
  H   H4198     1.0  0.97554  0.74359  0.44885  1.0000
  H   H4199     1.0  0.97913  0.70940  0.43873  1.0000
  H   H4200     1.0  0.98362  0.65185  0.45017  1.0000
  H   H4201     1.0  0.97848  0.71846  0.40904  1.0000
  H   H4202     1.0  0.97348  0.69026  0.46576  1.0000
  H   H4203     1.0  0.65382  0.79567  0.25821  1.0000
  S   S697      1.0  0.77885  0.56255  0.21620  1.0000
  H   H4204     1.0  0.89007  0.71676  0.57975  1.0000
  H   H4205     1.0  0.89665  0.95044  0.49861  1.0000
  H   H4206     1.0  0.85784  0.96708  0.52977  1.0000
  S   S698      1.0  0.93545  0.74669  0.57432  1.0000
  H   H4207     1.0  0.89880  0.68181  0.55622  1.0000
  S   S699      1.0  0.77264  0.93751  0.55672  1.0000
  H   H4208     1.0  0.68172  0.96588  0.53807  1.0000
  H   H4209     1.0  0.66097  0.70505  0.67088  1.0000
  C   C2455     1.0  0.74839  0.77085  0.59699  1.0000
  Fe  Fe349     1.0  0.83398  0.74821  0.63787  1.0000
  S   S700      1.0  0.82402  0.77994  0.64376  1.0000
  S   S701      1.0  0.86656  0.73208  0.63361  1.0000
  Fe  Fe350     1.0  0.79018  0.73944  0.64216  1.0000
  S   S702      1.0  0.77690  0.77042  0.64807  1.0000
  S   S703      1.0  0.77376  0.71264  0.64279  1.0000
  Fe  Fe351     1.0  0.80005  0.78160  0.62842  1.0000
  S   S704      1.0  0.79360  0.80904  0.61005  1.0000
  Fe  Fe352     1.0  0.80163  0.76664  0.66322  1.0000
  S   S705      1.0  0.79036  0.77806  0.68690  1.0000
  S   S706      1.0  0.81162  0.75080  0.62106  1.0000
  S   S707      1.0  0.81326  0.73474  0.65877  1.0000
  Fe  Fe353     1.0  0.72511  0.96316  0.60503  1.0000
  S   S708      1.0  0.75209  0.93871  0.60217  1.0000
  Fe  Fe354     1.0  0.70096  0.94345  0.58542  1.0000
  S   S709      1.0  0.72612  0.91779  0.58160  1.0000
  S   S710      1.0  0.67102  0.95010  0.57518  1.0000
  Fe  Fe355     1.0  0.72965  0.91677  0.60700  1.0000
  S   S711      1.0  0.73169  0.88774  0.62457  1.0000
  Fe  Fe356     1.0  0.74665  0.94156  0.57680  1.0000
  H   H4210     1.0  0.67279  0.92517  0.51798  1.0000
  S   S712      1.0  0.70282  0.94089  0.61141  1.0000
  S   S713      1.0  0.90891  0.56981  0.48052  1.0000
  Fe  Fe357     1.0  0.67488  0.49339  0.60476  1.0000
  H   H4211     1.0  0.70006  0.77886  0.61661  1.0000
  Fe  Fe358     1.0  0.67360  0.67632  0.63384  1.0000
  S   S714      1.0  0.69007  0.64519  0.64087  1.0000
  S   S715      1.0  0.68685  0.70594  0.62767  1.0000
  H   H4212     1.0  0.73437  0.94546  0.49112  1.0000
  Fe  Fe359     1.0  0.66939  0.63387  0.62759  1.0000
  S   S716      1.0  0.68042  0.49229  0.57848  1.0000
  H   H4213     1.0  0.77771  0.75202  0.59762  1.0000
  H   H4214     1.0  0.72293  0.52928  0.55960  1.0000
  C   C2456     1.0  0.67011  0.54516  0.61609  1.0000
  C   C2457     1.0  0.67471  0.55569  0.60093  1.0000
  C   C2458     1.0  0.67738  0.57619  0.59900  1.0000
  C   C2459     1.0  0.67533  0.58639  0.61218  1.0000
  C   C2460     1.0  0.67070  0.57586  0.62732  1.0000
  H   H4215     1.0  0.73378  0.71329  0.69626  1.0000
  H   H4216     1.0  0.67594  0.54810  0.59072  1.0000
  H   H4217     1.0  0.82532  0.86074  0.66012  1.0000
  H   H4218     1.0  0.80581  0.95144  0.50212  1.0000
  C   C2461     1.0  0.74730  0.80813  0.58919  1.0000
  H   H4219     1.0  0.71298  0.54719  0.58266  1.0000
  N   N177      1.0  0.80400  0.83966  0.66221  1.0000
  H   H4220     1.0  0.67725  0.93285  0.53516  1.0000
  C   C2462     1.0  0.96050  0.79959  0.46988  1.0000
  H   H4221     1.0  0.67822  0.72235  0.66944  1.0000
  H   H4222     1.0  0.67640  0.97972  0.59401  1.0000
  H   H4223     1.0  0.80222  0.89275  0.65454  1.0000
  H   H4224     1.0  0.80419  0.97970  0.53439  1.0000
  H   H4225     1.0  0.87950  0.50731  0.50879  1.0000
  C   C2463     1.0  0.75009  0.71164  0.63727  1.0000
  C   C2464     1.0  0.74503  0.69259  0.63666  1.0000
  C   C2465     1.0  0.72580  0.69067  0.63363  1.0000
  C   C2466     1.0  0.71145  0.70785  0.63099  1.0000
  C   C2467     1.0  0.71661  0.72701  0.63127  1.0000
  C   C2468     1.0  0.73584  0.72892  0.63445  1.0000
  H   H4226     1.0  0.75599  0.67916  0.63877  1.0000
  H   H4227     1.0  0.72211  0.67586  0.63334  1.0000
  H   H4228     1.0  0.70548  0.74033  0.62944  1.0000
  H   H4229     1.0  0.73948  0.74359  0.63516  1.0000
  C   C2469     1.0  0.80474  0.77868  0.70196  1.0000
  H   H4230     1.0  0.85178  0.76517  0.71264  1.0000
  H   H4231     1.0  0.78199  0.81991  0.67276  1.0000
  C   C2470     1.0  0.82524  0.77071  0.70099  1.0000
  H   H4232     1.0  0.73081  0.67612  0.66620  1.0000
  H   H4233     1.0  0.70986  0.64866  0.69399  1.0000
  H   H4234     1.0  0.83286  0.76398  0.69070  1.0000
  C   C2471     1.0  0.77613  0.83068  0.61424  1.0000
  C   C2472     1.0  0.77578  0.84833  0.60311  1.0000
  C   C2473     1.0  0.76218  0.86591  0.60606  1.0000
  C   C2474     1.0  0.74865  0.86588  0.62013  1.0000
  C   C2475     1.0  0.74869  0.84807  0.63112  1.0000
  C   C2476     1.0  0.76245  0.83056  0.62825  1.0000
  H   H4235     1.0  0.78628  0.84852  0.59221  1.0000
  H   H4236     1.0  0.76226  0.87954  0.59750  1.0000
  H   H4237     1.0  0.73805  0.84789  0.64192  1.0000
  H   H4238     1.0  0.76247  0.81702  0.63688  1.0000
  C   C2477     1.0  0.84798  0.96470  0.52151  1.0000
  C   C2478     1.0  0.82111  0.82384  0.66742  1.0000
  H   H4239     1.0  0.76183  0.80885  0.59315  1.0000
  H   H4240     1.0  0.70921  0.65031  0.67300  1.0000
  N   N178      1.0  0.73673  0.79152  0.59915  1.0000
  H   H4241     1.0  0.85757  0.95692  0.51195  1.0000
  C   C2479     1.0  0.91650  0.74213  0.59088  1.0000
  C   C2480     1.0  0.89740  0.75421  0.59114  1.0000
  C   C2481     1.0  0.88190  0.75124  0.60401  1.0000
  C   C2482     1.0  0.88536  0.73618  0.61685  1.0000
  C   C2483     1.0  0.90441  0.72398  0.61653  1.0000
  C   C2484     1.0  0.91990  0.72691  0.60364  1.0000
  H   H4242     1.0  0.89460  0.76604  0.58136  1.0000
  H   H4243     1.0  0.86736  0.76075  0.60406  1.0000
  H   H4244     1.0  0.90729  0.71236  0.62643  1.0000
  H   H4245     1.0  0.93454  0.71764  0.60370  1.0000
  H   H4246     1.0  0.96541  0.75162  0.47566  1.0000
  C   C2485     1.0  0.97833  0.65586  0.53067  1.0000
  C   C2486     1.0  0.87853  0.54825  0.47955  1.0000
  H   H4247     1.0  0.95757  0.93358  0.47035  1.0000
  H   H4248     1.0  0.87187  0.55350  0.49066  1.0000
  C   C2487     1.0  0.69116  0.69018  0.67470  1.0000
  H   H4249     1.0  0.82908  0.84986  0.63414  1.0000
  C   C2488     1.0  0.80151  0.83682  0.64580  1.0000
  H   H4250     1.0  0.67175  0.95181  0.51854  1.0000
  H   H4251     1.0  0.87724  0.69909  0.57284  1.0000
  H   H4252     1.0  0.90655  0.89923  0.47420  1.0000
  H   H4253     1.0  0.71780  0.79077  0.58162  1.0000
  H   H4254     1.0  0.81598  0.84051  0.62124  1.0000
  C   C2489     1.0  0.79910  0.87838  0.65159  1.0000
  H   H4255     1.0  0.72661  0.58144  0.60740  1.0000
  N   N179      1.0  0.91789  0.67857  0.57455  1.0000
  C   C2490     1.0  0.93246  0.66169  0.58207  1.0000
  C   C2491     1.0  0.90911  0.67005  0.56271  1.0000
  C   C2492     1.0  0.90122  0.68485  0.58747  1.0000
  C   C2493     1.0  0.92914  0.69595  0.56702  1.0000
  C   C2494     1.0  0.94061  0.66611  0.59650  1.0000
  C   C2495     1.0  0.92475  0.65990  0.55018  1.0000
  C   C2496     1.0  0.92090  0.71011  0.55283  1.0000
  H   H4256     1.0  0.92542  0.64765  0.58593  1.0000
  H   H4257     1.0  0.94598  0.65754  0.57335  1.0000
  H   H4258     1.0  0.90731  0.69039  0.59680  1.0000
  H   H4259     1.0  0.93000  0.70556  0.57598  1.0000
  H   H4260     1.0  0.94519  0.69041  0.56261  1.0000
  H   H4261     1.0  0.94453  0.68157  0.59480  1.0000
  C   C2497     1.0  0.71628  0.71015  0.67786  1.0000
  C   C2498     1.0  0.93771  0.49923  0.48192  1.0000
  H   H4262     1.0  0.93698  0.66901  0.54514  1.0000
  H   H4263     1.0  0.93169  0.64463  0.55525  1.0000
  H   H4264     1.0  0.91718  0.65788  0.54029  1.0000
  H   H4265     1.0  0.92394  0.70271  0.54204  1.0000
  H   H4266     1.0  0.92882  0.72355  0.54999  1.0000
  H   H4267     1.0  0.90465  0.71594  0.55515  1.0000
  H   H4268     1.0  0.70926  0.97153  0.51315  1.0000
  H   H4269     1.0  0.67882  0.90709  0.57078  1.0000
  H   H4270     1.0  0.87873  0.49337  0.48372  1.0000
  S   S717      1.0  0.66610  0.51956  0.61936  1.0000
  S   S718      1.0  0.87260  0.92902  0.46721  1.0000
  H   H4271     1.0  0.80574  0.87776  0.63906  1.0000
  H   H4272     1.0  0.89950  0.65850  0.56886  1.0000
  H   H4273     1.0  0.77541  0.73614  0.70289  1.0000
  H   H4274     1.0  0.69653  0.68997  0.66185  1.0000
  H   H4275     1.0  0.79654  0.82193  0.64603  1.0000
  H   H4276     1.0  0.79998  0.93085  0.52859  1.0000
  H   H4277     1.0  0.84027  0.81309  0.68575  1.0000
  C   C2499     1.0  0.77568  0.95250  0.53797  1.0000
  H   H4278     1.0  0.73038  0.78043  0.62428  1.0000
  H   H4279     1.0  0.96788  0.80729  0.51429  1.0000
  S   S719      1.0  0.65490  0.66545  0.61867  1.0000
  Fe  Fe360     1.0  0.96664  0.72865  0.56764  1.0000
  S   S720      1.0  0.67851  0.61224  0.60912  1.0000
  C   C2500     1.0  0.88443  0.70198  0.58261  1.0000
  N   N180      1.0  0.73645  0.53244  0.59660  1.0000
  C   C2501     1.0  0.72895  0.54922  0.60660  1.0000
  C   C2502     1.0  0.72784  0.51392  0.60531  1.0000
  C   C2503     1.0  0.72866  0.53892  0.58090  1.0000
  C   C2504     1.0  0.75921  0.52930  0.59436  1.0000
  C   C2505     1.0  0.73236  0.57078  0.59865  1.0000
  H   H4280     1.0  0.97981  0.74388  0.49120  1.0000
  C   C2506     1.0  0.71837  0.65199  0.68202  1.0000
  C   C2507     1.0  0.76508  0.48618  0.51790  1.0000
  H   H4281     1.0  0.76508  0.81432  0.56598  1.0000
  H   H4282     1.0  0.73616  0.54630  0.61754  1.0000
  H   H4283     1.0  0.73195  0.50098  0.59855  1.0000
  C   C2508     1.0  0.72755  0.52215  0.57121  1.0000
  C   C2509     1.0  0.70282  0.77779  0.60379  1.0000
  H   H4284     1.0  0.73784  0.54979  0.57305  1.0000
  H   H4285     1.0  0.76496  0.54294  0.58728  1.0000
  H   H4286     1.0  0.76507  0.52809  0.60577  1.0000
  H   H4287     1.0  0.74021  0.72762  0.67748  1.0000
  H   H4288     1.0  0.70769  0.80863  0.59458  1.0000
  H   H4289     1.0  0.78254  0.87960  0.65251  1.0000
  C   C2510     1.0  0.75113  0.80772  0.57116  1.0000
  C   C2511     1.0  0.89991  0.96223  0.48833  1.0000
  H   H4290     1.0  0.75056  0.50234  0.62143  1.0000
  C   C2512     1.0  0.91881  0.95367  0.47748  1.0000
  H   H4291     1.0  0.71590  0.51268  0.57710  1.0000
  H   H4292     1.0  0.97840  0.62384  0.53804  1.0000
  C   C2513     1.0  0.97673  0.63616  0.52841  1.0000
  H   H4293     1.0  0.81453  0.81894  0.69362  1.0000
  H   H4294     1.0  0.68224  0.97899  0.61993  1.0000
  H   H4295     1.0  0.75007  0.79522  0.61926  1.0000
  S   S721      1.0  0.67311  0.63068  0.68598  1.0000
  C   C2514     1.0  0.98114  0.74724  0.47808  1.0000
  H   H4296     1.0  0.78939  0.84823  0.64110  1.0000
  N   N181      1.0  0.70855  0.69023  0.68350  1.0000
  H   H4297     1.0  0.72373  0.57626  0.58859  1.0000
  C   C2515     1.0  0.72482  0.67316  0.67899  1.0000
  H   H4298     1.0  0.70487  0.72296  0.68161  1.0000
  S   S722      1.0  0.77446  0.49428  0.49778  1.0000
  H   H4299     1.0  0.80435  0.86428  0.67510  1.0000
  C   C2516     1.0  0.67373  0.70800  0.67618  1.0000
  H   H4300     1.0  0.74855  0.57195  0.59476  1.0000
  Fe  Fe361     1.0  0.93828  0.58243  0.47044  1.0000
  H   H4301     1.0  0.74211  0.51233  0.56864  1.0000
  H   H4302     1.0  0.98153  0.77302  0.52680  1.0000
  H   H4303     1.0  0.73814  0.67189  0.68505  1.0000
  H   H4304     1.0  0.94106  0.51502  0.48011  1.0000
  H   H4305     1.0  0.68786  0.78101  0.59961  1.0000
  C   C2517     1.0  0.77045  0.51134  0.58595  1.0000
  H   H4306     1.0  0.73722  0.50687  0.51706  1.0000
  H   H4307     1.0  0.72476  0.82710  0.61497  1.0000
  H   H4308     1.0  0.76267  0.49790  0.58830  1.0000
  H   H4309     1.0  0.93093  0.94878  0.48508  1.0000
  H   H4310     1.0  0.72767  0.49178  0.62663  1.0000
  S   S723      1.0  0.72135  0.96751  0.57909  1.0000
  H   H4311     1.0  0.72751  0.51675  0.63038  1.0000
  H   H4312     1.0  0.73845  0.82324  0.59078  1.0000
  H   H4313     1.0  0.77357  0.51605  0.57297  1.0000
  H   H4314     1.0  0.71247  0.54993  0.61080  1.0000
  H   H4315     1.0  0.75383  0.79230  0.56793  1.0000
  C   C2518     1.0  0.65387  0.90235  0.55990  1.0000
  H   H4316     1.0  0.85353  0.53281  0.47852  1.0000
  C   C2519     1.0  0.74588  0.49521  0.52439  1.0000
  H   H4317     1.0  0.95451  0.65526  0.59853  1.0000
  C   C2520     1.0  0.97217  0.66780  0.50358  1.0000
  C   C2521     1.0  0.74368  0.94744  0.49991  1.0000
  C   C2522     1.0  0.73783  0.48935  0.54030  1.0000
  H   H4318     1.0  0.66787  0.70984  0.68867  1.0000
  C   C2523     1.0  0.73505  0.79403  0.61632  1.0000
  C   C2524     1.0  0.69628  0.97124  0.53760  1.0000
  C   C2525     1.0  0.76384  0.97132  0.53468  1.0000
  C   C2526     1.0  0.89718  0.55376  0.47193  1.0000
  H   H4319     1.0  0.89387  0.67157  0.59353  1.0000
  C   C2527     1.0  0.70080  0.68801  0.70101  1.0000
  H   H4320     1.0  0.71100  0.51696  0.60677  1.0000
  H   H4321     1.0  0.81791  0.80835  0.66711  1.0000
  H   H4322     1.0  0.76244  0.85268  0.65861  1.0000
  H   H4323     1.0  0.76600  0.86480  0.67490  1.0000
  H   H4324     1.0  0.74888  0.70129  0.67980  1.0000
  H   H4325     1.0  0.91543  0.93953  0.47424  1.0000
  H   H4326     1.0  0.78692  0.83535  0.68583  1.0000
  C   C2528     1.0  0.78512  0.83536  0.67335  1.0000
  Fe  Fe362     1.0  0.96463  0.61454  0.47378  1.0000
  C   C2529     1.0  0.83593  0.77139  0.71344  1.0000
  H   H4327     1.0  0.66908  0.58349  0.63756  1.0000
  C   C2530     1.0  0.73396  0.50602  0.62185  1.0000
  C   C2531     1.0  0.76565  0.85017  0.67092  1.0000
  H   H4328     1.0  0.94701  0.49036  0.49079  1.0000
  H   H4329     1.0  0.82941  0.83906  0.68563  1.0000
  H   H4330     1.0  0.83540  0.82547  0.65923  1.0000
  H   H4331     1.0  0.74915  0.93674  0.52382  1.0000
  C   C2532     1.0  0.80874  0.86045  0.66286  1.0000
  H   H4332     1.0  0.70458  0.81186  0.62082  1.0000
  N   N182      1.0  0.71666  0.94056  0.52443  1.0000
  C   C2533     1.0  0.73796  0.93510  0.51628  1.0000
  C   C2534     1.0  0.71554  0.92922  0.54104  1.0000
  Fe  Fe363     1.0  0.66492  0.64332  0.66146  1.0000
  C   C2535     1.0  0.70241  0.93466  0.51503  1.0000
  H   H4333     1.0  0.70928  0.76202  0.60196  1.0000
  C   C2536     1.0  0.71854  0.90594  0.54241  1.0000
  H   H4334     1.0  0.94432  0.80516  0.46896  1.0000
  C   C2537     1.0  0.67989  0.93648  0.52217  1.0000
  H   H4335     1.0  0.94249  0.49360  0.47039  1.0000
  H   H4336     1.0  0.74102  0.91894  0.51445  1.0000
  H   H4337     1.0  0.70094  0.93353  0.54841  1.0000
  H   H4338     1.0  0.72703  0.93333  0.54723  1.0000
  C   C2538     1.0  0.71289  0.96314  0.52478  1.0000
  S   S724      1.0  0.97995  0.69812  0.57902  1.0000
  H   H4339     1.0  0.70285  0.94414  0.50321  1.0000
  H   H4340     1.0  0.70738  0.91903  0.51209  1.0000
  C   C2539     1.0  0.73592  0.71277  0.68338  1.0000
  H   H4341     1.0  0.85827  0.49504  0.50921  1.0000
  H   H4342     1.0  0.77942  0.77737  0.58824  1.0000
  H   H4343     1.0  0.73408  0.89967  0.53753  1.0000
  H   H4344     1.0  0.71629  0.89942  0.55511  1.0000
  H   H4345     1.0  0.70728  0.90063  0.53684  1.0000
  C   C2540     1.0  0.88472  0.48298  0.49379  1.0000
  C   C2541     1.0  0.66804  0.55538  0.62923  1.0000
  H   H4346     1.0  0.68087  0.58426  0.58723  1.0000
  C   C2542     1.0  0.79076  0.94541  0.52612  1.0000
  C   C2543     1.0  0.79409  0.95705  0.51112  1.0000
  S   S725      1.0  0.96192  0.58277  0.48571  1.0000
  C   C2544     1.0  0.72052  0.81263  0.62161  1.0000
  H   H4347     1.0  0.72131  0.81305  0.63425  1.0000
  H   H4348     1.0  0.97024  0.68021  0.49409  1.0000
  C   C2545     1.0  0.82053  0.83772  0.63324  1.0000
  C   C2546     1.0  0.91491  0.49957  0.48764  1.0000
  H   H4349     1.0  0.83075  0.82303  0.63407  1.0000
  H   H4350     1.0  0.87235  0.70349  0.59293  1.0000
  C   C2547     1.0  0.78244  0.97598  0.50788  1.0000
  H   H4351     1.0  0.92948  0.66403  0.60740  1.0000
  C   C2548     1.0  0.71626  0.79310  0.59421  1.0000
  H   H4352     1.0  0.77375  0.77175  0.60954  1.0000
  H   H4353     1.0  0.73201  0.68194  0.70799  1.0000
  C   C2549     1.0  0.82634  0.82406  0.68406  1.0000
  H   H4354     1.0  0.72309  0.49646  0.54511  1.0000
  S   S726      1.0  0.97359  0.72036  0.54292  1.0000
  C   C2550     1.0  0.86812  0.53645  0.47273  1.0000
  H   H4355     1.0  0.88632  0.96575  0.48231  1.0000
  H   H4356     1.0  0.73826  0.81666  0.56548  1.0000
  H   H4357     1.0  0.67280  0.97466  0.64881  1.0000
  H   H4358     1.0  0.75964  0.94193  0.49533  1.0000
  H   H4359     1.0  0.96775  0.81320  0.46899  1.0000
  H   H4360     1.0  0.97197  0.61702  0.51214  1.0000
  H   H4361     1.0  0.73200  0.64032  0.68093  1.0000
  H   H4362     1.0  0.91151  0.50725  0.49836  1.0000
  H   H4363     1.0  0.74682  0.76643  0.58553  1.0000
  C   C2551     1.0  0.87493  0.49240  0.50880  1.0000
  C   C2552     1.0  0.66528  0.64529  0.70159  1.0000
  S   S727      1.0  0.83568  0.48439  0.48555  1.0000
  H   H4364     1.0  0.71888  0.71294  0.66471  1.0000
  H   H4365     1.0  0.74209  0.75898  0.60603  1.0000
  C   C2553     1.0  0.77108  0.76812  0.59817  1.0000
  H   H4366     1.0  0.75267  0.84373  0.67841  1.0000
  H   H4367     1.0  0.69279  0.70274  0.70447  1.0000
  H   H4368     1.0  0.68416  0.67620  0.67877  1.0000
  H   H4369     1.0  0.68927  0.67767  0.70381  1.0000
  H   H4370     1.0  0.94425  0.97904  0.47659  1.0000
  H   H4371     1.0  0.96111  0.79057  0.48177  1.0000
  C   C2554     1.0  0.97078  0.64809  0.50123  1.0000
  S   S728      1.0  0.98248  0.66019  0.54943  1.0000
  H   H4372     1.0  0.70127  0.96725  0.54944  1.0000
  H   H4373     1.0  0.90677  0.50998  0.47871  1.0000
  C   C2555     1.0  0.97308  0.63225  0.51374  1.0000
  H   H4374     1.0  0.82378  0.97632  0.54614  1.0000
  H   H4375     1.0  0.66435  0.54739  0.64101  1.0000
  S   S729      1.0  0.98406  0.83495  0.48850  1.0000
  H   H4376     1.0  0.90212  0.97571  0.49310  1.0000
  H   H4377     1.0  0.69582  0.48662  0.53270  1.0000
  H   H4378     1.0  0.83731  0.95428  0.52780  1.0000
  H   H4379     1.0  0.78511  0.50587  0.59042  1.0000
  H   H4380     1.0  0.72680  0.96839  0.52670  1.0000
  H   H4381     1.0  0.75541  0.97635  0.63449  1.0000
  C   C2556     1.0  0.66480  0.91396  0.56651  1.0000
  H   H4382     1.0  0.75231  0.97698  0.54377  1.0000
  H   H4383     1.0  0.74293  0.96377  0.50052  1.0000
  S   S730      1.0  0.96595  0.64425  0.48251  1.0000
  C   C2557     1.0  0.98299  0.80041  0.51001  1.0000
  C   C2558     1.0  0.66219  0.97252  0.64099  1.0000
  Fe  Fe364     1.0  0.80376  0.48251  0.48253  1.0000
  H   H4384     1.0  0.65967  0.88659  0.55915  1.0000
  H   H4385     1.0  0.97709  0.68691  0.51976  1.0000
  H   H4386     1.0  0.65841  0.95562  0.60981  1.0000
  C   C2559     1.0  0.67408  0.63968  0.71555  1.0000
  H   H4387     1.0  0.66502  0.95617  0.63982  1.0000
  C   C2560     1.0  0.65755  0.93439  0.56753  1.0000
  C   C2561     1.0  0.97602  0.67167  0.51817  1.0000
  C   C2562     1.0  0.71636  0.67932  0.71247  1.0000
  C   C2563     1.0  0.79510  0.78746  0.71536  1.0000
  C   C2564     1.0  0.77033  0.72907  0.71515  1.0000
  H   H4388     1.0  0.82487  0.98077  0.50801  1.0000
  H   H4389     1.0  0.87817  0.48219  0.51977  1.0000
  S   S731      1.0  0.84530  0.98111  0.47347  1.0000
  H   H4390     1.0  0.77929  0.79387  0.71613  1.0000
  H   H4391     1.0  0.77706  0.71288  0.71604  1.0000
  S   S732      1.0  0.70107  0.95661  0.93571  1.0000
  Fe  Fe365     1.0  0.66966  0.96197  0.95012  1.0000
  C   C2565     1.0  0.70788  0.96096  0.91488  1.0000
  S   S733      1.0  0.80666  0.50237  0.84545  1.0000
  Fe  Fe366     1.0  0.73181  0.51881  0.83468  1.0000
  S   S734      1.0  0.76138  0.50998  0.81956  1.0000
  S   S735      1.0  0.70612  0.54499  0.83122  1.0000
  Fe  Fe367     1.0  0.77398  0.49963  0.84272  1.0000
  H   H4392     1.0  0.84808  0.90986  0.79579  1.0000
  S   S736      1.0  0.74484  0.51071  0.85765  1.0000
  C   C2566     1.0  0.68557  0.48277  0.92489  1.0000
  Fe  Fe368     1.0  0.93686  0.52350  0.89009  1.0000
  S   S737      1.0  0.91160  0.51296  0.90828  1.0000
  C   C2567     1.0  0.71399  0.61401  0.75552  1.0000
  Fe  Fe369     1.0  0.91757  0.56815  0.88843  1.0000
  S   S738      1.0  0.89146  0.56049  0.90705  1.0000
  S   S739      1.0  0.91835  0.59886  0.87261  1.0000
  Fe  Fe370     1.0  0.91456  0.53930  0.92012  1.0000
  S   S740      1.0  0.91448  0.53083  0.94686  1.0000
  Fe  Fe371     1.0  0.89029  0.53491  0.89371  1.0000
  S   S741      1.0  0.85743  0.53318  0.89063  1.0000
  S   S742      1.0  0.94070  0.54891  0.90252  1.0000
  S   S743      1.0  0.91559  0.54340  0.87461  1.0000
  H   H4393     1.0  0.91672  0.73434  0.74554  1.0000
  C   C2568     1.0  0.69177  0.54507  0.87338  1.0000
  S   S744      1.0  0.78457  0.95118  0.86061  1.0000
  C   C2569     1.0  0.94070  0.81697  0.84333  1.0000
  Fe  Fe372     1.0  0.79333  0.93733  0.83819  1.0000
  S   S745      1.0  0.80319  0.90320  0.83956  1.0000
  S   S746      1.0  0.76719  0.95531  0.82703  1.0000
  Fe  Fe373     1.0  0.82378  0.78530  0.76713  1.0000
  S   S747      1.0  0.82414  0.75767  0.78538  1.0000
  S   S748      1.0  0.83992  0.78004  0.74256  1.0000
  Fe  Fe374     1.0  0.80245  0.81245  0.79147  1.0000
  S   S749      1.0  0.80109  0.78638  0.81140  1.0000
  S   S750      1.0  0.78784  0.84519  0.79339  1.0000
  Fe  Fe375     1.0  0.83339  0.77607  0.80132  1.0000
  S   S751      1.0  0.85556  0.75882  0.81777  1.0000
  Fe  Fe376     1.0  0.79205  0.76967  0.79398  1.0000
  S   S752      1.0  0.77320  0.74397  0.80078  1.0000
  S   S753      1.0  0.83543  0.80321  0.78244  1.0000
  S   S754      1.0  0.79098  0.79632  0.77460  1.0000
  C   C2570     1.0  0.80570  0.78792  0.72785  1.0000
  S   S755      1.0  0.72179  0.48855  0.83593  1.0000
  S   S756      1.0  0.96109  0.67288  0.88018  1.0000
  Fe  Fe377     1.0  0.96899  0.73252  0.83394  1.0000
  S   S757      1.0  0.95031  0.75371  0.81660  1.0000
  S   S758      1.0  0.96168  0.73139  0.86031  1.0000
  Fe  Fe378     1.0  0.67926  0.70426  0.78304  1.0000
  S   S759      1.0  0.69148  0.68108  0.76685  1.0000
  S   S760      1.0  0.69034  0.73465  0.78011  1.0000
  H   H4394     1.0  0.68540  0.62639  0.71655  1.0000
  Fe  Fe379     1.0  0.68629  0.65807  0.78868  1.0000
  S   S761      1.0  0.71236  0.63241  0.79191  1.0000
  S   S762      1.0  0.67643  0.68148  0.80508  1.0000
  H   H4395     1.0  0.97942  0.58246  0.86775  1.0000
  H   H4396     1.0  0.67566  0.64736  0.73858  1.0000
  C   C2571     1.0  0.88168  0.75858  0.81785  1.0000
  C   C2572     1.0  0.89199  0.74308  0.82778  1.0000
  C   C2573     1.0  0.91290  0.74166  0.82782  1.0000
  C   C2574     1.0  0.92375  0.75578  0.81789  1.0000
  C   C2575     1.0  0.91339  0.77161  0.80825  1.0000
  C   C2576     1.0  0.89244  0.77306  0.80824  1.0000
  H   H4397     1.0  0.88376  0.73191  0.83536  1.0000
  H   H4398     1.0  0.92066  0.72944  0.83535  1.0000
  H   H4399     1.0  0.92166  0.78271  0.80065  1.0000
  H   H4400     1.0  0.88462  0.78528  0.80078  1.0000
  C   C2577     1.0  0.74956  0.74219  0.79563  1.0000
  C   C2578     1.0  0.74274  0.72330  0.79894  1.0000
  C   C2579     1.0  0.72454  0.72080  0.79437  1.0000
  C   C2580     1.0  0.71289  0.73729  0.78657  1.0000
  C   C2581     1.0  0.71947  0.75630  0.78353  1.0000
  C   C2582     1.0  0.73782  0.75874  0.78793  1.0000
  H   H4401     1.0  0.75175  0.71043  0.80490  1.0000
  H   H4402     1.0  0.71963  0.70610  0.79678  1.0000
  H   H4403     1.0  0.71048  0.76914  0.77752  1.0000
  H   H4404     1.0  0.74293  0.77336  0.78534  1.0000
  C   C2583     1.0  0.79812  0.88702  0.82708  1.0000
  C   C2584     1.0  0.80927  0.86748  0.82722  1.0000
  C   C2585     1.0  0.80606  0.85429  0.81724  1.0000
  C   C2586     1.0  0.79148  0.86048  0.80710  1.0000
  C   C2587     1.0  0.77994  0.87983  0.80728  1.0000
  C   C2588     1.0  0.78325  0.89307  0.81718  1.0000
  H   H4405     1.0  0.82067  0.86257  0.83494  1.0000
  H   H4406     1.0  0.81500  0.83943  0.81726  1.0000
  H   H4407     1.0  0.76852  0.88466  0.79957  1.0000
  H   H4408     1.0  0.77437  0.90795  0.81709  1.0000
  H   H4409     1.0  0.76291  0.88266  0.89403  1.0000
  H   H4410     1.0  0.94942  0.92387  0.87998  1.0000
  H   H4411     1.0  0.79807  0.79469  0.73811  1.0000
  C   C2589     1.0  0.93015  0.61935  0.87501  1.0000
  C   C2590     1.0  0.93801  0.61981  0.88882  1.0000
  C   C2591     1.0  0.94698  0.63654  0.89030  1.0000
  C   C2592     1.0  0.94862  0.65278  0.87789  1.0000
  C   C2593     1.0  0.94089  0.65226  0.86402  1.0000
  C   C2594     1.0  0.93156  0.63571  0.86267  1.0000
  H   H4412     1.0  0.93695  0.60742  0.89844  1.0000
  H   H4413     1.0  0.95282  0.63681  0.90110  1.0000
  H   H4414     1.0  0.94196  0.66467  0.85441  1.0000
  H   H4415     1.0  0.92547  0.63554  0.85196  1.0000
  C   C2595     1.0  0.70851  0.56959  0.82107  1.0000
  C   C2596     1.0  0.69115  0.58429  0.82072  1.0000
  C   C2597     1.0  0.69219  0.60385  0.81228  1.0000
  C   C2598     1.0  0.71062  0.60883  0.80404  1.0000
  C   C2599     1.0  0.72801  0.59420  0.80455  1.0000
  C   C2600     1.0  0.72698  0.57465  0.81302  1.0000
  H   H4416     1.0  0.67681  0.58051  0.82694  1.0000
  H   H4417     1.0  0.67871  0.61499  0.81200  1.0000
  H   H4418     1.0  0.74232  0.59791  0.79817  1.0000
  H   H4419     1.0  0.74044  0.56346  0.81319  1.0000
  C   C2601     1.0  0.82044  0.51155  0.85796  1.0000
  C   C2602     1.0  0.81093  0.52256  0.87016  1.0000
  C   C2603     1.0  0.82250  0.52880  0.88006  1.0000
  C   C2604     1.0  0.84376  0.52437  0.87788  1.0000
  C   C2605     1.0  0.85328  0.51354  0.86559  1.0000
  C   C2606     1.0  0.84170  0.50718  0.85575  1.0000
  H   H4420     1.0  0.79468  0.52634  0.87192  1.0000
  H   H4421     1.0  0.81492  0.53729  0.88943  1.0000
  H   H4422     1.0  0.86958  0.50998  0.86367  1.0000
  H   H4423     1.0  0.68402  0.77439  0.82608  1.0000
  H   H4424     1.0  0.74048  0.76792  0.74824  1.0000
  C   C2607     1.0  0.70098  0.57635  0.77494  1.0000
  Fe  Fe380     1.0  0.75975  0.97081  0.84887  1.0000
  H   H4425     1.0  0.76337  0.94193  0.78040  1.0000
  H   H4426     1.0  0.69040  0.61174  0.74299  1.0000
  H   H4427     1.0  0.92529  0.57139  0.94533  1.0000
  C   C2608     1.0  0.95978  0.81373  0.87830  1.0000
  H   H4428     1.0  0.86808  0.72067  0.77379  1.0000
  H   H4429     1.0  0.72014  0.75527  0.74677  1.0000
  H   H4430     1.0  0.88642  0.71760  0.78711  1.0000
  Fe  Fe381     1.0  0.78786  0.97856  0.81757  1.0000
  H   H4431     1.0  0.68709  0.55886  0.86515  1.0000
  H   H4432     1.0  0.90220  0.96500  0.85219  1.0000
  H   H4433     1.0  0.74503  0.93363  0.86860  1.0000
  C   C2609     1.0  0.77587  0.70247  0.76604  1.0000
  C   C2610     1.0  0.82616  0.77983  0.72698  1.0000
  C   C2611     1.0  0.66060  0.59025  0.74610  1.0000
  H   H4434     1.0  0.76292  0.91677  0.85798  1.0000
  C   C2612     1.0  0.98119  0.98082  0.89651  1.0000
  H   H4435     1.0  0.95457  0.97498  0.86411  1.0000
  C   C2613     1.0  0.65426  0.66891  0.72646  1.0000
  H   H4436     1.0  0.76210  0.88497  0.85012  1.0000
  H   H4437     1.0  0.91082  0.97178  0.90985  1.0000
  H   H4438     1.0  0.88780  0.71916  0.73826  1.0000
  S   S763      1.0  0.97789  0.69874  0.83528  1.0000
  C   C2614     1.0  0.65464  0.70176  0.84195  1.0000
  H   H4439     1.0  0.74259  0.91605  0.84010  1.0000
  C   C2615     1.0  0.75815  0.87375  0.86055  1.0000
  H   H4440     1.0  0.73958  0.95801  0.91653  1.0000
  H   H4441     1.0  0.78329  0.90972  0.89686  1.0000
  H   H4442     1.0  0.78060  0.71129  0.77405  1.0000
  H   H4443     1.0  0.84072  0.92789  0.80913  1.0000
  C   C2616     1.0  0.93988  0.97187  0.86172  1.0000
  H   H4444     1.0  0.77908  0.94726  0.79320  1.0000
  H   H4445     1.0  0.91347  0.76321  0.77805  1.0000
  H   H4446     1.0  0.93304  0.80993  0.83574  1.0000
  C   C2617     1.0  0.69962  0.96922  0.88806  1.0000
  H   H4447     1.0  0.66685  0.76486  0.84255  1.0000
  H   H4448     1.0  0.72579  0.89651  0.90056  1.0000
  H   H4449     1.0  0.72842  0.93778  0.84749  1.0000
  H   H4450     1.0  0.90800  0.77139  0.74282  1.0000
  H   H4451     1.0  0.92335  0.71715  0.77841  1.0000
  C   C2618     1.0  0.92765  0.56277  0.95674  1.0000
  H   H4452     1.0  0.70314  0.53447  0.86690  1.0000
  H   H4453     1.0  0.80550  0.75776  0.75589  1.0000
  H   H4454     1.0  0.77425  0.70152  0.74184  1.0000
  N   N183      1.0  0.77114  0.73326  0.74416  1.0000
  C   C2619     1.0  0.74847  0.73495  0.74793  1.0000
  H   H4455     1.0  0.94388  0.95968  0.85409  1.0000
  H   H4456     1.0  0.79677  0.70916  0.74471  1.0000
  C   C2620     1.0  0.77825  0.74675  0.75356  1.0000
  C   C2621     1.0  0.73648  0.75584  0.74272  1.0000
  C   C2622     1.0  0.90170  0.97830  0.90024  1.0000
  N   N184      1.0  0.66340  0.52417  0.87274  1.0000
  C   C2623     1.0  0.80119  0.74332  0.75423  1.0000
  H   H4457     1.0  0.94910  0.96413  0.89245  1.0000
  H   H4458     1.0  0.74378  0.73153  0.76088  1.0000
  H   H4459     1.0  0.87030  0.73767  0.74816  1.0000
  C   C2624     1.0  0.69771  0.49536  0.91425  1.0000
  H   H4460     1.0  0.82165  0.88940  0.79369  1.0000
  H   H4461     1.0  0.95251  0.77456  0.87047  1.0000
  H   H4462     1.0  0.77393  0.76300  0.74892  1.0000
  H   H4463     1.0  0.77071  0.74466  0.76598  1.0000
  H   H4464     1.0  0.65472  0.49240  0.85963  1.0000
  C   C2625     1.0  0.67358  0.60599  0.77350  1.0000
  C   C2626     1.0  0.81783  0.94922  0.74890  1.0000
  H   H4465     1.0  0.71587  0.57146  0.76796  1.0000
  C   C2627     1.0  0.92728  0.77684  0.85765  1.0000
  H   H4466     1.0  0.93269  0.79465  0.87397  1.0000
  H   H4467     1.0  0.78449  0.68697  0.76788  1.0000
  C   C2628     1.0  0.74709  0.91889  0.86412  1.0000
  C   C2629     1.0  0.96717  0.81071  0.86090  1.0000
  Fe  Fe382     1.0  0.65923  0.68043  0.76467  1.0000
  H   H4468     1.0  0.76621  0.52075  0.90072  1.0000
  H   H4469     1.0  0.80492  0.73261  0.76488  1.0000
  C   C2630     1.0  0.67715  0.76076  0.83185  1.0000
  H   H4470     1.0  0.81037  0.91867  0.80221  1.0000
  H   H4471     1.0  0.69453  0.54547  0.77557  1.0000
  H   H4472     1.0  0.98226  0.80145  0.86125  1.0000
  C   C2631     1.0  0.91337  0.95074  0.87449  1.0000
  C   C2632     1.0  0.84073  0.92562  0.79674  1.0000
  H   H4473     1.0  0.80145  0.95114  0.74827  1.0000
  H   H4474     1.0  0.96719  0.94147  0.87218  1.0000
  H   H4475     1.0  0.66389  0.58787  0.79620  1.0000
  H   H4476     1.0  0.72920  0.92227  0.89451  1.0000
  H   H4477     1.0  0.74954  0.50255  0.90311  1.0000
  H   H4478     1.0  0.91517  0.84107  0.84495  1.0000
  C   C2633     1.0  0.65722  0.59836  0.78659  1.0000
  C   C2634     1.0  0.92419  0.54264  0.96016  1.0000
  H   H4479     1.0  0.98417  0.65281  0.85397  1.0000
  H   H4480     1.0  0.92230  0.93812  0.86847  1.0000
  H   H4481     1.0  0.90620  0.94339  0.88604  1.0000
  H   H4482     1.0  0.75969  0.70095  0.76975  1.0000
  H   H4483     1.0  0.71168  0.68641  0.72344  1.0000
  C   C2635     1.0  0.73362  0.92141  0.85096  1.0000
  H   H4484     1.0  0.82595  0.93676  0.74242  1.0000
  H   H4485     1.0  0.67775  0.96464  0.90916  1.0000
  C   C2636     1.0  0.66522  0.72012  0.83448  1.0000
  H   H4486     1.0  0.94975  0.82749  0.83501  1.0000
  C   C2637     1.0  0.72010  0.96949  0.88182  1.0000
  C   C2638     1.0  0.89627  0.95996  0.86466  1.0000
  C   C2639     1.0  0.77764  0.74003  0.72683  1.0000
  H   H4487     1.0  0.88684  0.94818  0.86452  1.0000
  C   C2640     1.0  0.73444  0.96528  0.89218  1.0000
  N   N185      1.0  0.95413  0.80103  0.85268  1.0000
  H   H4488     1.0  0.91501  0.78807  0.85297  1.0000
  H   H4489     1.0  0.78126  0.95881  0.77271  1.0000
  H   H4490     1.0  0.88835  0.74548  0.73147  1.0000
  H   H4491     1.0  0.71990  0.91415  0.85412  1.0000
  C   C2641     1.0  0.67355  0.53503  0.88231  1.0000
  H   H4492     1.0  0.72353  0.60554  0.76437  1.0000
  S   S764      1.0  0.72705  0.97544  0.86109  1.0000
  H   H4493     1.0  0.67789  0.74867  0.81036  1.0000
  H   H4494     1.0  0.98162  0.63817  0.83105  1.0000
  C   C2642     1.0  0.72682  0.90853  0.89007  1.0000
  H   H4495     1.0  0.88618  0.80302  0.75177  1.0000
  C   C2643     1.0  0.66608  0.75405  0.81994  1.0000
  H   H4496     1.0  0.81078  0.73862  0.74344  1.0000
  H   H4497     1.0  0.67848  0.71472  0.82593  1.0000
  H   H4498     1.0  0.67884  0.55859  0.79080  1.0000
  H   H4499     1.0  0.93483  0.76752  0.84842  1.0000
  H   H4500     1.0  0.66847  0.54642  0.85190  1.0000
  H   H4501     1.0  0.96589  0.92945  0.89210  1.0000
  N   N186      1.0  0.65248  0.73824  0.82654  1.0000
  H   H4502     1.0  0.69803  0.51044  0.91664  1.0000
  C   C2644     1.0  0.70575  0.91420  0.88489  1.0000
  H   H4503     1.0  0.74275  0.72342  0.74285  1.0000
  H   H4504     1.0  0.66533  0.56935  0.76703  1.0000
  C   C2645     1.0  0.78013  0.71144  0.74839  1.0000
  C   C2646     1.0  0.70905  0.48879  0.90039  1.0000
  H   H4505     1.0  0.97695  0.77536  0.84786  1.0000
  C   C2647     1.0  0.95653  0.93619  0.88262  1.0000
  H   H4506     1.0  0.86505  0.75737  0.76999  1.0000
  H   H4507     1.0  0.91007  0.73121  0.79427  1.0000
  N   N187      1.0  0.81598  0.92774  0.77671  1.0000
  C   C2648     1.0  0.82229  0.94629  0.76608  1.0000
  C   C2649     1.0  0.81873  0.92923  0.79337  1.0000
  C   C2650     1.0  0.79417  0.92631  0.77646  1.0000
  C   C2651     1.0  0.82876  0.90924  0.77086  1.0000
  H   H4508     1.0  0.77758  0.48834  0.91796  1.0000
  N   N188      1.0  0.68696  0.59024  0.76452  1.0000
  H   H4509     1.0  0.70468  0.54927  0.79234  1.0000
  C   C2652     1.0  0.82517  0.88870  0.78086  1.0000
  H   H4510     1.0  0.80237  0.48289  0.87889  1.0000
  H   H4511     1.0  0.83880  0.94625  0.76536  1.0000
  H   H4512     1.0  0.89059  0.96839  0.89961  1.0000
  H   H4513     1.0  0.75021  0.96570  0.88758  1.0000
  H   H4514     1.0  0.79181  0.92342  0.76469  1.0000
  H   H4515     1.0  0.78958  0.91300  0.78481  1.0000
  H   H4516     1.0  0.82594  0.90804  0.75882  1.0000
  H   H4517     1.0  0.84517  0.91031  0.76917  1.0000
  N   N189      1.0  0.92690  0.96497  0.87703  1.0000
  H   H4518     1.0  0.95926  0.78186  0.83424  1.0000
  C   C2653     1.0  0.67489  0.57811  0.75762  1.0000
  H   H4519     1.0  0.81513  0.96030  0.77108  1.0000
  S   S765      1.0  0.96760  0.50592  0.88207  1.0000
  C   C2654     1.0  0.87368  0.72789  0.78240  1.0000
  H   H4520     1.0  0.68272  0.61383  0.77932  1.0000
  H   H4521     1.0  0.69944  0.55003  0.88208  1.0000
  C   C2655     1.0  0.77883  0.94476  0.78094  1.0000
  H   H4522     1.0  0.81275  0.88272  0.77715  1.0000
  H   H4523     1.0  0.93123  0.83968  0.85949  1.0000
  H   H4524     1.0  0.91390  0.82151  0.86151  1.0000
  S   S766      1.0  0.65472  0.65573  0.78525  1.0000
  H   H4525     1.0  0.66589  0.61817  0.76527  1.0000
  C   C2656     1.0  0.69353  0.96488  0.90450  1.0000
  C   C2657     1.0  0.72836  0.96098  0.90861  1.0000
  Fe  Fe383     1.0  0.80381  0.97510  0.84922  1.0000
  C   C2658     1.0  0.96797  0.78844  0.84127  1.0000
  H   H4526     1.0  0.86137  0.72927  0.79255  1.0000
  H   H4527     1.0  0.84929  0.49869  0.84638  1.0000
  H   H4528     1.0  0.97032  0.82561  0.85414  1.0000
  H   H4529     1.0  0.69806  0.49359  0.74234  1.0000
  H   H4530     1.0  0.88145  0.77178  0.74629  1.0000
  H   H4531     1.0  0.70464  0.58448  0.78391  1.0000
  C   C2659     1.0  0.74094  0.88284  0.87255  1.0000
  H   H4532     1.0  0.72690  0.88478  0.86727  1.0000
  C   C2660     1.0  0.98313  0.79960  0.82901  1.0000
  S   S767      1.0  0.81472  0.95952  0.82775  1.0000
  H   H4533     1.0  0.82319  0.96337  0.74247  1.0000
  H   H4534     1.0  0.71800  0.49879  0.89218  1.0000
  H   H4535     1.0  0.93583  0.73260  0.78710  1.0000
  C   C2661     1.0  0.69986  0.60111  0.75093  1.0000
  C   C2662     1.0  0.94071  0.95358  0.88859  1.0000
  H   H4536     1.0  0.77678  0.89411  0.87655  1.0000
  H   H4537     1.0  0.70937  0.59010  0.74349  1.0000
  H   H4538     1.0  0.76507  0.92850  0.88796  1.0000
  H   H4539     1.0  0.76667  0.50704  0.88479  1.0000
  H   H4540     1.0  0.72431  0.61923  0.74481  1.0000
  H   H4541     1.0  0.70529  0.62785  0.76000  1.0000
  H   H4542     1.0  0.92926  0.75217  0.76232  1.0000
  N   N190      1.0  0.74418  0.90203  0.87774  1.0000
  N   N191      1.0  0.86042  0.59119  0.85425  1.0000
  C   C2663     1.0  0.86832  0.61098  0.84834  1.0000
  C   C2664     1.0  0.87830  0.57451  0.85465  1.0000
  C   C2665     1.0  0.84883  0.59105  0.87070  1.0000
  C   C2666     1.0  0.84643  0.58821  0.84338  1.0000
  C   C2667     1.0  0.85233  0.63020  0.84800  1.0000
  C   C2668     1.0  0.88875  0.56863  0.83849  1.0000
  C   C2669     1.0  0.85967  0.59746  0.88287  1.0000
  C   C2670     1.0  0.83759  0.56814  0.84738  1.0000
  H   H4543     1.0  0.87985  0.61302  0.85545  1.0000
  H   H4544     1.0  0.87645  0.61107  0.83608  1.0000
  H   H4545     1.0  0.87423  0.56044  0.86229  1.0000
  H   H4546     1.0  0.89020  0.57878  0.86024  1.0000
  H   H4547     1.0  0.83391  0.60088  0.87062  1.0000
  H   H4548     1.0  0.84511  0.57562  0.87559  1.0000
  H   H4549     1.0  0.83307  0.60030  0.84362  1.0000
  H   H4550     1.0  0.85351  0.59004  0.83076  1.0000
  H   H4551     1.0  0.86021  0.64370  0.84476  1.0000
  H   H4552     1.0  0.84248  0.63100  0.83887  1.0000
  H   H4553     1.0  0.84297  0.63159  0.85964  1.0000
  H   H4554     1.0  0.90239  0.55731  0.84034  1.0000
  H   H4555     1.0  0.87893  0.56134  0.83291  1.0000
  H   H4556     1.0  0.89388  0.58172  0.83028  1.0000
  H   H4557     1.0  0.85123  0.59398  0.89491  1.0000
  H   H4558     1.0  0.86036  0.61393  0.88070  1.0000
  H   H4559     1.0  0.87516  0.58917  0.88294  1.0000
  H   H4560     1.0  0.82376  0.56942  0.85628  1.0000
  H   H4561     1.0  0.84841  0.55522  0.85189  1.0000
  H   H4562     1.0  0.83387  0.56398  0.83647  1.0000
  H   H4563     1.0  0.90600  0.79282  0.76323  1.0000
  H   H4564     1.0  0.93194  0.94665  0.89959  1.0000
  H   H4565     1.0  0.75771  0.91284  0.90634  1.0000
  H   H4566     1.0  0.97542  0.81097  0.82037  1.0000
  C   C2671     1.0  0.76313  0.89695  0.88550  1.0000
  H   H4567     1.0  0.83918  0.87756  0.77946  1.0000
  H   H4568     1.0  0.70092  0.90175  0.88040  1.0000
  H   H4569     1.0  0.84984  0.93646  0.78896  1.0000
  C   C2672     1.0  0.66864  0.65149  0.72796  1.0000
  H   H4570     1.0  0.73877  0.87090  0.88299  1.0000
  H   H4571     1.0  0.70485  0.92824  0.87618  1.0000
  H   H4572     1.0  0.90335  0.71871  0.76053  1.0000
  H   H4573     1.0  0.88014  0.78926  0.77096  1.0000
  H   H4574     1.0  0.68986  0.74901  0.83522  1.0000
  C   C2673     1.0  0.92440  0.83040  0.85310  1.0000
  C   C2674     1.0  0.69404  0.55643  0.78385  1.0000
  C   C2675     1.0  0.94210  0.78686  0.86439  1.0000
  H   H4575     1.0  0.81197  0.94445  0.79653  1.0000
  H   H4576     1.0  0.91995  0.76641  0.86735  1.0000
  H   H4577     1.0  0.69455  0.91771  0.89537  1.0000
  H   H4578     1.0  0.87908  0.75729  0.78527  1.0000
  H   H4579     1.0  0.68526  0.56661  0.75114  1.0000
  Fe  Fe384     1.0  0.97295  0.69795  0.86163  1.0000
  H   H4580     1.0  0.77191  0.86725  0.86603  1.0000
  C   C2676     1.0  0.76734  0.91308  0.89462  1.0000
  C   C2677     1.0  0.65584  0.53956  0.85952  1.0000
  H   H4581     1.0  0.96997  0.82258  0.88208  1.0000
  H   H4582     1.0  0.75328  0.86116  0.85616  1.0000
  N   N192      1.0  0.89751  0.75059  0.76331  1.0000
  C   C2678     1.0  0.89483  0.77047  0.75240  1.0000
  C   C2679     1.0  0.90184  0.73385  0.75322  1.0000
  C   C2680     1.0  0.91565  0.75029  0.77131  1.0000
  C   C2681     1.0  0.87862  0.74927  0.77523  1.0000
  C   C2682     1.0  0.89166  0.78981  0.76026  1.0000
  C   C2683     1.0  0.88604  0.73418  0.74225  1.0000
  C   C2684     1.0  0.92125  0.73152  0.78333  1.0000
  H   H4583     1.0  0.94426  0.82202  0.88023  1.0000
  H   H4584     1.0  0.67993  0.48384  0.85176  1.0000
  H   H4585     1.0  0.73836  0.75999  0.72968  1.0000
  H   H4586     1.0  0.67941  0.52443  0.89230  1.0000
  H   H4587     1.0  0.97343  0.62031  0.86193  1.0000
  H   H4588     1.0  0.93619  0.58757  0.96554  1.0000
  H   H4589     1.0  0.68921  0.50079  0.87488  1.0000
  H   H4590     1.0  0.67151  0.72417  0.84435  1.0000
  H   H4591     1.0  0.68823  0.51363  0.85543  1.0000
  H   H4592     1.0  0.77258  0.75649  0.72364  1.0000
  H   H4593     1.0  0.88598  0.97252  0.86978  1.0000
  C   C2685     1.0  0.67862  0.50742  0.86627  1.0000
  H   H4594     1.0  0.79437  0.73820  0.72396  1.0000
  H   H4595     1.0  0.65742  0.76815  0.81435  1.0000
  H   H4596     1.0  0.65383  0.51008  0.90765  1.0000
  H   H4597     1.0  0.66611  0.68916  0.84624  1.0000
  S   S768      1.0  0.66995  0.49287  0.94114  1.0000
  H   H4598     1.0  0.65827  0.72519  0.80488  1.0000
  H   H4599     1.0  0.66901  0.59633  0.73466  1.0000
  C   C2686     1.0  0.67033  0.48924  0.86236  1.0000
  C   C2687     1.0  0.78136  0.48970  0.90483  1.0000
  H   H4600     1.0  0.65578  0.52115  0.84098  1.0000
  H   H4601     1.0  0.79551  0.49660  0.90173  1.0000
  H   H4602     1.0  0.66360  0.48996  0.89590  1.0000
  C   C2688     1.0  0.76492  0.50572  0.89784  1.0000
  H   H4603     1.0  0.68842  0.97240  0.88012  1.0000
  H   H4604     1.0  0.66251  0.54697  0.88781  1.0000
  H   H4605     1.0  0.96077  0.79892  0.88616  1.0000
  H   H4606     1.0  0.98538  0.59434  0.88274  1.0000
  H   H4607     1.0  0.75365  0.73059  0.71653  1.0000
  H   H4608     1.0  0.71599  0.66289  0.71637  1.0000
