data_image0
_chemical_formula_structural       HCFeHSHNHS2FeS2FeS2FeSFeS4CSH4FeS2FeS2FeSFeS3C3HC2H3C6H4C6H4C2HC6H4C6H2CHC7H4NC8H13CH7CH12CH5C2FeH7CH2CHCH3C2H2CH4CH3CH3CHNC6FeCH16CH3NCHC2H6CH2C2H2CH7C2NH2C3NHSH5CH6CHSNHSHC2H2C3H2CH3CH2CH3SFe2S2FeS2FeSFeS3CH4CFeHSHCHS2FeS2FeS2FeHFeS3C6H4CH3C5NH2CHC6H3SC6H4C6H4C6H4NC2NC3HNH5CH2SH2CH9CNH3C4H4SH2CHCHCH2CSCH6SH2CH2SH5C2HCH4C2H2CH3CH3NH2CSHCFeH2SHFeH6C2H3CHCSH3CH2CHC5HCHCH4CHFeH4C2H2FeHNHCH3CH5CSHCH7C2H4CFe2S2FeS2FeS2FeSFeS3HCHSHSCSHFe2SH2FeS2FeS2FeSFeS3H2C6H5C9H4C4H4C6H4C6HCH2C6H2CH5CH5C2HCH5NC8H20CH4CH2CH3C3H6CH4CH9CFeC2HC2H9CH8C2H3C2H3CHCSH7N2C3HC2HCH2SH4CH2CH2CHC2HCHCNHCSFeHC2H4NH2NHCH4CH4SCH3FeS2FeS2FeSFeS3H2SFeHSFeH4S2FeS2FeS2FeSFeS3H2C6H3C8H4C6H4C6H4C6H4C6H5NC8H21CHCH2C2H3CH6CH3SHCH4CH7NH2SHSC2HC3FeH4CH2CHCH2C3H4NH2CH2C3H2CH3CHSH3CHNH4C2H2NH8C2SNHC2H2CH2C2SH2C2HFeH5CH4FeHCFeHSHCH2CH3CHCHCNCH3C2HCH3CHCFeS2FeS2FeSFeS3FeS2FeS2FeSFeS4HSH2S2HCH4CHC3H5C6H6C6H4C6H4C6H7CH3CHCHNH2C2H6CH5CNC8H20NC6H8SH4CFeHFeH3C5HCHCH2FeHCHC2H2CH7CHCH2FeSH2SCFeS2FeS2FeHFeS3FeS2FeS2FeSFeS4H6C3H5C6H4C6H5C7H4C6H7CH5NH2CHCHCH3CH6CH4CHCH4NCHCSCHCHSNCH2CH3C2H4CH2CHC2H2CH4C3H3NH2CHCHCHCHCH5NCH2CHCSH2CH2C2H2SH3CH2CH3C3HFeH4FeCH3CHCHCH7CS2HC2FeS2FeS2FeSFeS3FeS2FeSHFeSFeS3H4CSHC3H2CH2NHC6H4C6H4C6H4C6H7C2NH2CHCH3CH11CH2CHCH2C2HCNFeHCHC4H7CH5CH4C3H3CH7CHCHCH4C2SH2SCHCHC3H11C2HSH2SHNHCFeHCHFeHCH2CH2C2HNH3CH2SHSCFeS2FeSCFeSFeS3FeS2FeSHFeSFeS4CHC2HFeHCHCH2C6H4C6H4C6H4C6H3CH3NH6C2H6CHC2H4CH6CH3C2HCHCH4NH2CHNHC2H3CH4CHC4SHC2HSHCH5NH2NC4HC3H21FeNH2C2HC2H2CNH3CHCH2CHC2HS2H5CH2C2H2CHCH9C2H3C2H3CH3FeSH2S2FeSHFeS2FeSFeS3FeSHFeS2FeSFeS3HC6H4C6H4C6H4C6H4C6H4CHSH11CSH2CSH10C2HFeH9CHCHCHC2HCH3C2H2CH3C2H3NH2CHNH2NC4H6SH7C3H4CHCH5C2H3C2NC8H7FeHCHCSH3CHCH2CH6CH4CHSHCHSFeSHFeS2FeSFeS3FeSHFeS2FeSFeS3HC3HC2H4C6H4C6H4C6H4C6H5SHFeH4SHCH5CHCH4C2H5NH10CH5CH6CHCH12C2HCH2C2HCH2CH2C3HSCH3N2C3H2SNH2C2H2C3H3CHCHFeC5H3CSHCHCHNH3CH2CH4CH2CHCH3CH2NHFeCH3SHC3HFeS2FeS2FeSFeS3FeS2FeS2FeSFeS3CFeHSHSHC3HC2H3C6H4C6H4C6H4C6H4FeCNCHCFeH5CH3NC2HCH3CH7C2HCH3CH6CH5CH4NH2C2HCH10NC5H9CHCHCH2C2H4CH4C4HSH2NH2NHC3HCHC2H4CH4CH3SC3HNCH2C2HCHCH6CH5CH3CHC4NHCHCHCH2SH8CH2CH4NFeS2FeSCFeSFeS3FeS2FeS2FeSFeS3HC3HC2HFeCHC6H4C6H4C6H4C6H4CHCH2CH3CH5CH6SH6C3HC2H6CH2CH3SH2C2H2CH2SH5CH2CHCH2FeCHCH2NH3CNHFeHCH2CH2CHNH2C2SH2CHCHCH4C3H3C2HCH3C2H2SH2CH8CHNSH5C2H3FeS2FeS2FeSFeS3FeS3HSH2SFeSHCHFeS2FeS2FeHFeS3C6H4C6H3C6H4C6H4C6H5C2H3C4H3CH3CH4CHCHSCH9FeH2SH2CSH3CNC8H22CHC2H5NHFeHC2HCHCFeHCHCH5NC4HCHCH12CHCH10CH3CHNC2H2CHC2H3CH2CH6CN2C2H3CSCH2C4SHCH7NHC2HCH2SNFeS2FeS2FeSFeS3H4SH2SHFeSH2FeS2FeS2FeHFeS4C7H4C6H4C6H4C6H4C6H4C2HC6H4C3H8C3H8CH14CNH6CHCH2C2HC2NC2H2CNHCH2CH3C2HCHFeHCHC4NH6CH9CH2C2SCH2FeNC2H7C2H3CHCHC3HCHCHCH2SH2CFeCHCH3CH7CHCH2CH2CSH3SH2CSCSH4NCHFeHS2NSFe2SH2FeSHFeS2FeSFeS4FeS2FeS2FeSFeS3CSC2H2C6H4C6H4C6H4C6HCHCHC6H5CH2C5H5NC8H19CH2CH2CHCHSCH4CHCSCH6CH2FeH2CH3CH15NHCHC4H2CH2NCHCH2NC3H5SH2FeH2CH7CH3CH8N2CH3CHCH4CFeCSH8CHC2H3CHCH2CH2C2H2CH3CH4SH3C2FeS2FeS2FeSFeS3HC2HCSHFeSFeSH3FeS2FeS2FeSFeHS2C6H4C6H3C6H4C6H4C6H4C3HCHCSC4H3NCH2C2H2CH13FeCH4CH2C2HNH3C2HCH3NC8H14SH5C2H4C2H4SHCHNC8H19SHCHC2HSNCSHSH2SH9C2SH3C2H2CHCH3FeCH3FeHSH10CHC2H3CH6C
_chemical_formula_sum              "H2304 C1344 Fe192 S384 N96"
_cell_length_a       52.5356
_cell_length_b       35.8209
_cell_length_c       101.564
_cell_angle_alpha    88.9037
_cell_angle_beta     96.9099
_cell_angle_gamma    88.186

_space_group_name_H-M_alt    "P 1"
_space_group_IT_number       1

loop_
  _space_group_symop_operation_xyz
  'x, y, z'

loop_
  _atom_site_type_symbol
  _atom_site_label
  _atom_site_symmetry_multiplicity
  _atom_site_fract_x
  _atom_site_fract_y
  _atom_site_fract_z
  _atom_site_occupancy
  H   H1        1.0  0.25382  0.22426  0.22632  1.0000
  C   C1        1.0  0.07224  0.37164  0.18255  1.0000
  Fe  Fe1       1.0  0.35152  0.11854  0.22221  1.0000
  H   H2        1.0  0.01270  0.37601  0.10099  1.0000
  S   S1        1.0  0.32079  0.15933  0.21194  1.0000
  H   H3        1.0  0.11953  0.42594  0.18096  1.0000
  N   N1        1.0  0.00376  0.30305  0.08905  1.0000
  H   H4        1.0  0.24703  0.51232  0.19402  1.0000
  S   S2        1.0  0.39414  0.10710  0.22233  1.0000
  S   S3        1.0  0.34233  0.05748  0.22182  1.0000
  Fe  Fe2       1.0  0.30349  0.44456  0.17258  1.0000
  S   S4        1.0  0.26045  0.44889  0.17218  1.0000
  S   S5        1.0  0.33360  0.48880  0.17052  1.0000
  Fe  Fe3       1.0  0.30475  0.35881  0.17702  1.0000
  S   S6        1.0  0.26208  0.35664  0.17683  1.0000
  S   S7        1.0  0.33378  0.31002  0.17988  1.0000
  Fe  Fe4       1.0  0.25977  0.39730  0.15948  1.0000
  S   S8        1.0  0.22844  0.39290  0.14191  1.0000
  Fe  Fe5       1.0  0.26586  0.40762  0.18940  1.0000
  S   S9        1.0  0.25087  0.40789  0.20944  1.0000
  S   S10       1.0  0.30235  0.39587  0.15868  1.0000
  S   S11       1.0  0.30888  0.40691  0.19072  1.0000
  S   S12       1.0  0.14331  0.47635  0.22160  1.0000
  C   C2        1.0  0.01581  0.23152  0.05123  1.0000
  S   S13       1.0  0.24539  0.45832  0.02223  1.0000
  H   H5        1.0  0.00246  0.34361  0.23731  1.0000
  H   H6        1.0  0.10679  0.41632  0.21696  1.0000
  H   H7        1.0  0.25517  0.48392  0.22131  1.0000
  H   H8        1.0  0.06196  0.19485  0.02985  1.0000
  Fe  Fe6       1.0  0.18838  0.27374  0.07755  1.0000
  S   S14       1.0  0.15153  0.30794  0.07566  1.0000
  S   S15       1.0  0.22089  0.27718  0.09459  1.0000
  Fe  Fe7       1.0  0.17471  0.23801  0.05018  1.0000
  S   S16       1.0  0.13730  0.27110  0.04647  1.0000
  S   S17       1.0  0.18363  0.20414  0.03241  1.0000
  Fe  Fe8       1.0  0.15971  0.31954  0.05469  1.0000
  S   S18       1.0  0.15384  0.37772  0.04534  1.0000
  Fe  Fe9       1.0  0.13262  0.25613  0.06752  1.0000
  S   S19       1.0  0.09680  0.23122  0.07435  1.0000
  S   S20       1.0  0.19744  0.28786  0.05694  1.0000
  S   S21       1.0  0.16916  0.22047  0.07096  1.0000
  C   C3        1.0  0.06596  0.23155  0.06509  1.0000
  C   C4        1.0  0.04657  0.21121  0.07004  1.0000
  C   C5        1.0  0.02160  0.21127  0.06318  1.0000
  H   H9        1.0  0.07322  0.44534  0.18607  1.0000
  C   C6        1.0  0.03538  0.25110  0.04612  1.0000
  C   C7        1.0  0.06028  0.25142  0.05306  1.0000
  H   H10       1.0  0.05093  0.19514  0.07921  1.0000
  H   H11       1.0  0.23061  0.20671  0.13144  1.0000
  H   H12       1.0  0.07503  0.26709  0.04910  1.0000
  C   C8        1.0  0.20252  0.07924  0.02769  1.0000
  C   C9        1.0  0.20130  0.09343  0.04044  1.0000
  C   C10       1.0  0.19508  0.13152  0.04215  1.0000
  C   C11       1.0  0.18937  0.15545  0.03107  1.0000
  C   C12       1.0  0.18966  0.14092  0.01835  1.0000
  C   C13       1.0  0.19650  0.10319  0.01665  1.0000
  H   H13       1.0  0.20584  0.07503  0.04903  1.0000
  H   H14       1.0  0.19506  0.14239  0.05202  1.0000
  H   H15       1.0  0.18498  0.15916  0.00973  1.0000
  H   H16       1.0  0.19702  0.09257  0.00679  1.0000
  C   C14       1.0  0.21884  0.43499  0.02715  1.0000
  C   C15       1.0  0.22272  0.39880  0.03270  1.0000
  C   C16       1.0  0.20259  0.38033  0.03771  1.0000
  C   C17       1.0  0.17856  0.39834  0.03760  1.0000
  C   C18       1.0  0.17455  0.43439  0.03188  1.0000
  C   C19       1.0  0.19455  0.45256  0.02655  1.0000
  H   H17       1.0  0.24144  0.38502  0.03315  1.0000
  H   H18       1.0  0.20589  0.35250  0.04189  1.0000
  H   H19       1.0  0.15602  0.44855  0.03174  1.0000
  H   H20       1.0  0.19141  0.48059  0.02238  1.0000
  C   C20       1.0  0.32202  0.48033  0.21900  1.0000
  C   C21       1.0  0.02996  0.40626  0.21835  1.0000
  H   H21       1.0  0.04404  0.42772  0.21920  1.0000
  C   C22       1.0  0.22699  0.36108  0.12865  1.0000
  C   C23       1.0  0.24827  0.33908  0.12613  1.0000
  C   C24       1.0  0.24616  0.31421  0.11547  1.0000
  C   C25       1.0  0.22277  0.31061  0.10734  1.0000
  C   C26       1.0  0.20163  0.33313  0.10970  1.0000
  C   C27       1.0  0.20381  0.35834  0.12025  1.0000
  H   H22       1.0  0.26637  0.34159  0.13231  1.0000
  H   H23       1.0  0.26275  0.29765  0.11344  1.0000
  H   H24       1.0  0.18350  0.33075  0.10354  1.0000
  H   H25       1.0  0.18728  0.37543  0.12205  1.0000
  C   C28       1.0  0.22077  0.42689  0.21250  1.0000
  C   C29       1.0  0.20581  0.45015  0.20321  1.0000
  C   C30       1.0  0.18240  0.46589  0.20627  1.0000
  C   C31       1.0  0.17364  0.45810  0.21855  1.0000
  C   C32       1.0  0.18857  0.43471  0.22781  1.0000
  C   C33       1.0  0.21214  0.41942  0.22482  1.0000
  H   H26       1.0  0.21238  0.45629  0.19373  1.0000
  H   H27       1.0  0.28451  0.10635  0.22947  1.0000
  C   C34       1.0  0.02400  0.29817  0.10085  1.0000
  H   H28       1.0  0.28091  0.45967  0.23191  1.0000
  C   C35       1.0  0.02539  0.38593  0.22967  1.0000
  C   C36       1.0  0.33094  0.27091  0.19046  1.0000
  C   C37       1.0  0.30771  0.26306  0.19517  1.0000
  C   C38       1.0  0.30510  0.22905  0.20199  1.0000
  C   C39       1.0  0.32584  0.20305  0.20445  1.0000
  C   C40       1.0  0.34931  0.21145  0.20012  1.0000
  C   C41       1.0  0.35174  0.24507  0.19302  1.0000
  H   H29       1.0  0.29154  0.28266  0.19320  1.0000
  H   H30       1.0  0.28685  0.22268  0.20526  1.0000
  H   H31       1.0  0.36534  0.19152  0.20187  1.0000
  H   H32       1.0  0.36971  0.25080  0.18931  1.0000
  N   N2        1.0  0.10374  0.14315  0.03978  1.0000
  C   C42       1.0  0.07913  0.13719  0.03092  1.0000
  C   C43       1.0  0.12403  0.11557  0.03631  1.0000
  C   C44       1.0  0.11311  0.18204  0.03792  1.0000
  C   C45       1.0  0.09872  0.13796  0.05401  1.0000
  C   C46       1.0  0.05698  0.16584  0.03218  1.0000
  C   C47       1.0  0.11896  0.07396  0.03872  1.0000
  C   C48       1.0  0.11556  0.19435  0.02347  1.0000
  C   C49       1.0  0.12253  0.13745  0.06449  1.0000
  H   H33       1.0  0.08250  0.13657  0.02031  1.0000
  H   H34       1.0  0.07148  0.10937  0.03301  1.0000
  H   H35       1.0  0.14306  0.12148  0.04178  1.0000
  H   H36       1.0  0.12673  0.11835  0.02564  1.0000
  H   H37       1.0  0.10068  0.20325  0.04218  1.0000
  H   H38       1.0  0.13250  0.18496  0.04349  1.0000
  H   H39       1.0  0.08577  0.16082  0.05685  1.0000
  H   H40       1.0  0.08839  0.11179  0.05539  1.0000
  H   H41       1.0  0.25201  0.15753  0.23274  1.0000
  H   H42       1.0  0.26137  0.20736  0.04528  1.0000
  H   H43       1.0  0.27778  0.09517  0.02406  1.0000
  H   H44       1.0  0.13584  0.05697  0.03635  1.0000
  H   H45       1.0  0.23424  0.48984  0.05813  1.0000
  C   C50       1.0  0.28675  0.50389  0.20284  1.0000
  H   H46       1.0  0.12262  0.22323  0.02342  1.0000
  H   H47       1.0  0.09696  0.19504  0.01704  1.0000
  H   H48       1.0  0.12988  0.17678  0.01902  1.0000
  H   H49       1.0  0.13568  0.11307  0.06358  1.0000
  H   H50       1.0  0.11620  0.13565  0.07453  1.0000
  H   H51       1.0  0.13319  0.16345  0.06408  1.0000
  H   H52       1.0  0.08032  0.36759  0.22529  1.0000
  C   C51       1.0  0.29760  0.25684  0.14108  1.0000
  H   H53       1.0  0.28007  0.18532  0.17330  1.0000
  H   H54       1.0  0.14676  0.39508  0.21190  1.0000
  H   H55       1.0  0.33622  0.47505  0.19937  1.0000
  H   H56       1.0  0.32781  0.29463  0.13747  1.0000
  H   H57       1.0  0.23665  0.23830  0.16347  1.0000
  H   H58       1.0  0.01108  0.32258  0.05573  1.0000
  H   H59       1.0  0.30638  0.23575  0.13489  1.0000
  H   H60       1.0  0.09494  0.48164  0.18379  1.0000
  H   H61       1.0  0.27660  0.18896  0.13989  1.0000
  H   H62       1.0  0.35824  0.49659  0.21174  1.0000
  H   H63       1.0  0.03506  0.24062  0.09526  1.0000
  H   H64       1.0  0.25087  0.48088  0.07421  1.0000
  C   C52       1.0  0.25240  0.19763  0.02423  1.0000
  H   H65       1.0  0.07790  0.41016  0.20680  1.0000
  H   H66       1.0  0.10271  0.33541  0.19249  1.0000
  H   H67       1.0  0.03071  0.33306  0.07849  1.0000
  H   H68       1.0  0.29650  0.15215  0.02084  1.0000
  H   H69       1.0  0.11033  0.34725  0.22235  1.0000
  C   C53       1.0  0.35531  0.50600  0.99336  1.0000
  C   C54       1.0  0.26594  0.21088  0.14489  1.0000
  Fe  Fe10      1.0  0.38485  0.04553  0.22379  1.0000
  H   H70       1.0  0.11138  0.36320  0.17958  1.0000
  H   H71       1.0  0.32123  0.20720  0.15563  1.0000
  H   H72       1.0  0.02919  0.28531  0.07495  1.0000
  H   H73       1.0  0.28558  0.14047  0.00460  1.0000
  H   H74       1.0  0.26067  0.49359  0.23853  1.0000
  H   H75       1.0  0.04019  0.15912  0.02499  1.0000
  H   H76       1.0  0.17752  0.36637  0.19892  1.0000
  C   C55       1.0  0.28098  0.21576  0.00807  1.0000
  H   H77       1.0  0.25310  0.10214  0.01010  1.0000
  H   H78       1.0  0.00696  0.19501  0.06697  1.0000
  C   C56       1.0  0.09137  0.45756  0.19030  1.0000
  H   H79       1.0  0.33416  0.27058  0.15313  1.0000
  C   C57       1.0  0.27851  0.14943  0.01397  1.0000
  H   H80       1.0  0.25716  0.45233  0.06009  1.0000
  H   H81       1.0  0.27988  0.47485  0.20334  1.0000
  H   H82       1.0  0.28323  0.17195  0.23109  1.0000
  C   C58       1.0  0.10053  0.36448  0.18833  1.0000
  C   C59       1.0  0.27131  0.19595  0.03708  1.0000
  H   H83       1.0  0.31062  0.30890  0.15068  1.0000
  H   H84       1.0  0.25578  0.19547  0.15215  1.0000
  C   C60       1.0  0.29723  0.18122  0.16816  1.0000
  H   H85       1.0  0.24434  0.22682  0.02315  1.0000
  H   H86       1.0  0.07062  0.39098  0.17379  1.0000
  H   H87       1.0  0.25299  0.23629  0.12513  1.0000
  H   H88       1.0  0.24356  0.27912  0.17268  1.0000
  C   C61       1.0  0.01619  0.39882  0.20596  1.0000
  H   H89       1.0  0.27754  0.16680  0.04004  1.0000
  H   H90       1.0  0.17099  0.48412  0.19908  1.0000
  H   H91       1.0  0.31322  0.17205  0.17585  1.0000
  C   C62       1.0  0.00630  0.35919  0.22857  1.0000
  H   H92       1.0  0.33175  0.48247  0.22932  1.0000
  H   H93       1.0  0.05045  0.16463  0.04217  1.0000
  H   H94       1.0  0.29816  0.50327  0.19431  1.0000
  C   C63       1.0  0.09231  0.36052  0.21735  1.0000
  H   H95       1.0  0.05071  0.25524  0.11053  1.0000
  N   N3        1.0  0.22741  0.40734  0.07663  1.0000
  C   C64       1.0  0.20362  0.38455  0.07627  1.0000
  C   C65       1.0  0.24740  0.38399  0.07072  1.0000
  C   C66       1.0  0.22039  0.44182  0.06800  1.0000
  C   C67       1.0  0.23567  0.41748  0.09085  1.0000
  C   C68       1.0  0.17959  0.40502  0.08038  1.0000
  C   C69       1.0  0.25441  0.34570  0.07760  1.0000
  Fe  Fe11      1.0  0.24066  0.50230  0.00569  1.0000
  C   C70       1.0  0.26417  0.42675  0.09456  1.0000
  H   H96       1.0  0.19821  0.37362  0.06616  1.0000
  H   H97       1.0  0.20711  0.35937  0.08290  1.0000
  H   H98       1.0  0.26560  0.39858  0.07055  1.0000
  H   H99       1.0  0.24089  0.37871  0.06010  1.0000
  H   H100      1.0  0.21052  0.43390  0.05817  1.0000
  H   H101      1.0  0.20645  0.46032  0.07242  1.0000
  H   H102      1.0  0.22377  0.44154  0.09376  1.0000
  H   H103      1.0  0.23211  0.39390  0.09766  1.0000
  H   H104      1.0  0.17125  0.42567  0.07263  1.0000
  H   H105      1.0  0.16453  0.38451  0.08136  1.0000
  H   H106      1.0  0.18347  0.41857  0.09010  1.0000
  H   H107      1.0  0.23577  0.18075  0.02599  1.0000
  H   H108      1.0  0.11659  0.06737  0.04920  1.0000
  H   H109      1.0  0.23933  0.32544  0.07473  1.0000
  H   H110      1.0  0.22373  0.40165  0.23209  1.0000
  H   H111      1.0  0.28419  0.23990  0.23406  1.0000
  C   C71       1.0  0.99919  0.31867  0.06396  1.0000
  H   H112      1.0  0.26536  0.44873  0.10217  1.0000
  H   H113      1.0  0.27408  0.43731  0.08634  1.0000
  H   H114      1.0  0.27509  0.40217  0.09947  1.0000
  N   N4        1.0  0.11208  0.39232  0.19806  1.0000
  C   C72       1.0  0.13868  0.37779  0.20350  1.0000
  H   H115      1.0  0.08914  0.46918  0.20019  1.0000
  C   C73       1.0  0.11458  0.42972  0.19123  1.0000
  C   C74       1.0  0.15872  0.37612  0.19354  1.0000
  H   H116      1.0  0.08147  0.34035  0.21091  1.0000
  H   H117      1.0  0.29867  0.21568  0.01530  1.0000
  H   H118      1.0  0.13821  0.34898  0.20771  1.0000
  H   H119      1.0  0.10213  0.06464  0.03211  1.0000
  H   H120      1.0  0.25997  0.28771  0.15168  1.0000
  H   H121      1.0  0.13075  0.44514  0.19640  1.0000
  C   C75       1.0  0.01701  0.31004  0.07692  1.0000
  H   H122      1.0  0.06377  0.34468  0.17944  1.0000
  H   H123      1.0  0.48205  0.32262  0.23842  1.0000
  C   C76       1.0  0.09705  0.39681  0.20973  1.0000
  C   C77       1.0  0.31870  0.28406  0.14606  1.0000
  H   H124      1.0  0.31176  0.45355  0.21884  1.0000
  H   H125      1.0  0.31377  0.23548  0.16870  1.0000
  C   C78       1.0  0.26390  0.11584  0.01866  1.0000
  H   H126      1.0  0.25039  0.12320  0.02582  1.0000
  H   H127      1.0  0.16188  0.40388  0.18912  1.0000
  H   H128      1.0  0.37550  0.49862  0.99216  1.0000
  H   H129      1.0  0.03119  0.26631  0.03676  1.0000
  H   H130      1.0  0.05994  0.38228  0.18983  1.0000
  H   H131      1.0  0.30454  0.23425  0.99312  1.0000
  H   H132      1.0  0.25753  0.34735  0.08855  1.0000
  C   C79       1.0  0.24498  0.22809  0.13434  1.0000
  C   C80       1.0  0.04352  0.26518  0.10029  1.0000
  N   N5        1.0  0.26334  0.18592  0.01181  1.0000
  H   H133      1.0  0.28827  0.21307  0.03625  1.0000
  H   H134      1.0  0.28360  0.27366  0.13415  1.0000
  C   C81       1.0  0.24234  0.46706  0.06514  1.0000
  C   C82       1.0  0.27109  0.26766  0.15888  1.0000
  C   C83       1.0  0.30498  0.21678  0.16099  1.0000
  N   N6        1.0  0.28448  0.23779  0.15167  1.0000
  H   H135      1.0  0.47106  0.24185  0.22901  1.0000
  S   S22       1.0  0.21117  0.03153  0.02586  1.0000
  H   H136      1.0  0.35363  0.44746  0.21245  1.0000
  H   H137      1.0  0.01543  0.29629  0.11034  1.0000
  H   H138      1.0  0.03582  0.32336  0.10200  1.0000
  H   H139      1.0  0.23446  0.25228  0.13803  1.0000
  H   H140      1.0  0.27236  0.33415  0.07426  1.0000
  C   C84       1.0  0.25258  0.25430  0.16848  1.0000
  H   H141      1.0  0.28531  0.28485  0.16484  1.0000
  H   H142      1.0  0.29412  0.15791  0.16116  1.0000
  H   H143      1.0  0.01995  0.41443  0.19722  1.0000
  H   H144      1.0  0.06003  0.27368  0.09514  1.0000
  H   H145      1.0  0.26277  0.23818  0.17701  1.0000
  H   H146      1.0  0.15368  0.35599  0.18557  1.0000
  C   C85       1.0  0.34360  0.47496  0.21004  1.0000
  H   H147      1.0  0.29907  0.18537  0.99253  1.0000
  S   S23       1.0  0.27179  0.50071  0.99225  1.0000
  N   N7        1.0  0.30346  0.51318  0.21543  1.0000
  H   H148      1.0  0.22916  0.15824  0.00366  1.0000
  S   S24       1.0  0.27082  0.02295  0.00688  1.0000
  H   H149      1.0  0.27197  0.24416  0.00864  1.0000
  C   C86       1.0  0.28996  0.21294  0.99418  1.0000
  C   C87       1.0  0.45654  0.25420  0.23487  1.0000
  H   H150      1.0  0.21258  0.22276  0.00568  1.0000
  H   H151      1.0  0.00573  0.38251  0.08312  1.0000
  C   C88       1.0  0.24162  0.18093  0.00095  1.0000
  C   C89       1.0  0.28193  0.11695  0.23946  1.0000
  C   C90       1.0  0.27045  0.48685  0.22972  1.0000
  H   H152      1.0  0.43955  0.23634  0.23333  1.0000
  H   H153      1.0  0.18200  0.42851  0.23728  1.0000
  C   C91       1.0  0.22382  0.21565  0.99743  1.0000
  H   H154      1.0  0.45029  0.28253  0.23095  1.0000
  H   H155      1.0  0.34585  0.48236  0.99776  1.0000
  H   H156      1.0  0.23441  0.24027  0.99464  1.0000
  C   C92       1.0  0.26364  0.23773  0.23520  1.0000
  H   H157      1.0  0.08479  0.29434  0.23911  1.0000
  H   H158      1.0  0.25542  0.26670  0.23524  1.0000
  C   C93       1.0  0.27181  0.15788  0.23808  1.0000
  H   H159      1.0  0.24888  0.17124  0.99172  1.0000
  H   H160      1.0  0.31774  0.19466  0.24036  1.0000
  H   H161      1.0  0.28393  0.05172  0.40345  1.0000
  S   S25       1.0  0.21327  0.47628  0.48286  1.0000
  Fe  Fe12      1.0  0.39619  0.10533  0.24467  1.0000
  Fe  Fe13      1.0  0.30239  0.27837  0.43288  1.0000
  S   S26       1.0  0.33359  0.25130  0.44728  1.0000
  S   S27       1.0  0.27103  0.31807  0.43871  1.0000
  Fe  Fe14      1.0  0.31710  0.23319  0.40959  1.0000
  S   S28       1.0  0.34983  0.20315  0.42236  1.0000
  S   S29       1.0  0.31208  0.21535  0.38793  1.0000
  Fe  Fe15      1.0  0.32241  0.19761  0.43755  1.0000
  S   S30       1.0  0.32517  0.14222  0.44900  1.0000
  Fe  Fe16      1.0  0.35918  0.25873  0.43114  1.0000
  S   S31       1.0  0.40026  0.27307  0.43912  1.0000
  S   S32       1.0  0.28903  0.22352  0.42423  1.0000
  S   S33       1.0  0.32851  0.28998  0.41724  1.0000
  C   C94       1.0  0.45340  0.14690  0.26253  1.0000
  H   H162      1.0  0.46133  0.12522  0.24379  1.0000
  H   H163      1.0  0.28722  0.04744  0.42601  1.0000
  H   H164      1.0  0.05766  0.30887  0.24704  1.0000
  H   H165      1.0  0.11111  0.22295  0.27529  1.0000
  C   C95       1.0  0.31808  0.20222  0.25088  1.0000
  Fe  Fe17      1.0  0.12893  0.42579  0.26771  1.0000
  H   H166      1.0  0.25603  0.15526  0.42285  1.0000
  S   S34       1.0  0.15023  0.39058  0.28483  1.0000
  H   H167      1.0  0.29690  0.13728  0.38728  1.0000
  C   C96       1.0  0.22227  0.49620  0.42605  1.0000
  H   H168      1.0  0.30479  0.15506  0.40968  1.0000
  S   S35       1.0  0.13989  0.48331  0.26117  1.0000
  S   S36       1.0  0.08873  0.44524  0.27003  1.0000
  Fe  Fe18      1.0  0.23617  0.12568  0.30655  1.0000
  S   S37       1.0  0.19987  0.11753  0.29288  1.0000
  S   S38       1.0  0.27756  0.11867  0.30277  1.0000
  Fe  Fe19      1.0  0.20887  0.16439  0.32758  1.0000
  S   S39       1.0  0.17024  0.16001  0.31541  1.0000
  S   S40       1.0  0.21114  0.19409  0.34737  1.0000
  Fe  Fe20      1.0  0.18293  0.10082  0.31144  1.0000
  H   H169      1.0  0.25130  0.06766  0.40163  1.0000
  Fe  Fe21      1.0  0.18972  0.17691  0.29784  1.0000
  S   S41       1.0  0.17439  0.21628  0.28062  1.0000
  S   S42       1.0  0.22036  0.10438  0.32489  1.0000
  S   S43       1.0  0.22708  0.18595  0.31022  1.0000
  C   C97       1.0  0.15853  0.34259  0.28350  1.0000
  C   C98       1.0  0.16505  0.32059  0.29511  1.0000
  C   C99       1.0  0.17055  0.28193  0.29441  1.0000
  C   C100      1.0  0.16981  0.26509  0.28206  1.0000
  C   C101      1.0  0.16383  0.28723  0.27047  1.0000
  C   C102      1.0  0.15813  0.32576  0.27117  1.0000
  H   H170      1.0  0.16518  0.33338  0.30467  1.0000
  H   H171      1.0  0.17463  0.26491  0.30337  1.0000
  H   H172      1.0  0.16327  0.27439  0.26089  1.0000
  H   H173      1.0  0.15339  0.34244  0.26217  1.0000
  C   C103      1.0  0.46919  0.13873  0.25274  1.0000
  H   H174      1.0  0.23284  0.12048  0.41721  1.0000
  H   H175      1.0  0.10601  0.34379  0.27366  1.0000
  H   H176      1.0  0.49835  0.46008  0.44332  1.0000
  C   C104      1.0  0.30546  0.05802  0.26764  1.0000
  C   C105      1.0  0.32061  0.08429  0.27456  1.0000
  C   C106      1.0  0.31169  0.10272  0.28528  1.0000
  C   C107      1.0  0.28739  0.09561  0.28899  1.0000
  C   C108      1.0  0.27194  0.06993  0.28188  1.0000
  N   N8        1.0  0.27166  0.17877  0.25085  1.0000
  H   H177      1.0  0.33948  0.08977  0.27187  1.0000
  H   H178      1.0  0.32376  0.12240  0.29079  1.0000
  C   C109      1.0  0.08125  0.35398  0.28862  1.0000
  H   H179      1.0  0.46575  0.40218  0.45246  1.0000
  C   C110      1.0  0.47195  0.29228  0.41826  1.0000
  C   C111      1.0  0.44776  0.29034  0.41075  1.0000
  C   C112      1.0  0.42562  0.28401  0.41693  1.0000
  C   C113      1.0  0.42745  0.28014  0.43073  1.0000
  C   C114      1.0  0.45166  0.28229  0.43825  1.0000
  C   C115      1.0  0.47386  0.28800  0.43205  1.0000
  H   H180      1.0  0.44612  0.29362  0.40006  1.0000
  H   H181      1.0  0.40710  0.28257  0.41104  1.0000
  H   H182      1.0  0.45321  0.27926  0.44894  1.0000
  S   S44       1.0  0.15295  0.05711  0.31444  1.0000
  C   C116      1.0  0.28366  0.20993  0.37685  1.0000
  C   C117      1.0  0.25950  0.22224  0.37981  1.0000
  C   C118      1.0  0.23747  0.21668  0.37076  1.0000
  C   C119      1.0  0.23932  0.19880  0.35867  1.0000
  C   C120      1.0  0.26346  0.18650  0.35572  1.0000
  C   C121      1.0  0.28549  0.19225  0.36473  1.0000
  H   H183      1.0  0.25781  0.23609  0.38906  1.0000
  H   H184      1.0  0.21888  0.22641  0.37312  1.0000
  H   H185      1.0  0.26521  0.17283  0.34644  1.0000
  H   H186      1.0  0.30410  0.18271  0.36233  1.0000
  C   C122      1.0  0.25472  0.08009  0.45876  1.0000
  C   C123      1.0  0.27938  0.06451  0.46226  1.0000
  C   C124      1.0  0.30088  0.08416  0.45940  1.0000
  C   C125      1.0  0.29785  0.11969  0.45322  1.0000
  C   C126      1.0  0.27323  0.13584  0.45016  1.0000
  C   C127      1.0  0.25170  0.11583  0.45273  1.0000
  H   H187      1.0  0.46477  0.13092  0.40410  1.0000
  H   H188      1.0  0.31991  0.07159  0.46180  1.0000
  H   H189      1.0  0.27083  0.16357  0.44569  1.0000
  H   H190      1.0  0.23265  0.12806  0.45003  1.0000
  C   C128      1.0  0.27631  0.35086  0.45153  1.0000
  C   C129      1.0  0.25520  0.36549  0.45728  1.0000
  C   C130      1.0  0.25833  0.39349  0.46685  1.0000
  C   C131      1.0  0.28258  0.40772  0.47055  1.0000
  C   C132      1.0  0.30376  0.39261  0.46497  1.0000
  C   C133      1.0  0.30068  0.36421  0.45554  1.0000
  H   H191      1.0  0.23633  0.35501  0.45433  1.0000
  H   H192      1.0  0.24197  0.40422  0.47130  1.0000
  H   H193      1.0  0.32263  0.40319  0.46785  1.0000
  H   H194      1.0  0.31710  0.35317  0.45120  1.0000
  N   N9        1.0  0.08157  0.29625  0.27348  1.0000
  C   C134      1.0  0.09085  0.28534  0.26052  1.0000
  C   C135      1.0  0.09784  0.27418  0.28439  1.0000
  N   N10       1.0  0.48578  0.16920  0.41732  1.0000
  C   C136      1.0  0.05335  0.28842  0.27277  1.0000
  C   C137      1.0  0.49514  0.14853  0.25450  1.0000
  C   C138      1.0  0.09861  0.23141  0.28288  1.0000
  H   H195      1.0  0.09255  0.33948  0.29722  1.0000
  N   N11       1.0  0.24062  0.48537  0.43821  1.0000
  H   H196      1.0  0.11203  0.28771  0.26108  1.0000
  H   H197      1.0  0.08702  0.25557  0.25835  1.0000
  H   H198      1.0  0.09196  0.27945  0.29430  1.0000
  H   H199      1.0  0.11797  0.28329  0.28516  1.0000
  H   H200      1.0  0.08394  0.01961  0.28571  1.0000
  C   C139      1.0  0.48637  0.19522  0.40551  1.0000
  H   H201      1.0  0.04159  0.31122  0.26710  1.0000
  H   H202      1.0  0.04920  0.26249  0.26712  1.0000
  S   S45       1.0  0.04331  0.39246  0.24530  1.0000
  H   H203      1.0  0.07354  0.35447  0.26760  1.0000
  H   H204      1.0  0.22779  0.16827  0.41220  1.0000
  C   C140      1.0  0.48982  0.17421  0.27588  1.0000
  H   H205      1.0  0.23912  0.20256  0.27074  1.0000
  H   H206      1.0  0.47120  0.11435  0.42081  1.0000
  H   H207      1.0  0.33588  0.10661  0.40561  1.0000
  H   H208      1.0  0.32224  0.07265  0.41601  1.0000
  H   H209      1.0  0.45178  0.17088  0.28173  1.0000
  H   H210      1.0  0.23824  0.15697  0.27789  1.0000
  H   H211      1.0  0.48310  0.27569  0.28815  1.0000
  H   H212      1.0  0.27612  0.46594  0.43111  1.0000
  H   H213      1.0  0.17912  0.30703  0.33313  1.0000
  C   C141      1.0  0.43703  0.18280  0.41770  1.0000
  N   N12       1.0  0.27863  0.11185  0.40315  1.0000
  H   H214      1.0  0.21533  0.27159  0.34852  1.0000
  H   H215      1.0  0.47142  0.22479  0.25300  1.0000
  H   H216      1.0  0.26415  0.23589  0.25649  1.0000
  C   C142      1.0  0.28848  0.11027  0.38977  1.0000
  C   C143      1.0  0.07893  0.30781  0.24808  1.0000
  C   C144      1.0  0.25912  0.45430  0.43513  1.0000
  C   C145      1.0  0.25619  0.13955  0.40192  1.0000
  H   H217      1.0  0.15952  0.14743  0.47434  1.0000
  H   H218      1.0  0.46894  0.19232  0.39826  1.0000
  H   H219      1.0  0.05226  0.29695  0.29463  1.0000
  H   H220      1.0  0.26795  0.08891  0.42807  1.0000
  S   S46       1.0  0.35435  0.12091  0.24434  1.0000
  H   H221      1.0  0.43108  0.15433  0.41490  1.0000
  H   H222      1.0  0.23318  0.50423  0.41774  1.0000
  C   C146      1.0  0.46387  0.16457  0.27410  1.0000
  H   H223      1.0  0.27545  0.32667  0.35368  1.0000
  C   C147      1.0  0.25599  0.15685  0.25965  1.0000
  H   H224      1.0  0.29741  0.19760  0.26743  1.0000
  C   C148      1.0  0.24281  0.14573  0.41440  1.0000
  H   H225      1.0  0.30080  0.11405  0.24552  1.0000
  H   H226      1.0  0.44556  0.37719  0.44066  1.0000
  C   C149      1.0  0.47965  0.13012  0.41291  1.0000
  S   S47       1.0  0.11818  0.40515  0.24712  1.0000
  C   C150      1.0  0.30000  0.12634  0.41277  1.0000
  H   H227      1.0  0.21071  0.47227  0.42242  1.0000
  H   H228      1.0  0.21751  0.13294  0.47354  1.0000
  H   H229      1.0  0.18906  0.34873  0.34223  1.0000
  H   H230      1.0  0.48485  0.22482  0.40836  1.0000
  H   H231      1.0  0.26933  0.03052  0.26599  1.0000
  H   H232      1.0  0.33794  0.11245  0.42307  1.0000
  S   S48       1.0  0.22732  0.05546  0.46158  1.0000
  H   H233      1.0  0.26579  0.12960  0.26280  1.0000
  H   H234      1.0  0.26785  0.17976  0.27951  1.0000
  C   C151      1.0  0.21693  0.30142  0.34559  1.0000
  H   H235      1.0  0.24682  0.43769  0.41465  1.0000
  H   H236      1.0  0.24071  0.36132  0.34146  1.0000
  S   S49       1.0  0.38939  0.04362  0.24618  1.0000
  H   H237      1.0  0.33765  0.19338  0.25549  1.0000
  H   H238      1.0  0.47650  0.37513  0.42498  1.0000
  H   H239      1.0  0.23749  0.21505  0.24739  1.0000
  H   H240      1.0  0.21668  0.49929  0.45345  1.0000
  H   H241      1.0  0.25807  0.07551  0.37974  1.0000
  C   C152      1.0  0.14519  0.01509  0.30609  1.0000
  C   C153      1.0  0.28112  0.05087  0.27131  1.0000
  H   H242      1.0  0.26371  0.40191  0.42503  1.0000
  C   C154      1.0  0.29823  0.18194  0.25814  1.0000
  H   H243      1.0  0.23107  0.41281  0.42679  1.0000
  H   H244      1.0  0.25336  0.04685  0.42306  1.0000
  H   H245      1.0  0.46464  0.16650  0.43443  1.0000
  H   H246      1.0  0.25936  0.34769  0.32891  1.0000
  C   C155      1.0  0.25934  0.28388  0.33989  1.0000
  C   C156      1.0  0.22129  0.36671  0.32152  1.0000
  H   H247      1.0  0.24049  0.46439  0.45833  1.0000
  H   H248      1.0  0.22601  0.39673  0.32164  1.0000
  C   C157      1.0  0.24921  0.42530  0.42484  1.0000
  H   H249      1.0  0.16018  0.09491  0.48867  1.0000
  H   H250      1.0  0.30440  0.08899  0.38990  1.0000
  H   H251      1.0  0.21551  0.41704  0.44519  1.0000
  C   C158      1.0  0.46597  0.38208  0.44433  1.0000
  H   H252      1.0  0.29262  0.49120  0.45125  1.0000
  H   H253      1.0  0.19752  0.43984  0.45652  1.0000
  H   H254      1.0  0.26271  0.28678  0.36172  1.0000
  N   N13       1.0  0.23445  0.30470  0.33491  1.0000
  H   H255      1.0  0.22861  0.27325  0.30228  1.0000
  H   H256      1.0  0.24065  0.13113  0.39426  1.0000
  C   C159      1.0  0.25877  0.21696  0.24810  1.0000
  S   S50       1.0  0.28723  0.44521  0.48166  1.0000
  H   H257      1.0  0.49758  0.18784  0.28483  1.0000
  C   C160      1.0  0.17816  0.15132  0.47052  1.0000
  Fe  Fe22      1.0  0.25555  0.48111  0.48902  1.0000
  H   H258      1.0  0.47424  0.35458  0.44809  1.0000
  H   H259      1.0  0.17819  0.30932  0.35048  1.0000
  S   S51       1.0  0.08529  0.48527  0.24092  1.0000
  H   H260      1.0  0.25048  0.30653  0.30970  1.0000
  Fe  Fe23      1.0  0.09851  0.50132  0.26197  1.0000
  H   H261      1.0  0.25323  0.06419  0.28472  1.0000
  H   H262      1.0  0.21680  0.25676  0.32541  1.0000
  H   H263      1.0  0.10733  0.21792  0.29238  1.0000
  H   H264      1.0  0.49236  0.28905  0.43793  1.0000
  H   H265      1.0  0.20095  0.36520  0.32314  1.0000
  H   H266      1.0  0.25624  0.25333  0.34074  1.0000
  C   C161      1.0  0.45886  0.33881  0.25372  1.0000
  C   C162      1.0  0.08600  0.33741  0.27522  1.0000
  H   H267      1.0  0.27365  0.28680  0.33273  1.0000
  H   H268      1.0  0.25482  0.25755  0.31414  1.0000
  H   H269      1.0  0.20499  0.29990  0.31814  1.0000
  C   C163      1.0  0.24037  0.28070  0.31164  1.0000
  H   H270      1.0  0.06051  0.35557  0.28971  1.0000
  C   C164      1.0  0.18939  0.31779  0.34237  1.0000
  S   S52       1.0  0.42040  0.13683  0.26071  1.0000
  H   H271      1.0  0.25520  0.12473  0.37491  1.0000
  H   H272      1.0  0.26713  0.43860  0.44434  1.0000
  H   H273      1.0  0.49446  0.07915  0.40483  1.0000
  C   C165      1.0  0.46457  0.18305  0.42501  1.0000
  H   H274      1.0  0.23715  0.14997  0.25412  1.0000
  H   H275      1.0  0.18186  0.18154  0.46985  1.0000
  C   C166      1.0  0.23996  0.34511  0.33218  1.0000
  H   H276      1.0  0.42345  0.19347  0.42447  1.0000
  C   C167      1.0  0.47922  0.39697  0.43265  1.0000
  C   C168      1.0  0.22282  0.28524  0.32271  1.0000
  C   C169      1.0  0.22669  0.47450  0.44977  1.0000
  C   C170      1.0  0.26878  0.10082  0.37785  1.0000
  C   C171      1.0  0.26999  0.06447  0.42183  1.0000
  H   H277      1.0  0.08769  0.38320  0.28888  1.0000
  C   C172      1.0  0.04237  0.28246  0.28609  1.0000
  H   H278      1.0  0.43452  0.20183  0.40886  1.0000
  C   C173      1.0  0.25022  0.17574  0.27258  1.0000
  H   H279      1.0  0.26233  0.16733  0.39865  1.0000
  H   H280      1.0  0.29235  0.28223  0.35509  1.0000
  H   H281      1.0  0.27910  0.09542  0.36911  1.0000
  H   H282      1.0  0.22495  0.31546  0.35477  1.0000
  C   C174      1.0  0.27062  0.07329  0.40687  1.0000
  H   H283      1.0  0.28180  0.03690  0.46682  1.0000
  Fe  Fe24      1.0  0.34744  0.05992  0.24403  1.0000
  H   H284      1.0  0.04165  0.25217  0.28853  1.0000
  H   H285      1.0  0.02209  0.29306  0.28494  1.0000
  H   H286      1.0  0.22327  0.35707  0.31137  1.0000
  H   H287      1.0  0.46776  0.42211  0.42847  1.0000
  C   C175      1.0  0.27295  0.29607  0.35337  1.0000
  C   C176      1.0  0.32529  0.10271  0.41433  1.0000
  H   H288      1.0  0.29436  0.12975  0.42283  1.0000
  H   H289      1.0  0.07922  0.22030  0.28040  1.0000
  Fe  Fe25      1.0  0.07846  0.42824  0.24897  1.0000
  H   H290      1.0  0.30672  0.15434  0.26184  1.0000
  N   N14       1.0  0.48844  0.27897  0.25383  1.0000
  H   H291      1.0  0.46070  0.29905  0.27594  1.0000
  C   C177      1.0  0.47439  0.27497  0.27762  1.0000
  H   H292      1.0  0.48801  0.40413  0.40659  1.0000
  H   H293      1.0  0.19095  0.45251  0.43942  1.0000
  H   H294      1.0  0.44259  0.32036  0.25430  1.0000
  C   C178      1.0  0.20039  0.12921  0.47882  1.0000
  H   H295      1.0  0.06044  0.03216  0.27204  1.0000
  H   H296      1.0  0.08615  0.33654  0.24808  1.0000
  H   H297      1.0  0.46392  0.24856  0.27659  1.0000
  H   H298      1.0  0.31589  0.23299  0.25169  1.0000
  H   H299      1.0  0.44928  0.26127  0.25492  1.0000
  C   C179      1.0  0.20663  0.44423  0.44732  1.0000
  S   S53       1.0  0.31672  0.03335  0.25453  1.0000
  H   H300      1.0  0.17621  0.14076  0.46024  1.0000
  C   C180      1.0  0.49607  0.27593  0.26864  1.0000
  H   H301      1.0  0.46749  0.21235  0.42803  1.0000
  H   H302      1.0  0.19623  0.09898  0.47807  1.0000
  H   H303      1.0  0.46356  0.35261  0.26337  1.0000
  H   H304      1.0  0.25254  0.10612  0.48465  1.0000
  H   H305      1.0  0.19913  0.19946  0.48959  1.0000
  H   H306      1.0  0.27096  0.50518  0.46289  1.0000
  H   H307      1.0  0.35352  0.05887  0.48973  1.0000
  C   C181      1.0  0.46622  0.25424  0.24982  1.0000
  C   C182      1.0  0.48294  0.31914  0.24939  1.0000
  H   H308      1.0  0.23037  0.18353  0.48721  1.0000
  H   H309      1.0  0.45155  0.36063  0.24616  1.0000
  H   H310      1.0  0.31568  0.02815  0.48794  1.0000
  H   H311      1.0  0.26820  0.09852  0.24366  1.0000
  C   C183      1.0  0.27822  0.51276  0.45346  1.0000
  Fe  Fe26      1.0  0.12609  0.46368  0.24062  1.0000
  Fe  Fe27      1.0  0.20937  0.48574  0.50442  1.0000
  S   S54       1.0  0.18224  0.45949  0.51760  1.0000
  S   S55       1.0  0.25184  0.48618  0.51077  1.0000
  Fe  Fe28      1.0  0.16499  0.26073  0.55044  1.0000
  S   S56       1.0  0.12807  0.23278  0.54382  1.0000
  S   S57       1.0  0.18698  0.28762  0.53498  1.0000
  Fe  Fe29      1.0  0.16694  0.22972  0.57919  1.0000
  S   S58       1.0  0.12989  0.19983  0.57462  1.0000
  S   S59       1.0  0.19387  0.23297  0.59859  1.0000
  Fe  Fe30      1.0  0.14591  0.18322  0.55577  1.0000
  S   S60       1.0  0.14264  0.12502  0.54744  1.0000
  Fe  Fe31      1.0  0.11508  0.25192  0.56297  1.0000
  S   S61       1.0  0.07735  0.28471  0.56413  1.0000
  S   S62       1.0  0.18365  0.20959  0.56112  1.0000
  S   S63       1.0  0.15119  0.28345  0.56884  1.0000
  H   H312      1.0  0.15170  0.10235  0.50493  1.0000
  C   C184      1.0  0.08344  0.35674  0.50968  1.0000
  H   H313      1.0  0.26162  0.14217  0.49641  1.0000
  S   S64       1.0  0.14281  0.05403  0.71847  1.0000
  H   H314      1.0  0.27341  0.45789  0.54006  1.0000
  S   S65       1.0  0.35731  0.43656  0.71464  1.0000
  C   C185      1.0  0.22447  0.19363  0.50761  1.0000
  S   S66       1.0  0.41802  0.42717  0.72628  1.0000
  H   H315      1.0  0.27333  0.28035  0.70064  1.0000
  Fe  Fe32      1.0  0.39013  0.47543  0.71974  1.0000
  Fe  Fe33      1.0  0.38416  0.38966  0.72317  1.0000
  S   S67       1.0  0.38753  0.32808  0.71796  1.0000
  H   H316      1.0  0.18717  0.14210  0.51098  1.0000
  H   H317      1.0  0.00828  0.19378  0.57928  1.0000
  Fe  Fe34      1.0  0.25966  0.12491  0.66345  1.0000
  S   S68       1.0  0.30093  0.13739  0.66192  1.0000
  S   S69       1.0  0.22768  0.11694  0.64650  1.0000
  Fe  Fe35      1.0  0.26880  0.11826  0.69375  1.0000
  S   S70       1.0  0.31057  0.13058  0.69441  1.0000
  S   S71       1.0  0.25450  0.11119  0.71377  1.0000
  Fe  Fe36      1.0  0.29778  0.17564  0.67921  1.0000
  S   S72       1.0  0.30736  0.23751  0.67962  1.0000
  Fe  Fe37      1.0  0.31028  0.09090  0.67736  1.0000
  S   S73       1.0  0.34411  0.04870  0.67767  1.0000
  S   S74       1.0  0.25573  0.16582  0.67965  1.0000
  S   S75       1.0  0.26920  0.07593  0.67779  1.0000
  H   H318      1.0  0.16465  0.35371  0.54627  1.0000
  H   H319      1.0  0.25421  0.27592  0.71431  1.0000
  C   C186      1.0  0.36509  0.30326  0.70726  1.0000
  C   C187      1.0  0.34779  0.32156  0.69755  1.0000
  C   C188      1.0  0.33056  0.30084  0.68908  1.0000
  C   C189      1.0  0.33014  0.26168  0.69034  1.0000
  C   C190      1.0  0.34740  0.24333  0.70010  1.0000
  C   C191      1.0  0.36492  0.26404  0.70844  1.0000
  H   H320      1.0  0.34794  0.35164  0.69639  1.0000
  H   H321      1.0  0.31744  0.31525  0.68149  1.0000
  H   H322      1.0  0.34737  0.21321  0.70114  1.0000
  H   H323      1.0  0.37831  0.24956  0.71586  1.0000
  H   H324      1.0  0.24952  0.28240  0.73792  1.0000
  C   C192      1.0  0.02342  0.15414  0.72742  1.0000
  C   C193      1.0  0.18230  0.13783  0.50016  1.0000
  C   C194      1.0  0.43290  0.21746  0.72974  1.0000
  C   C195      1.0  0.22378  0.09419  0.71512  1.0000
  C   C196      1.0  0.21119  0.07266  0.70519  1.0000
  C   C197      1.0  0.18644  0.06018  0.70640  1.0000
  C   C198      1.0  0.17420  0.06906  0.71755  1.0000
  C   C199      1.0  0.18702  0.09002  0.72759  1.0000
  C   C200      1.0  0.21181  0.10238  0.72640  1.0000
  H   H325      1.0  0.22046  0.06574  0.69656  1.0000
  H   H326      1.0  0.10255  0.24768  0.73778  1.0000
  H   H327      1.0  0.18213  0.02158  0.52524  1.0000
  H   H328      1.0  0.34464  0.04514  0.72287  1.0000
  C   C201      1.0  0.04101  0.23301  0.55544  1.0000
  C   C202      1.0  0.04572  0.26906  0.55994  1.0000
  C   C203      1.0  0.02472  0.29380  0.56101  1.0000
  C   C204      1.0  0.05130  0.32546  0.53066  1.0000
  H   H329      1.0  0.05331  0.34261  0.53966  1.0000
  H   H330      1.0  0.05694  0.21371  0.55453  1.0000
  H   H331      1.0  0.02817  0.32180  0.56444  1.0000
  H   H332      1.0  0.16217  0.42058  0.53884  1.0000
  C   C205      1.0  0.20208  0.20107  0.61218  1.0000
  C   C206      1.0  0.22424  0.20707  0.62102  1.0000
  C   C207      1.0  0.23221  0.18180  0.63163  1.0000
  C   C208      1.0  0.21816  0.15004  0.63347  1.0000
  C   C209      1.0  0.19576  0.14427  0.62478  1.0000
  C   C210      1.0  0.18758  0.16985  0.61428  1.0000
  H   H333      1.0  0.23549  0.23127  0.61956  1.0000
  H   H334      1.0  0.24941  0.18672  0.63828  1.0000
  H   H335      1.0  0.18458  0.12001  0.62622  1.0000
  H   H336      1.0  0.17003  0.16557  0.60787  1.0000
  C   C211      1.0  0.16800  0.10340  0.54008  1.0000
  C   C212      1.0  0.16462  0.06798  0.53457  1.0000
  C   C213      1.0  0.18491  0.04899  0.52938  1.0000
  C   C214      1.0  0.20892  0.06501  0.52993  1.0000
  C   C215      1.0  0.21230  0.10048  0.53538  1.0000
  C   C216      1.0  0.19178  0.11997  0.54016  1.0000
  H   H337      1.0  0.14626  0.05499  0.53443  1.0000
  C   C217      1.0  0.10067  0.38290  0.50266  1.0000
  H   H338      1.0  0.23084  0.11302  0.53587  1.0000
  H   H339      1.0  0.19456  0.14746  0.54415  1.0000
  C   C218      1.0  0.18471  0.41188  0.52270  1.0000
  C   C219      1.0  0.19835  0.38551  0.51609  1.0000
  C   C220      1.0  0.19927  0.34766  0.52016  1.0000
  C   C221      1.0  0.18686  0.33590  0.53094  1.0000
  C   C222      1.0  0.17390  0.36246  0.53783  1.0000
  C   C223      1.0  0.17257  0.40025  0.53361  1.0000
  H   H340      1.0  0.20786  0.39417  0.50772  1.0000
  H   H341      1.0  0.20945  0.32732  0.51482  1.0000
  C   C224      1.0  0.24641  0.49362  0.56601  1.0000
  H   H342      1.0  0.20960  0.15377  0.69598  1.0000
  H   H343      1.0  0.01727  0.12829  0.69513  1.0000
  H   H344      1.0  0.34243  0.05579  0.52205  1.0000
  H   H345      1.0  0.01219  0.19376  0.54872  1.0000
  H   H346      1.0  0.21579  0.09306  0.60276  1.0000
  C   C225      1.0  0.01326  0.14307  0.70389  1.0000
  H   H347      1.0  0.08346  0.20809  0.73366  1.0000
  H   H348      1.0  0.36370  0.08258  0.50487  1.0000
  H   H349      1.0  0.00268  0.14545  0.58167  1.0000
  H   H350      1.0  0.43658  0.29210  0.72218  1.0000
  H   H351      1.0  0.23432  0.42863  0.53320  1.0000
  C   C226      1.0  0.02862  0.13550  0.71603  1.0000
  C   C227      1.0  0.01560  0.22182  0.55212  1.0000
  H   H352      1.0  0.20945  0.47572  0.54502  1.0000
  C   C228      1.0  0.07749  0.31075  0.52713  1.0000
  H   H353      1.0  0.11339  0.39013  0.53018  1.0000
  H   H354      1.0  0.22156  0.11883  0.73416  1.0000
  H   H355      1.0  0.38663  0.02696  0.51484  1.0000
  H   H356      1.0  0.46182  0.34271  0.71709  1.0000
  H   H357      1.0  0.41384  0.22381  0.73297  1.0000
  N   N15       1.0  0.17150  0.15682  0.67146  1.0000
  C   C229      1.0  0.17497  0.17172  0.65779  1.0000
  C   C230      1.0  0.18654  0.12016  0.67344  1.0000
  C   C231      1.0  0.18222  0.18494  0.68142  1.0000
  C   C232      1.0  0.14325  0.15225  0.67210  1.0000
  C   C233      1.0  0.16270  0.21072  0.65390  1.0000
  C   C234      1.0  0.17656  0.08798  0.66456  1.0000
  C   C235      1.0  0.19137  0.17046  0.69567  1.0000
  C   C236      1.0  0.13552  0.13346  0.68477  1.0000
  H   H358      1.0  0.19578  0.17346  0.65673  1.0000
  H   H359      1.0  0.16697  0.15273  0.64993  1.0000
  H   H360      1.0  0.18725  0.10918  0.68369  1.0000
  H   H361      1.0  0.20699  0.12410  0.67202  1.0000
  H   H362      1.0  0.19929  0.19833  0.67805  1.0000
  H   H363      1.0  0.16797  0.20821  0.68223  1.0000
  H   H364      1.0  0.13292  0.17995  0.67129  1.0000
  H   H365      1.0  0.13412  0.13725  0.66334  1.0000
  H   H366      1.0  0.16776  0.21880  0.64393  1.0000
  H   H367      1.0  0.14146  0.21071  0.65306  1.0000
  H   H368      1.0  0.17010  0.23260  0.66079  1.0000
  H   H369      1.0  0.17728  0.09402  0.65388  1.0000
  H   H370      1.0  0.18923  0.06280  0.66712  1.0000
  H   H371      1.0  0.15690  0.08040  0.66627  1.0000
  H   H372      1.0  0.19558  0.19459  0.70219  1.0000
  H   H373      1.0  0.16813  0.16076  0.49670  1.0000
  H   H374      1.0  0.10732  0.40659  0.50889  1.0000
  H   H375      1.0  0.13339  0.15430  0.69256  1.0000
  H   H376      1.0  0.14879  0.11050  0.68894  1.0000
  H   H377      1.0  0.11685  0.11991  0.68233  1.0000
  C   C237      1.0  0.10626  0.35817  0.54742  1.0000
  H   H378      1.0  0.11746  0.36770  0.49940  1.0000
  H   H379      1.0  0.12209  0.37541  0.55192  1.0000
  H   H380      1.0  0.11295  0.32866  0.54888  1.0000
  H   H381      1.0  0.09010  0.36321  0.55335  1.0000
  C   C238      1.0  0.27324  0.26997  0.71102  1.0000
  H   H382      1.0  0.27454  0.44329  0.55686  1.0000
  H   H383      1.0  0.22027  0.08372  0.49860  1.0000
  C   C239      1.0  0.00291  0.18062  0.72654  1.0000
  H   H384      1.0  0.08050  0.38827  0.53241  1.0000
  H   H385      1.0  0.04005  0.34130  0.52233  1.0000
  H   H386      1.0  0.08681  0.29381  0.53577  1.0000
  C   C240      1.0  0.22744  0.46707  0.57139  1.0000
  C   C241      1.0  0.29079  0.04259  0.73544  1.0000
  C   C242      1.0  0.22625  0.11304  0.49991  1.0000
  H   H387      1.0  0.27158  0.40117  0.72005  1.0000
  H   H388      1.0  0.25480  0.39619  0.54327  1.0000
  H   H389      1.0  0.43340  0.22869  0.71953  1.0000
  H   H390      1.0  0.23326  0.43743  0.57030  1.0000
  H   H391      1.0  0.46842  0.27454  0.72193  1.0000
  H   H392      1.0  0.11409  0.30007  0.50141  1.0000
  C   C243      1.0  0.26887  0.33254  0.73197  1.0000
  H   H393      1.0  0.27624  0.23912  0.71080  1.0000
  H   H394      1.0  0.23052  0.22292  0.50667  1.0000
  H   H395      1.0  0.26267  0.02756  0.71183  1.0000
  H   H396      1.0  0.30017  0.05832  0.70976  1.0000
  C   C244      1.0  0.25299  0.11447  0.49511  1.0000
  H   H397      1.0  0.22881  0.11699  0.51079  1.0000
  H   H398      1.0  0.48697  0.33164  0.73014  1.0000
  H   H399      1.0  0.07313  0.29020  0.51916  1.0000
  H   H400      1.0  0.13482  0.34303  0.51926  1.0000
  H   H401      1.0  0.26527  0.48725  0.57198  1.0000
  H   H402      1.0  0.14182  0.28077  0.51141  1.0000
  H   H403      1.0  0.07709  0.33457  0.50260  1.0000
  H   H404      1.0  0.31291  0.28336  0.71534  1.0000
  H   H405      1.0  0.22810  0.41763  0.54991  1.0000
  C   C245      1.0  0.36825  0.05917  0.49844  1.0000
  Fe  Fe38      1.0  0.34962  0.44451  0.73579  1.0000
  C   C246      1.0  0.26118  0.45443  0.54823  1.0000
  C   C247      1.0  0.28422  0.39224  0.71262  1.0000
  H   H406      1.0  0.34449  0.06441  0.70661  1.0000
  C   C248      1.0  0.45601  0.29138  0.72792  1.0000
  C   C249      1.0  0.17073  0.11786  0.58411  1.0000
  H   H407      1.0  0.24278  0.07072  0.59702  1.0000
  H   H408      1.0  0.30862  0.02673  0.69778  1.0000
  H   H409      1.0  0.19211  0.04157  0.59997  1.0000
  H   H410      1.0  0.25059  0.33536  0.72516  1.0000
  H   H411      1.0  0.26609  0.09398  0.50112  1.0000
  H   H412      1.0  0.06570  0.37353  0.51083  1.0000
  H   H413      1.0  0.48065  0.51297  0.73801  1.0000
  H   H414      1.0  0.25638  0.08996  0.57647  1.0000
  H   H415      1.0  0.38661  0.06577  0.49464  1.0000
  C   C250      1.0  0.45996  0.50717  0.73624  1.0000
  H   H416      1.0  0.00162  0.47687  0.72241  1.0000
  H   H417      1.0  0.15138  0.11282  0.57885  1.0000
  H   H418      1.0  0.03975  0.30121  0.53294  1.0000
  H   H419      1.0  0.06844  0.24996  0.73892  1.0000
  H   H420      1.0  0.11104  0.26586  0.51452  1.0000
  H   H421      1.0  0.30356  0.40364  0.71510  1.0000
  H   H422      1.0  0.30377  0.49294  0.55316  1.0000
  H   H423      1.0  0.33149  0.33872  0.72503  1.0000
  C   C251      1.0  0.99928  0.28266  0.55761  1.0000
  C   C252      1.0  0.33969  0.03922  0.71223  1.0000
  H   H424      1.0  0.45646  0.49541  0.72615  1.0000
  H   H425      1.0  0.22531  0.49558  0.53243  1.0000
  H   H426      1.0  0.45635  0.35082  0.73373  1.0000
  C   C253      1.0  0.29524  0.28649  0.72032  1.0000
  C   C254      1.0  0.37182  0.02160  0.50632  1.0000
  H   H427      1.0  0.20911  0.19410  0.51421  1.0000
  H   H428      1.0  0.43486  0.18656  0.72922  1.0000
  H   H429      1.0  0.23643  0.02928  0.57334  1.0000
  C   C255      1.0  0.21492  0.17952  0.49366  1.0000
  H   H430      1.0  0.26775  0.14210  0.58630  1.0000
  C   C256      1.0  0.12156  0.29047  0.51161  1.0000
  S   S76       1.0  0.30807  0.44839  0.73967  1.0000
  H   H431      1.0  0.29847  0.06806  0.73122  1.0000
  H   H432      1.0  0.08940  0.39514  0.49355  1.0000
  H   H433      1.0  0.29502  0.04832  0.52350  1.0000
  H   H434      1.0  0.17665  0.04370  0.69865  1.0000
  H   H435      1.0  0.30073  0.34335  0.70461  1.0000
  H   H436      1.0  0.12971  0.30951  0.53143  1.0000
  H   H437      1.0  0.22109  0.01746  0.59749  1.0000
  N   N16       1.0  0.24873  0.49148  0.55140  1.0000
  N   N17       1.0  0.21848  0.10291  0.58191  1.0000
  C   C257      1.0  0.22548  0.14209  0.58588  1.0000
  C   C258      1.0  0.19117  0.10530  0.57529  1.0000
  C   C259      1.0  0.23603  0.09082  0.57195  1.0000
  H   H438      1.0  0.17142  0.14829  0.58575  1.0000
  C   C260      1.0  0.25282  0.14697  0.59297  1.0000
  C   C261      1.0  0.20767  0.04064  0.59346  1.0000
  H   H439      1.0  0.18478  0.07874  0.57085  1.0000
  C   C262      1.0  0.46586  0.33143  0.72742  1.0000
  H   H440      1.0  0.22294  0.16158  0.57709  1.0000
  H   H441      1.0  0.21251  0.15328  0.59276  1.0000
  S   S77       1.0  0.23544  0.04096  0.52450  1.0000
  H   H442      1.0  0.18952  0.12539  0.56674  1.0000
  H   H443      1.0  0.23469  0.11157  0.56354  1.0000
  H   H444      1.0  0.26733  0.34187  0.70558  1.0000
  H   H445      1.0  0.17246  0.10257  0.59376  1.0000
  C   C263      1.0  0.09850  0.37077  0.53277  1.0000
  H   H446      1.0  0.25444  0.17644  0.59615  1.0000
  H   H447      1.0  0.25688  0.12931  0.60211  1.0000
  C   C264      1.0  0.33099  0.03647  0.51540  1.0000
  H   H448      1.0  0.17706  0.15378  0.70008  1.0000
  H   H449      1.0  0.04435  0.11506  0.71660  1.0000
  C   C265      1.0  0.24330  0.42268  0.54351  1.0000
  H   H450      1.0  0.24526  0.04807  0.55829  1.0000
  C   C266      1.0  0.28584  0.34944  0.71125  1.0000
  C   C267      1.0  0.22203  0.07782  0.59415  1.0000
  H   H451      1.0  0.18055  0.07676  0.50311  1.0000
  C   C268      1.0  0.16814  0.10073  0.49900  1.0000
  H   H452      1.0  0.27625  0.40530  0.70292  1.0000
  C   C269      1.0  0.12103  0.32189  0.52176  1.0000
  N   N18       1.0  0.09510  0.33996  0.52286  1.0000
  H   H453      1.0  0.20746  0.47256  0.56672  1.0000
  C   C270      1.0  0.22304  0.49770  0.54310  1.0000
  S   S78       1.0  0.08234  0.04852  0.73680  1.0000
  Fe  Fe39      1.0  0.12340  0.06567  0.73681  1.0000
  H   H454      1.0  0.26959  0.04301  0.73315  1.0000
  C   C271      1.0  0.31108  0.03171  0.70860  1.0000
  C   C272      1.0  0.23182  0.05212  0.56584  1.0000
  H   H455      1.0  0.17778  0.09690  0.73624  1.0000
  H   H456      1.0  0.19943  0.03248  0.58346  1.0000
  H   H457      1.0  0.32235  0.05410  0.50682  1.0000
  H   H458      1.0  0.24139  0.17722  0.51245  1.0000
  N   N19       1.0  0.20595  0.13994  0.49313  1.0000
  H   H459      1.0  0.21236  0.04933  0.56047  1.0000
  H   H460      1.0  0.22745  0.47158  0.58218  1.0000
  N   N20       1.0  0.29117  0.32667  0.72403  1.0000
  H   H461      1.0  0.31359  0.36998  0.73403  1.0000
  C   C273      1.0  0.31569  0.34015  0.73144  1.0000
  H   H462      1.0  0.29887  0.26744  0.72908  1.0000
  H   H463      1.0  0.27062  0.35933  0.73736  1.0000
  H   H464      1.0  0.47331  0.22082  0.73633  1.0000
  H   H465      1.0  0.02733  0.50132  0.73997  1.0000
  C   C274      1.0  0.30869  0.02422  0.52296  1.0000
  H   H466      1.0  0.99985  0.18502  0.60207  1.0000
  H   H467      1.0  0.35196  0.01603  0.70917  1.0000
  H   H468      1.0  0.31570  0.01538  0.53333  1.0000
  H   H469      1.0  0.41434  0.28246  0.74001  1.0000
  S   S79       1.0  0.38030  0.48646  0.74028  1.0000
  C   C275      1.0  0.45500  0.23149  0.73966  1.0000
  H   H470      1.0  0.12395  0.26809  0.76176  1.0000
  H   H471      1.0  0.46986  0.14831  0.91508  1.0000
  H   H472      1.0  0.18547  0.46331  0.75113  1.0000
  Fe  Fe40      1.0  0.31825  0.30541  0.93279  1.0000
  S   S80       1.0  0.29194  0.26126  0.92389  1.0000
  S   S81       1.0  0.31120  0.33876  0.95093  1.0000
  Fe  Fe41      1.0  0.36248  0.28177  0.91742  1.0000
  S   S82       1.0  0.33951  0.23615  0.90769  1.0000
  S   S83       1.0  0.40148  0.29290  0.91062  1.0000
  Fe  Fe42      1.0  0.30628  0.27768  0.90452  1.0000
  S   S84       1.0  0.28653  0.27031  0.88345  1.0000
  Fe  Fe43      1.0  0.32694  0.22323  0.92756  1.0000
  S   S85       1.0  0.32884  0.16214  0.93431  1.0000
  S   S86       1.0  0.33007  0.32479  0.91315  1.0000
  S   S87       1.0  0.35260  0.26579  0.93758  1.0000
  H   H473      1.0  0.18281  0.50807  0.80889  1.0000
  H   H474      1.0  0.40845  0.20260  0.92062  1.0000
  S   S88       1.0  0.26626  0.10412  0.98013  1.0000
  Fe  Fe44      1.0  0.12678  0.09706  0.76435  1.0000
  H   H475      1.0  0.29495  0.04419  0.74640  1.0000
  S   S89       1.0  0.14832  0.12354  0.78240  1.0000
  Fe  Fe45      1.0  0.23971  0.50771  0.97566  1.0000
  H   H476      1.0  0.44494  0.18352  0.91236  1.0000
  H   H477      1.0  0.20781  0.13540  0.94442  1.0000
  H   H478      1.0  0.31268  0.32597  0.75233  1.0000
  H   H479      1.0  0.09485  0.24598  0.78712  1.0000
  S   S90       1.0  0.13686  0.04001  0.75700  1.0000
  S   S91       1.0  0.08642  0.08190  0.76646  1.0000
  Fe  Fe46      1.0  0.20588  0.36995  0.82125  1.0000
  S   S92       1.0  0.16898  0.36652  0.80735  1.0000
  S   S93       1.0  0.20875  0.37134  0.84379  1.0000
  Fe  Fe47      1.0  0.23698  0.39013  0.79899  1.0000
  S   S94       1.0  0.20305  0.38876  0.78352  1.0000
  S   S95       1.0  0.27766  0.40490  0.79633  1.0000
  Fe  Fe48      1.0  0.18112  0.41935  0.79789  1.0000
  S   S96       1.0  0.15172  0.46432  0.78935  1.0000
  Fe  Fe49      1.0  0.19324  0.33585  0.79388  1.0000
  S   S97       1.0  0.18001  0.29301  0.77836  1.0000
  S   S98       1.0  0.21601  0.42507  0.81259  1.0000
  S   S99       1.0  0.22926  0.33514  0.80852  1.0000
  H   H480      1.0  0.11959  0.22336  0.77962  1.0000
  H   H481      1.0  0.24624  0.09064  0.95063  1.0000
  C   C276      1.0  0.28624  0.41331  0.78030  1.0000
  C   C277      1.0  0.31175  0.42137  0.77887  1.0000
  C   C278      1.0  0.31890  0.43068  0.76634  1.0000
  C   C279      1.0  0.30044  0.43258  0.75521  1.0000
  C   C280      1.0  0.27504  0.42367  0.75657  1.0000
  C   C281      1.0  0.26799  0.41376  0.76906  1.0000
  H   H482      1.0  0.32598  0.42100  0.78751  1.0000
  H   H483      1.0  0.19222  0.03180  0.95338  1.0000
  H   H484      1.0  0.24835  0.40726  0.77002  1.0000
  C   C282      1.0  0.18679  0.03786  0.80439  1.0000
  C   C283      1.0  0.47985  0.28103  0.75032  1.0000
  C   C284      1.0  0.15930  0.16961  0.78134  1.0000
  C   C285      1.0  0.16558  0.18968  0.79299  1.0000
  C   C286      1.0  0.17265  0.22732  0.79235  1.0000
  C   C287      1.0  0.17375  0.24495  0.78003  1.0000
  C   C288      1.0  0.16834  0.22439  0.76843  1.0000
  C   C289      1.0  0.16109  0.18699  0.76907  1.0000
  H   H485      1.0  0.16440  0.17639  0.80254  1.0000
  H   H486      1.0  0.17682  0.24282  0.80135  1.0000
  H   H487      1.0  0.16942  0.23766  0.75887  1.0000
  H   H488      1.0  0.15679  0.17167  0.76004  1.0000
  C   C290      1.0  0.23607  0.09905  0.92288  1.0000
  C   C291      1.0  0.47780  0.26568  0.91652  1.0000
  C   C292      1.0  0.45333  0.27974  0.91112  1.0000
  C   C293      1.0  0.43207  0.27682  0.91824  1.0000
  C   C294      1.0  0.43568  0.26096  0.93104  1.0000
  C   C295      1.0  0.46016  0.24701  0.93645  1.0000
  H   H489      1.0  0.42161  0.34502  0.74417  1.0000
  H   H490      1.0  0.45072  0.29219  0.90124  1.0000
  H   H491      1.0  0.41955  0.25907  0.93669  1.0000
  H   H492      1.0  0.46271  0.23412  0.94627  1.0000
  C   C296      1.0  0.26387  0.29835  0.87298  1.0000
  C   C297      1.0  0.25528  0.28534  0.86029  1.0000
  C   C298      1.0  0.23837  0.30731  0.85125  1.0000
  C   C299      1.0  0.22936  0.34221  0.85496  1.0000
  C   C300      1.0  0.23751  0.35494  0.86775  1.0000
  C   C301      1.0  0.25489  0.33329  0.87669  1.0000
  H   H493      1.0  0.26203  0.25823  0.85737  1.0000
  H   H494      1.0  0.23205  0.29707  0.84149  1.0000
  H   H495      1.0  0.23059  0.38192  0.87070  1.0000
  H   H496      1.0  0.26130  0.34356  0.88644  1.0000
  C   C302      1.0  0.31155  0.14637  0.94714  1.0000
  C   C303      1.0  0.29484  0.17034  0.95296  1.0000
  C   C304      1.0  0.28124  0.15687  0.96308  1.0000
  C   C305      1.0  0.28428  0.11943  0.96753  1.0000
  C   C306      1.0  0.30106  0.09545  0.96176  1.0000
  C   C307      1.0  0.31455  0.10886  0.95155  1.0000
  H   H497      1.0  0.29233  0.19925  0.94962  1.0000
  H   H498      1.0  0.26811  0.17553  0.96738  1.0000
  H   H499      1.0  0.30387  0.06673  0.96526  1.0000
  H   H500      1.0  0.32752  0.09017  0.94714  1.0000
  C   C308      1.0  0.25629  0.43929  0.95431  1.0000
  C   C309      1.0  0.26749  0.41935  0.96560  1.0000
  C   C310      1.0  0.28356  0.38786  0.96430  1.0000
  C   C311      1.0  0.28877  0.37619  0.95175  1.0000
  C   C312      1.0  0.27717  0.39570  0.94042  1.0000
  C   C313      1.0  0.26088  0.42711  0.94171  1.0000
  H   H501      1.0  0.26375  0.42809  0.97534  1.0000
  H   H502      1.0  0.29215  0.37254  0.97309  1.0000
  H   H503      1.0  0.28104  0.38688  0.93070  1.0000
  H   H504      1.0  0.25213  0.44231  0.93293  1.0000
  H   H505      1.0  0.31694  0.44844  0.96154  1.0000
  N   N21       1.0  0.30705  0.36469  0.83972  1.0000
  C   C314      1.0  0.30622  0.32367  0.84336  1.0000
  C   C315      1.0  0.32304  0.38278  0.85104  1.0000
  C   C316      1.0  0.31962  0.36776  0.82714  1.0000
  C   C317      1.0  0.27986  0.38036  0.83757  1.0000
  C   C318      1.0  0.29315  0.29849  0.83254  1.0000
  C   C319      1.0  0.31224  0.38153  0.86454  1.0000
  C   C320      1.0  0.33131  0.40541  0.82404  1.0000
  C   C321      1.0  0.27579  0.42301  0.83562  1.0000
  H   H506      1.0  0.32597  0.31158  0.84629  1.0000
  H   H507      1.0  0.29591  0.31953  0.85216  1.0000
  H   H508      1.0  0.32621  0.41256  0.84887  1.0000
  H   H509      1.0  0.34268  0.36946  0.85257  1.0000
  H   H510      1.0  0.33567  0.34656  0.82726  1.0000
  H   H511      1.0  0.30577  0.36131  0.81835  1.0000
  H   H512      1.0  0.26912  0.36820  0.82866  1.0000
  H   H513      1.0  0.26898  0.37162  0.84573  1.0000
  H   H514      1.0  0.30313  0.29803  0.82353  1.0000
  H   H515      1.0  0.29373  0.26933  0.83654  1.0000
  H   H516      1.0  0.27263  0.30650  0.82983  1.0000
  H   H517      1.0  0.32459  0.39799  0.87177  1.0000
  H   H518      1.0  0.29256  0.39410  0.86392  1.0000
  H   H519      1.0  0.31254  0.35275  0.86882  1.0000
  H   H520      1.0  0.34884  0.41033  0.83096  1.0000
  H   H521      1.0  0.31758  0.42937  0.82403  1.0000
  H   H522      1.0  0.33726  0.40455  0.81391  1.0000
  H   H523      1.0  0.27429  0.43111  0.82493  1.0000
  H   H524      1.0  0.29053  0.43949  0.84131  1.0000
  H   H525      1.0  0.25750  0.43161  0.83937  1.0000
  H   H526      1.0  0.11863  0.50164  0.97514  1.0000
  C   C322      1.0  0.46408  0.40974  0.76648  1.0000
  H   H527      1.0  0.15666  0.44631  0.96679  1.0000
  C   C323      1.0  0.08818  0.18895  0.78270  1.0000
  H   H528      1.0  0.28606  0.50734  0.96434  1.0000
  H   H529      1.0  0.40255  0.17386  0.95944  1.0000
  C   C324      1.0  0.06038  0.25752  0.76553  1.0000
  C   C325      1.0  0.41726  0.15615  0.94134  1.0000
  H   H530      1.0  0.22911  0.47591  0.75958  1.0000
  H   H531      1.0  0.04230  0.20224  0.76662  1.0000
  H   H532      1.0  0.42918  0.18130  0.94152  1.0000
  C   C326      1.0  0.21288  0.07840  0.92710  1.0000
  H   H533      1.0  0.36318  0.49244  0.94311  1.0000
  H   H534      1.0  0.44827  0.33591  0.75697  1.0000
  H   H535      1.0  0.37889  0.18505  0.92315  1.0000
  H   H536      1.0  0.33850  0.43758  0.76538  1.0000
  H   H537      1.0  0.25315  0.48525  0.80295  1.0000
  H   H538      1.0  0.18533  0.47031  0.96527  1.0000
  C   C327      1.0  0.47603  0.40211  0.75520  1.0000
  H   H539      1.0  0.46145  0.17360  0.92888  1.0000
  H   H540      1.0  0.48690  0.37426  0.95047  1.0000
  H   H541      1.0  0.48888  0.35299  0.93006  1.0000
  S   S100      1.0  0.23677  0.47972  0.95572  1.0000
  H   H542      1.0  0.20856  0.48334  0.78714  1.0000
  C   C328      1.0  0.48182  0.26483  0.76461  1.0000
  H   H543      1.0  0.38504  0.05709  0.93403  1.0000
  H   H544      1.0  0.17370  0.02579  0.92337  1.0000
  H   H545      1.0  0.31144  0.46318  0.97745  1.0000
  H   H546      1.0  0.41795  0.06417  0.93226  1.0000
  C   C329      1.0  0.10639  0.30656  0.77423  1.0000
  H   H547      1.0  0.38320  0.19080  0.94486  1.0000
  H   H548      1.0  0.11559  0.33168  0.77061  1.0000
  H   H549      1.0  0.08745  0.31559  0.77706  1.0000
  H   H550      1.0  0.11915  0.29595  0.78313  1.0000
  H   H551      1.0  0.09076  0.16714  0.77534  1.0000
  H   H552      1.0  0.34445  0.33057  0.74843  1.0000
  H   H553      1.0  0.23782  0.46821  0.78226  1.0000
  N   N22       1.0  0.21667  0.05728  0.94022  1.0000
  H   H554      1.0  0.20974  0.20935  0.98877  1.0000
  H   H555      1.0  0.18807  0.46002  0.76874  1.0000
  S   S101      1.0  0.04171  0.14469  0.74296  1.0000
  H   H556      1.0  0.14862  0.06146  0.80226  1.0000
  S   S102      1.0  0.37477  0.39608  0.74401  1.0000
  C   C330      1.0  0.26342  0.02906  0.94211  1.0000
  C   C331      1.0  0.15840  0.50289  0.92898  1.0000
  H   H557      1.0  0.42419  0.51441  0.75594  1.0000
  C   C332      1.0  0.14929  0.51115  0.79447  1.0000
  C   C333      1.0  0.24087  0.50835  0.79787  1.0000
  C   C334      1.0  0.03940  0.22944  0.76126  1.0000
  Fe  Fe50      1.0  0.07644  0.10459  0.74568  1.0000
  H   H558      1.0  0.32846  0.28933  0.74359  1.0000
  H   H559      1.0  0.49513  0.40452  0.97057  1.0000
  H   H560      1.0  0.32075  0.49897  0.94813  1.0000
  H   H561      1.0  0.25650  0.31458  0.75072  1.0000
  C   C335      1.0  0.40040  0.07781  0.93528  1.0000
  H   H562      1.0  0.46737  0.41244  0.74558  1.0000
  H   H563      1.0  0.38198  0.14251  0.95026  1.0000
  C   C336      1.0  0.17449  0.43287  0.94964  1.0000
  H   H564      1.0  0.40371  0.15272  0.89985  1.0000
  C   C337      1.0  0.39473  0.16620  0.94923  1.0000
  H   H565      1.0  0.42957  0.13439  0.94722  1.0000
  H   H566      1.0  0.35565  0.44789  0.94998  1.0000
  C   C338      1.0  0.09155  0.21641  0.75492  1.0000
  C   C339      1.0  0.39720  0.17692  0.91932  1.0000
  C   C340      1.0  0.45339  0.16123  0.91944  1.0000
  H   H567      1.0  0.18429  0.40844  0.95523  1.0000
  H   H568      1.0  0.08083  0.03281  0.79199  1.0000
  H   H569      1.0  0.15043  0.48613  0.98277  1.0000
  H   H570      1.0  0.05582  0.28235  0.75878  1.0000
  N   N23       1.0  0.41009  0.14415  0.92726  1.0000
  H   H571      1.0  0.38991  0.19827  0.89896  1.0000
  H   H572      1.0  0.05694  0.26753  0.77550  1.0000
  C   C341      1.0  0.47592  0.39679  0.77895  1.0000
  H   H573      1.0  0.09629  0.29279  0.75390  1.0000
  H   H574      1.0  0.02049  0.24131  0.76325  1.0000
  C   C342      1.0  0.21050  0.11719  0.95346  1.0000
  C   C343      1.0  0.43424  0.13084  0.92185  1.0000
  C   C344      1.0  0.38992  0.17093  0.90434  1.0000
  H   H575      1.0  0.38753  0.10309  0.91620  1.0000
  H   H576      1.0  0.37051  0.15925  0.90242  1.0000
  C   C345      1.0  0.10405  0.27734  0.76321  1.0000
  H   H577      1.0  0.46692  0.40286  0.78775  1.0000
  H   H578      1.0  0.09948  0.17862  0.79210  1.0000
  H   H579      1.0  0.13896  0.51336  0.92478  1.0000
  C   C346      1.0  0.39163  0.11271  0.92658  1.0000
  H   H580      1.0  0.44513  0.10993  0.92878  1.0000
  S   S103      1.0  0.43474  0.43597  0.76536  1.0000
  H   H581      1.0  0.13552  0.02362  0.81993  1.0000
  H   H582      1.0  0.15760  0.04239  0.78754  1.0000
  H   H583      1.0  0.37856  0.47465  0.97262  1.0000
  C   C347      1.0  0.23428  0.02328  0.93961  1.0000
  H   H584      1.0  0.37265  0.12235  0.92922  1.0000
  N   N24       1.0  0.45552  0.27325  0.74146  1.0000
  H   H585      1.0  0.18890  0.03856  0.81537  1.0000
  H   H586      1.0  0.10601  0.06112  0.79912  1.0000
  H   H587      1.0  0.42985  0.11554  0.91248  1.0000
  H   H588      1.0  0.09422  0.02335  0.80871  1.0000
  C   C348      1.0  0.15842  0.03670  0.79841  1.0000
  C   C349      1.0  0.22666  0.08143  0.95155  1.0000
  H   H589      1.0  0.48733  0.32931  0.95738  1.0000
  H   H590      1.0  0.24836  0.11150  0.93113  1.0000
  N   N25       1.0  0.15142  0.49580  0.95395  1.0000
  H   H591      1.0  0.19174  0.11079  0.95677  1.0000
  H   H592      1.0  0.20714  0.05909  0.91891  1.0000
  H   H593      1.0  0.19479  0.06418  0.80092  1.0000
  H   H594      1.0  0.19631  0.09880  0.92653  1.0000
  H   H595      1.0  0.35696  0.43418  0.98618  1.0000
  H   H596      1.0  0.07936  0.19196  0.75565  1.0000
  H   H597      1.0  0.40343  0.08416  0.94598  1.0000
  H   H598      1.0  0.26938  0.03453  0.95272  1.0000
  C   C350      1.0  0.19085  0.04397  0.94311  1.0000
  C   C351      1.0  0.16703  0.46184  0.95961  1.0000
  S   S104      1.0  0.20860  0.50479  0.98897  1.0000
  N   N26       1.0  0.08800  0.24413  0.76560  1.0000
  H   H599      1.0  0.38828  0.46218  0.95114  1.0000
  C   C352      1.0  0.36816  0.47220  0.95152  1.0000
  C   C353      1.0  0.32545  0.31979  0.74465  1.0000
  H   H600      1.0  0.15758  0.42238  0.94340  1.0000
  H   H601      1.0  0.17232  0.50039  0.75994  1.0000
  C   C354      1.0  0.09842  0.22702  0.77894  1.0000
  H   H602      1.0  0.22869  0.06492  0.96105  1.0000
  H   H603      1.0  0.45523  0.48511  0.74327  1.0000
  C   C355      1.0  0.26447  0.30148  0.74218  1.0000
  C   C356      1.0  0.36600  0.49111  0.96491  1.0000
  S   S105      1.0  0.11640  0.12363  0.74413  1.0000
  H   H604      1.0  0.27399  0.21915  0.98619  1.0000
  H   H605      1.0  0.41716  0.32665  0.76028  1.0000
  C   C357      1.0  0.34470  0.42674  0.97707  1.0000
  C   C358      1.0  0.48120  0.24869  0.92913  1.0000
  H   H606      1.0  0.12492  0.46530  0.94042  1.0000
  Fe  Fe51      1.0  0.09533  0.02664  0.75756  1.0000
  H   H607      1.0  0.22897  0.12329  0.91631  1.0000
  H   H608      1.0  0.18616  0.51246  0.94610  1.0000
  H   H609      1.0  0.22086  0.13365  0.96145  1.0000
  H   H610      1.0  0.18863  0.44399  0.94342  1.0000
  H   H611      1.0  0.33275  0.40349  0.97984  1.0000
  C   C359      1.0  0.21474  0.49873  0.76075  1.0000
  H   H612      1.0  0.17655  0.06762  0.94279  1.0000
  H   H613      1.0  0.26070  0.42508  0.74797  1.0000
  H   H614      1.0  0.11636  0.46848  0.95658  1.0000
  H   H615      1.0  0.45343  0.21658  0.74923  1.0000
  Fe  Fe52      1.0  0.40660  0.43653  0.74650  1.0000
  H   H616      1.0  0.11155  0.20448  0.75621  1.0000
  C   C360      1.0  0.12472  0.48473  0.94880  1.0000
  Fe  Fe53      1.0  0.25791  0.04447  0.98613  1.0000
  H   H617      1.0  0.03779  0.22446  0.75046  1.0000
  S   S106      1.0  0.21594  0.03622  0.98724  1.0000
  H   H618      1.0  0.06799  0.19148  0.78475  1.0000
  C   C361      1.0  0.32687  0.45931  0.97094  1.0000
  H   H619      1.0  0.28175  0.28503  0.74640  1.0000
  H   H620      1.0  0.35691  0.41524  0.96984  1.0000
  C   C362      1.0  0.49819  0.35560  0.95805  1.0000
  H   H621      1.0  0.26996  0.05166  0.93593  1.0000
  H   H622      1.0  0.49694  0.27038  0.74582  1.0000
  H   H623      1.0  0.49381  0.26701  0.91077  1.0000
  C   C363      1.0  0.13888  0.50946  0.97745  1.0000
  H   H624      1.0  0.24800  0.08038  0.91730  1.0000
  C   C364      1.0  0.09905  0.03221  0.79882  1.0000
  H   H625      1.0  0.15976  0.47237  0.92772  1.0000
  C   C365      1.0  0.42988  0.32554  0.75230  1.0000
  N   N27       1.0  0.33911  0.49608  0.96850  1.0000
  C   C366      1.0  0.16494  0.51504  0.94348  1.0000
  H   H626      1.0  0.42793  0.26606  0.75566  1.0000
  H   H627      1.0  0.46552  0.27443  0.76982  1.0000
  H   H628      1.0  0.47672  0.36516  0.97475  1.0000
  C   C367      1.0  0.18864  0.47981  0.76030  1.0000
  C   C368      1.0  0.22715  0.49403  0.78471  1.0000
  H   H629      1.0  0.27493  0.49534  0.77682  1.0000
  C   C369      1.0  0.49519  0.37356  0.97147  1.0000
  H   H630      1.0  0.09252  0.50954  0.93557  1.0000
  H   H631      1.0  0.26744  0.50154  0.75895  1.0000
  H   H632      1.0  0.48282  0.31127  0.75130  1.0000
  C   C370      1.0  0.43162  0.28521  0.74737  1.0000
  H   H633      1.0  0.48360  0.23391  0.76490  1.0000
  C   C371      1.0  0.08607  0.23184  0.74054  1.0000
  Fe  Fe54      1.0  0.38650  0.71760  0.04967  1.0000
  S   S107      1.0  0.37886  0.75606  0.06609  1.0000
  S   S108      1.0  0.35291  0.67917  0.04532  1.0000
  Fe  Fe55      1.0  0.44059  0.74848  0.04887  1.0000
  S   S109      1.0  0.43591  0.78943  0.06499  1.0000
  S   S110      1.0  0.47778  0.73902  0.03945  1.0000
  Fe  Fe56      1.0  0.41882  0.74177  0.07531  1.0000
  S   S111      1.0  0.43183  0.72030  0.09635  1.0000
  Fe  Fe57      1.0  0.39592  0.80033  0.05419  1.0000
  S   S112      1.0  0.37387  0.85652  0.05271  1.0000
  S   S113      1.0  0.42556  0.70007  0.05975  1.0000
  S   S114      1.0  0.40161  0.76269  0.03723  1.0000
  Fe  Fe58      1.0  0.39902  0.75656  0.16807  1.0000
  S   S115      1.0  0.36664  0.75686  0.18051  1.0000
  S   S116      1.0  0.38840  0.78304  0.14757  1.0000
  Fe  Fe59      1.0  0.43618  0.72325  0.19086  1.0000
  S   S117      1.0  0.40605  0.72147  0.20498  1.0000
  S   S118      1.0  0.47885  0.70719  0.19378  1.0000
  Fe  Fe60      1.0  0.38057  0.69899  0.18751  1.0000
  S   S119      1.0  0.34762  0.65836  0.18805  1.0000
  Fe  Fe61      1.0  0.39424  0.77957  0.19674  1.0000
  S   S120      1.0  0.37761  0.82789  0.20799  1.0000
  S   S121      1.0  0.41135  0.69739  0.17388  1.0000
  S   S122      1.0  0.42595  0.78266  0.18386  1.0000
  S   S123      1.0  0.40490  0.00034  0.21252  1.0000
  H   H634      1.0  0.34823  0.97672  0.23779  1.0000
  S   S124      1.0  0.24154  0.56475  0.00804  1.0000
  H   H635      1.0  0.30704  0.60305  0.14074  1.0000
  H   H636      1.0  0.35228  0.76538  0.00196  1.0000
  S   S125      1.0  0.23189  0.95286  0.00055  1.0000
  S   S126      1.0  0.30561  0.92164  0.00057  1.0000
  H   H637      1.0  0.35575  0.52858  0.00075  1.0000
  C   C372      1.0  0.38048  0.64854  0.12629  1.0000
  H   H638      1.0  0.33261  0.80553  0.00450  1.0000
  H   H639      1.0  0.48184  0.68408  0.10224  1.0000
  H   H640      1.0  0.34899  0.66257  0.11022  1.0000
  H   H641      1.0  0.29002  0.69834  0.01609  1.0000
  C   C373      1.0  0.49672  0.74092  0.09079  1.0000
  H   H642      1.0  0.01839  0.98602  0.23418  1.0000
  C   C374      1.0  0.36531  0.58793  0.18119  1.0000
  C   C375      1.0  0.34421  0.61142  0.18284  1.0000
  C   C376      1.0  0.31945  0.59706  0.18060  1.0000
  H   H643      1.0  0.26701  0.55039  0.19085  1.0000
  H   H644      1.0  0.33582  0.93281  0.23113  1.0000
  H   H645      1.0  0.38448  0.59842  0.18296  1.0000
  H   H646      1.0  0.30296  0.61505  0.18174  1.0000
  H   H647      1.0  0.30157  0.52275  0.23627  1.0000
  C   C377      1.0  0.38529  0.87590  0.20814  1.0000
  C   C378      1.0  0.41006  0.88778  0.20698  1.0000
  C   C379      1.0  0.41567  0.92597  0.20817  1.0000
  C   C380      1.0  0.39671  0.95269  0.21066  1.0000
  C   C381      1.0  0.37178  0.94094  0.21141  1.0000
  C   C382      1.0  0.36616  0.90279  0.21021  1.0000
  H   H648      1.0  0.42505  0.86742  0.20550  1.0000
  H   H649      1.0  0.43498  0.93477  0.20745  1.0000
  H   H650      1.0  0.35686  0.96135  0.21293  1.0000
  H   H651      1.0  0.34688  0.89398  0.21100  1.0000
  H   H652      1.0  0.38063  0.66212  0.10530  1.0000
  H   H653      1.0  0.38409  0.61927  0.12334  1.0000
  C   C383      1.0  0.35547  0.87543  0.03815  1.0000
  C   C384      1.0  0.33450  0.90008  0.03930  1.0000
  C   C385      1.0  0.31918  0.91498  0.02793  1.0000
  C   C386      1.0  0.32488  0.90559  0.01527  1.0000
  C   C387      1.0  0.34608  0.88140  0.01414  1.0000
  C   C388      1.0  0.36131  0.86644  0.02549  1.0000
  H   H654      1.0  0.32996  0.90746  0.04905  1.0000
  H   H655      1.0  0.30294  0.93357  0.02895  1.0000
  H   H656      1.0  0.35078  0.87425  0.00439  1.0000
  H   H657      1.0  0.37776  0.84828  0.02447  1.0000
  C   C389      1.0  0.42015  0.73917  0.11046  1.0000
  C   C390      1.0  0.42986  0.72452  0.12306  1.0000
  C   C391      1.0  0.42057  0.73806  0.13454  1.0000
  C   C392      1.0  0.40145  0.76638  0.13348  1.0000
  C   C393      1.0  0.39190  0.78126  0.12089  1.0000
  C   C394      1.0  0.40121  0.76772  0.10940  1.0000
  H   H658      1.0  0.44456  0.70247  0.12394  1.0000
  H   H659      1.0  0.42813  0.72654  0.14420  1.0000
  H   H660      1.0  0.37707  0.80313  0.12000  1.0000
  H   H661      1.0  0.39360  0.77915  0.09973  1.0000
  C   C395      1.0  0.34120  0.65560  0.03079  1.0000
  C   C396      1.0  0.31885  0.63518  0.03094  1.0000
  C   C397      1.0  0.30814  0.61687  0.01956  1.0000
  C   C398      1.0  0.31969  0.61890  0.00788  1.0000
  C   C399      1.0  0.34211  0.63927  0.00771  1.0000
  C   C400      1.0  0.35291  0.65748  0.01914  1.0000
  H   H662      1.0  0.30971  0.63351  0.03992  1.0000
  H   H663      1.0  0.29097  0.60118  0.01985  1.0000
  H   H664      1.0  0.27822  0.83333  0.00173  1.0000
  H   H665      1.0  0.37018  0.67303  0.01893  1.0000
  H   H666      1.0  0.28529  0.78546  0.00005  1.0000
  H   H667      1.0  0.27620  0.75794  0.03570  1.0000
  H   H668      1.0  0.30171  0.72373  0.03783  1.0000
  C   C401      1.0  0.31580  0.55971  0.17680  1.0000
  H   H669      1.0  0.40740  0.59112  0.14204  1.0000
  H   H670      1.0  0.35875  0.79000  0.01690  1.0000
  H   H671      1.0  0.46552  0.68843  0.22025  1.0000
  C   C402      1.0  0.29473  0.80733  0.02047  1.0000
  H   H672      1.0  0.30796  0.83087  0.01999  1.0000
  C   C403      1.0  0.29109  0.74384  0.03043  1.0000
  H   H673      1.0  0.31883  0.60730  0.21067  1.0000
  N   N28       1.0  0.30910  0.77201  0.02576  1.0000
  H   H674      1.0  0.33696  0.73083  0.02069  1.0000
  H   H675      1.0  0.31300  0.74215  0.00750  1.0000
  C   C404      1.0  0.49209  0.76498  0.10280  1.0000
  C   C405      1.0  0.32748  0.78193  0.03769  1.0000
  H   H676      1.0  0.48260  0.70407  0.06699  1.0000
  H   H677      1.0  0.26239  0.70306  0.02449  1.0000
  H   H678      1.0  0.30194  0.77965  0.05354  1.0000
  H   H679      1.0  0.32273  0.69190  0.14888  1.0000
  H   H680      1.0  0.34142  0.80238  0.03497  1.0000
  H   H681      1.0  0.33932  0.75697  0.04164  1.0000
  C   C406      1.0  0.27677  0.71928  0.01983  1.0000
  H   H682      1.0  0.26633  0.73566  0.01145  1.0000
  H   H683      1.0  0.25794  0.79966  0.00822  1.0000
  H   H684      1.0  0.28152  0.81733  0.02753  1.0000
  H   H685      1.0  0.37054  0.70040  0.11442  1.0000
  H   H686      1.0  0.39977  0.65995  0.12934  1.0000
  C   C407      1.0  0.32496  0.75462  0.01590  1.0000
  N   N29       1.0  0.38037  0.89631  0.16399  1.0000
  C   C408      1.0  0.35618  0.87444  0.16141  1.0000
  C   C409      1.0  0.38613  0.91167  0.15077  1.0000
  C   C410      1.0  0.37503  0.92784  0.17306  1.0000
  C   C411      1.0  0.40137  0.87004  0.17049  1.0000
  C   C412      1.0  0.34470  0.86018  0.17381  1.0000
  C   C413      1.0  0.39230  0.88232  0.14057  1.0000
  C   C414      1.0  0.39276  0.96143  0.17349  1.0000
  C   C415      1.0  0.42896  0.88425  0.17234  1.0000
  H   H687      1.0  0.34076  0.89145  0.15533  1.0000
  H   H688      1.0  0.35947  0.84917  0.15556  1.0000
  H   H689      1.0  0.40252  0.93051  0.15181  1.0000
  H   H690      1.0  0.36965  0.92960  0.14608  1.0000
  H   H691      1.0  0.35524  0.93994  0.17032  1.0000
  H   H692      1.0  0.37562  0.91724  0.18345  1.0000
  H   H693      1.0  0.39727  0.86137  0.18057  1.0000
  H   H694      1.0  0.40175  0.84313  0.16523  1.0000
  H   H695      1.0  0.35808  0.84052  0.17994  1.0000
  H   H696      1.0  0.33868  0.88319  0.18003  1.0000
  H   H697      1.0  0.32729  0.84436  0.17057  1.0000
  H   H698      1.0  0.39769  0.89687  0.13161  1.0000
  H   H699      1.0  0.40878  0.86347  0.14443  1.0000
  H   H700      1.0  0.37548  0.86550  0.13719  1.0000
  H   H701      1.0  0.41326  0.95337  0.17588  1.0000
  H   H702      1.0  0.38792  0.98025  0.18148  1.0000
  H   H703      1.0  0.38966  0.97825  0.16411  1.0000
  H   H704      1.0  0.43333  0.89704  0.18219  1.0000
  H   H705      1.0  0.43329  0.90404  0.16453  1.0000
  H   H706      1.0  0.44266  0.86019  0.17181  1.0000
  N   N30       1.0  0.36439  0.64958  0.13767  1.0000
  C   C416      1.0  0.38012  0.63091  0.14952  1.0000
  C   C417      1.0  0.35962  0.69011  0.14070  1.0000
  C   C418      1.0  0.33948  0.63047  0.13367  1.0000
  C   C419      1.0  0.39018  0.59075  0.14740  1.0000
  C   C420      1.0  0.30543  0.58583  0.21341  1.0000
  C   C421      1.0  0.32633  0.61213  0.14490  1.0000
  H   H707      1.0  0.36940  0.63008  0.15826  1.0000
  H   H708      1.0  0.39729  0.64743  0.15270  1.0000
  H   H709      1.0  0.34977  0.70585  0.13191  1.0000
  H   H710      1.0  0.32516  0.65047  0.12816  1.0000
  H   H711      1.0  0.34217  0.60779  0.12655  1.0000
  H   H712      1.0  0.39621  0.57684  0.15720  1.0000
  H   H713      1.0  0.37555  0.57345  0.14190  1.0000
  H   H714      1.0  0.35055  0.68408  0.16133  1.0000
  S   S127      1.0  0.30651  0.59660  0.99334  1.0000
  H   H715      1.0  0.33703  0.58667  0.14916  1.0000
  H   H716      1.0  0.35118  0.64093  0.99872  1.0000
  H   H717      1.0  0.32348  0.63106  0.15309  1.0000
  H   H718      1.0  0.33076  0.80399  0.05758  1.0000
  C   C422      1.0  0.48545  0.68043  0.21988  1.0000
  Fe  Fe62      1.0  0.22900  0.01248  0.00760  1.0000
  H   H719      1.0  0.30566  0.82640  0.04677  1.0000
  Fe  Fe63      1.0  0.27285  0.96572  0.99819  1.0000
  H   H720      1.0  0.37821  0.70375  0.14334  1.0000
  H   H721      1.0  0.34329  0.72881  0.15372  1.0000
  H   H722      1.0  0.36943  0.89543  0.23679  1.0000
  C   C423      1.0  0.31528  0.79883  0.04943  1.0000
  C   C424      1.0  0.27810  0.80568  0.00691  1.0000
  C   C425      1.0  0.36165  0.55055  0.17744  1.0000
  C   C426      1.0  0.33693  0.53604  0.17539  1.0000
  C   C427      1.0  0.36914  0.66971  0.11342  1.0000
  H   H723      1.0  0.29666  0.54936  0.17477  1.0000
  C   C428      1.0  0.34301  0.78087  0.00958  1.0000
  H   H724      1.0  0.32767  0.54543  0.20397  1.0000
  C   C429      1.0  0.34307  0.69835  0.15185  1.0000
  H   H725      1.0  0.25507  0.54434  0.20660  1.0000
  H   H726      1.0  0.28825  0.58876  0.20603  1.0000
  Fe  Fe64      1.0  0.27033  0.56335  0.99337  1.0000
  H   H727      1.0  0.31555  0.96645  0.23753  1.0000
  C   C430      1.0  0.49129  0.67871  0.07242  1.0000
  H   H728      1.0  0.47717  0.66706  0.07853  1.0000
  C   C431      1.0  0.31910  0.54709  0.21345  1.0000
  C   C432      1.0  0.33523  0.95355  0.23902  1.0000
  H   H729      1.0  0.30059  0.59308  0.22341  1.0000
  H   H730      1.0  0.33565  0.54792  0.22141  1.0000
  C   C433      1.0  0.26292  0.52958  0.19848  1.0000
  H   H731      1.0  0.49702  0.78714  0.06100  1.0000
  H   H732      1.0  0.49155  0.65946  0.24012  1.0000
  H   H733      1.0  0.47742  0.73319  0.08623  1.0000
  H   H734      1.0  0.37814  0.53259  0.17627  1.0000
  H   H735      1.0  0.27607  0.54451  0.22591  1.0000
  H   H736      1.0  0.03355  0.94092  0.23718  1.0000
  H   H737      1.0  0.48567  0.74831  0.11103  1.0000
  C   C434      1.0  0.49647  0.68632  0.20818  1.0000
  H   H738      1.0  0.38747  0.95849  0.23746  1.0000
  C   C435      1.0  0.28835  0.51868  0.22701  1.0000
  H   H739      1.0  0.47642  0.78598  0.09961  1.0000
  H   H740      1.0  0.49500  0.65812  0.06477  1.0000
  Fe  Fe65      1.0  0.21293  0.53915  0.48067  1.0000
  S   S128      1.0  0.19716  0.56996  0.46141  1.0000
  H   H741      1.0  0.34809  0.86844  0.24474  1.0000
  H   H742      1.0  0.14034  0.79796  0.47319  1.0000
  S   S129      1.0  0.23120  0.94676  0.47446  1.0000
  C   C436      1.0  0.03226  0.92973  0.28607  1.0000
  Fe  Fe66      1.0  0.06991  0.74031  0.40839  1.0000
  S   S130      1.0  0.06188  0.79944  0.41388  1.0000
  S   S131      1.0  0.06196  0.72267  0.38689  1.0000
  Fe  Fe67      1.0  0.08199  0.71429  0.43747  1.0000
  S   S132      1.0  0.07369  0.77176  0.44491  1.0000
  S   S133      1.0  0.09364  0.66986  0.45363  1.0000
  Fe  Fe68      1.0  0.03943  0.77421  0.42918  1.0000
  H   H743      1.0  0.03885  0.90051  0.28484  1.0000
  Fe  Fe69      1.0  0.09655  0.79158  0.42907  1.0000
  S   S134      1.0  0.12882  0.83245  0.43151  1.0000
  S   S135      1.0  0.04572  0.71522  0.42299  1.0000
  S   S136      1.0  0.10664  0.73398  0.42232  1.0000
  Fe  Fe70      1.0  0.04832  0.82428  0.29413  1.0000
  S   S137      1.0  0.07674  0.82036  0.27928  1.0000
  S   S138      1.0  0.19850  0.00859  0.48995  1.0000
  Fe  Fe71      1.0  0.08908  0.81118  0.31787  1.0000
  S   S139      1.0  0.12016  0.80632  0.30463  1.0000
  S   S140      1.0  0.10367  0.81250  0.33981  1.0000
  Fe  Fe72      1.0  0.10109  0.85623  0.29352  1.0000
  S   S141      1.0  0.12571  0.90247  0.28662  1.0000
  Fe  Fe73      1.0  0.09343  0.77047  0.29174  1.0000
  S   S142      1.0  0.11346  0.71904  0.28396  1.0000
  S   S143      1.0  0.07159  0.86347  0.30750  1.0000
  S   S144      1.0  0.06342  0.77214  0.30583  1.0000
  S   S145      1.0  0.07992  0.55173  0.27132  1.0000
  H   H744      1.0  0.13170  0.76023  0.45491  1.0000
  H   H745      1.0  0.41622  0.96576  0.24803  1.0000
  H   H746      1.0  0.00684  0.72944  0.38902  1.0000
  H   H747      1.0  0.04903  0.64102  0.32205  1.0000
  H   H748      1.0  0.00450  0.77832  0.40450  1.0000
  H   H749      1.0  0.21092  0.67889  0.47189  1.0000
  C   C437      1.0  0.15370  0.96569  0.29090  1.0000
  C   C438      1.0  0.13283  0.94559  0.29439  1.0000
  C   C439      1.0  0.11788  0.96072  0.30361  1.0000
  H   H750      1.0  0.01826  0.97880  0.27454  1.0000
  H   H751      1.0  0.10704  0.90706  0.32942  1.0000
  H   H752      1.0  0.16527  0.95441  0.28370  1.0000
  H   H753      1.0  0.10161  0.94582  0.30630  1.0000
  H   H754      1.0  0.18597  0.74067  0.44780  1.0000
  C   C440      1.0  0.10339  0.67304  0.28010  1.0000
  C   C441      1.0  0.07863  0.66154  0.28145  1.0000
  C   C442      1.0  0.07187  0.62438  0.27872  1.0000
  C   C443      1.0  0.08958  0.59835  0.27440  1.0000
  C   C444      1.0  0.11429  0.60996  0.27295  1.0000
  C   C445      1.0  0.12114  0.64701  0.27584  1.0000
  H   H755      1.0  0.06467  0.68131  0.28454  1.0000
  H   H756      1.0  0.05268  0.61576  0.27983  1.0000
  H   H757      1.0  0.12816  0.59035  0.26967  1.0000
  H   H758      1.0  0.14035  0.65556  0.27473  1.0000
  C   C446      1.0  0.07275  0.74919  0.37394  1.0000
  C   C447      1.0  0.06219  0.74356  0.36077  1.0000
  C   C448      1.0  0.07082  0.76365  0.35020  1.0000
  C   C449      1.0  0.09052  0.78887  0.35273  1.0000
  C   C450      1.0  0.10081  0.79479  0.36591  1.0000
  C   C451      1.0  0.09181  0.77532  0.37649  1.0000
  H   H759      1.0  0.04722  0.72366  0.35877  1.0000
  H   H760      1.0  0.06249  0.75927  0.34010  1.0000
  H   H761      1.0  0.11597  0.81435  0.36797  1.0000
  H   H762      1.0  0.10001  0.77994  0.38660  1.0000
  H   H763      1.0  0.01190  0.93615  0.26662  1.0000
  C   C452      1.0  0.05900  0.91755  0.26106  1.0000
  C   C453      1.0  0.15538  0.89053  0.47054  1.0000
  C   C454      1.0  0.17046  0.89028  0.46010  1.0000
  C   C455      1.0  0.16188  0.87280  0.44816  1.0000
  C   C456      1.0  0.13822  0.85524  0.44654  1.0000
  C   C457      1.0  0.12294  0.85586  0.45691  1.0000
  C   C458      1.0  0.13151  0.87346  0.46886  1.0000
  H   H764      1.0  0.18881  0.90336  0.46122  1.0000
  H   H765      1.0  0.17373  0.87269  0.44015  1.0000
  H   H766      1.0  0.10455  0.84279  0.45573  1.0000
  H   H767      1.0  0.00171  0.87363  0.24238  1.0000
  C   C459      1.0  0.16806  0.59696  0.45931  1.0000
  C   C460      1.0  0.16150  0.61812  0.44751  1.0000
  C   C461      1.0  0.13874  0.64049  0.44557  1.0000
  C   C462      1.0  0.12216  0.64147  0.45536  1.0000
  C   C463      1.0  0.12859  0.61994  0.46708  1.0000
  C   C464      1.0  0.15151  0.59799  0.46910  1.0000
  H   H768      1.0  0.17418  0.61744  0.43987  1.0000
  H   H769      1.0  0.13397  0.65681  0.43649  1.0000
  H   H770      1.0  0.11583  0.62045  0.47469  1.0000
  H   H771      1.0  0.15627  0.58171  0.47820  1.0000
  H   H772      1.0  0.02269  0.84390  0.26345  1.0000
  H   H773      1.0  0.05138  0.00826  0.28662  1.0000
  H   H774      1.0  0.16364  0.96673  0.35075  1.0000
  C   C465      1.0  0.11463  0.73786  0.47932  1.0000
  H   H775      1.0  0.11009  0.68500  0.35890  1.0000
  H   H776      1.0  0.13104  0.69834  0.34157  1.0000
  H   H777      1.0  0.03308  0.79414  0.38793  1.0000
  H   H778      1.0  0.11965  0.87368  0.47686  1.0000
  H   H779      1.0  0.13537  0.87349  0.34736  1.0000
  N   N31       1.0  0.36457  0.91321  0.25667  1.0000
  H   H780      1.0  0.01373  0.77725  0.37396  1.0000
  H   H781      1.0  0.26452  0.53083  0.43343  1.0000
  C   C466      1.0  0.08732  0.66065  0.34168  1.0000
  H   H782      1.0  0.14572  0.91564  0.35424  1.0000
  C   C467      1.0  0.40073  0.94568  0.24562  1.0000
  H   H783      1.0  0.17307  0.78762  0.44943  1.0000
  C   C468      1.0  0.01676  0.80218  0.38028  1.0000
  H   H784      1.0  0.19223  0.85312  0.32015  1.0000
  H   H785      1.0  0.04602  0.94369  0.29335  1.0000
  H   H786      1.0  0.06882  0.70178  0.32029  1.0000
  C   C469      1.0  0.08166  0.91666  0.25266  1.0000
  H   H787      1.0  0.21227  0.55560  0.42943  1.0000
  H   H788      1.0  0.17189  0.99587  0.33799  1.0000
  H   H789      1.0  0.07260  0.61840  0.31292  1.0000
  H   H790      1.0  0.12009  0.72381  0.31238  1.0000
  H   H791      1.0  0.13897  0.89302  0.31799  1.0000
  H   H792      1.0  0.20037  0.74554  0.47012  1.0000
  C   C470      1.0  0.16818  0.75819  0.44758  1.0000
  H   H793      1.0  0.04300  0.90191  0.25586  1.0000
  H   H794      1.0  0.20979  0.87243  0.36332  1.0000
  H   H795      1.0  0.08864  0.97650  0.26793  1.0000
  H   H796      1.0  0.10238  0.92566  0.34505  1.0000
  C   C471      1.0  0.11836  0.63524  0.32760  1.0000
  H   H797      1.0  0.17271  0.80099  0.47043  1.0000
  C   C472      1.0  0.18650  0.72778  0.47459  1.0000
  H   H798      1.0  0.24367  0.54201  0.44550  1.0000
  H   H799      1.0  0.15763  0.94989  0.32406  1.0000
  H   H800      1.0  0.00606  0.95444  0.24542  1.0000
  H   H801      1.0  0.16723  0.85365  0.30663  1.0000
  N   N32       1.0  0.05014  0.95554  0.26516  1.0000
  C   C473      1.0  0.25605  0.51918  0.44212  1.0000
  H   H802      1.0  0.19299  0.91661  0.36129  1.0000
  C   C474      1.0  0.11665  0.70300  0.33269  1.0000
  S   S146      1.0  0.00544  0.83667  0.28959  1.0000
  C   C475      1.0  0.13220  0.71710  0.32184  1.0000
  H   H803      1.0  0.12049  0.95153  0.33443  1.0000
  C   C476      1.0  0.35754  0.92008  0.28131  1.0000
  H   H804      1.0  0.10029  0.91445  0.25914  1.0000
  S   S147      1.0  0.00115  0.80287  0.43224  1.0000
  N   N33       1.0  0.10121  0.66865  0.32977  1.0000
  C   C477      1.0  0.19126  0.88654  0.35931  1.0000
  H   H805      1.0  0.20365  0.88279  0.33995  1.0000
  H   H806      1.0  0.18247  0.84768  0.34395  1.0000
  C   C478      1.0  0.06236  0.64514  0.31451  1.0000
  H   H807      1.0  0.05902  0.99170  0.24895  1.0000
  H   H808      1.0  0.08016  0.89207  0.24614  1.0000
  H   H809      1.0  0.18239  0.89607  0.31077  1.0000
  C   C479      1.0  0.38755  0.93792  0.25813  1.0000
  C   C480      1.0  0.10401  0.65719  0.35527  1.0000
  H   H810      1.0  0.17641  0.87483  0.36498  1.0000
  H   H811      1.0  0.07225  0.68275  0.34263  1.0000
  H   H812      1.0  0.07699  0.63404  0.34052  1.0000
  H   H813      1.0  0.14675  0.62061  0.31434  1.0000
  C   C481      1.0  0.12642  0.63081  0.31349  1.0000
  H   H814      1.0  0.12097  0.63811  0.35507  1.0000
  H   H815      1.0  0.14814  0.69726  0.32031  1.0000
  C   C482      1.0  0.02725  0.95117  0.27265  1.0000
  H   H816      1.0  0.01393  0.92822  0.29046  1.0000
  C   C483      1.0  0.19024  0.68726  0.47008  1.0000
  C   C484      1.0  0.08087  0.67697  0.31820  1.0000
  H   H817      1.0  0.10869  0.60895  0.32976  1.0000
  H   H818      1.0  0.18950  0.93514  0.32760  1.0000
  C   C485      1.0  0.32489  0.00023  0.48724  1.0000
  H   H819      1.0  0.39132  0.83790  0.24097  1.0000
  H   H820      1.0  0.28846  0.53921  0.45518  1.0000
  H   H821      1.0  0.14120  0.74354  0.32513  1.0000
  H   H822      1.0  0.38238  0.96564  0.26206  1.0000
  C   C486      1.0  0.15494  0.87813  0.32435  1.0000
  C   C487      1.0  0.14087  0.90211  0.34460  1.0000
  C   C488      1.0  0.06621  0.01023  0.27976  1.0000
  H   H823      1.0  0.03195  0.00668  0.25630  1.0000
  H   H824      1.0  0.14726  0.85075  0.32711  1.0000
  H   H825      1.0  0.38078  0.87795  0.27345  1.0000
  N   N34       1.0  0.15961  0.74430  0.47176  1.0000
  H   H826      1.0  0.14490  0.71462  0.45412  1.0000
  H   H827      1.0  0.05021  0.65282  0.30507  1.0000
  C   C489      1.0  0.12391  0.99543  0.30932  1.0000
  H   H828      1.0  0.10326  0.71734  0.48426  1.0000
  C   C490      1.0  0.15961  0.78448  0.47590  1.0000
  H   H829      1.0  0.01548  0.84137  0.40229  1.0000
  C   C491      1.0  0.38805  0.85321  0.25008  1.0000
  H   H830      1.0  0.13620  0.63513  0.33474  1.0000
  C   C492      1.0  0.17142  0.93775  0.33224  1.0000
  H   H831      1.0  0.15834  0.75751  0.43728  1.0000
  C   C493      1.0  0.07213  0.97230  0.27368  1.0000
  H   H832      1.0  0.04056  0.82017  0.36537  1.0000
  H   H833      1.0  0.11402  0.76415  0.48487  1.0000
  H   H834      1.0  0.17999  0.66728  0.47585  1.0000
  H   H835      1.0  0.08909  0.68497  0.30906  1.0000
  H   H836      1.0  0.40644  0.86536  0.25411  1.0000
  N   N35       1.0  0.16332  0.89990  0.33664  1.0000
  C   C494      1.0  0.14993  0.74336  0.45716  1.0000
  H   H837      1.0  0.03619  0.85478  0.37724  1.0000
  H   H838      1.0  0.06564  0.89965  0.26995  1.0000
  C   C495      1.0  0.17624  0.96786  0.34283  1.0000
  H   H839      1.0  0.12514  0.65649  0.30724  1.0000
  C   C496      1.0  0.17573  0.87005  0.31514  1.0000
  S   S148      1.0  0.25561  0.54361  0.48576  1.0000
  H   H840      1.0  0.10388  0.72673  0.33503  1.0000
  H   H841      1.0  0.09234  0.64574  0.36274  1.0000
  C   C497      1.0  0.11651  0.92293  0.33780  1.0000
  H   H842      1.0  0.33865  0.95965  0.25994  1.0000
  H   H843      1.0  0.11526  0.60892  0.30801  1.0000
  C   C498      1.0  0.18558  0.87834  0.34441  1.0000
  C   C499      1.0  0.02617  0.83278  0.37128  1.0000
  H   H844      1.0  0.33749  0.93158  0.28001  1.0000
  H   H845      1.0  0.07981  0.95268  0.28190  1.0000
  S   S149      1.0  0.16616  0.91030  0.48599  1.0000
  H   H846      1.0  0.30953  0.98320  0.48210  1.0000
  H   H847      1.0  0.18412  0.68393  0.45936  1.0000
  H   H848      1.0  0.11228  0.00689  0.31647  1.0000
  C   C500      1.0  0.00371  0.85683  0.26302  1.0000
  H   H849      1.0  0.34728  0.87322  0.26894  1.0000
  H   H850      1.0  0.14021  0.69331  0.47526  1.0000
  C   C501      1.0  0.14222  0.72176  0.47936  1.0000
  H   H851      1.0  0.19663  0.96691  0.34727  1.0000
  H   H852      1.0  0.01047  0.84544  0.36418  1.0000
  H   H853      1.0  0.10482  0.74244  0.46913  1.0000
  C   C502      1.0  0.36270  0.89406  0.26989  1.0000
  C   C503      1.0  0.04211  0.98104  0.25329  1.0000
  C   C504      1.0  0.15999  0.00011  0.29678  1.0000
  H   H854      1.0  0.40304  0.92579  0.26559  1.0000
  Fe  Fe74      1.0  0.20142  0.94592  0.48854  1.0000
  H   H855      1.0  0.36005  0.90374  0.29082  1.0000
  H   H856      1.0  0.08192  0.94123  0.24594  1.0000
  H   H857      1.0  0.37102  0.94335  0.28239  1.0000
  H   H858      1.0  0.38246  0.83229  0.25732  1.0000
  Fe  Fe75      1.0  0.23061  0.00898  0.47721  1.0000
  C   C505      1.0  0.02404  0.96417  0.24199  1.0000
  H   H859      1.0  0.19295  0.72714  0.48543  1.0000
  H   H860      1.0  0.41002  0.92027  0.24202  1.0000
  H   H861      1.0  0.18951  0.53230  0.41837  1.0000
  C   C506      1.0  0.20283  0.52858  0.42769  1.0000
  H   H862      1.0  0.19084  0.52283  0.43572  1.0000
  C   C507      1.0  0.33994  0.93601  0.25308  1.0000
  H   H863      1.0  0.32306  0.91864  0.25423  1.0000
  C   C508      1.0  0.36649  0.88327  0.24657  1.0000
  H   H864      1.0  0.00346  0.87024  0.38836  1.0000
  H   H865      1.0  0.15058  0.71715  0.48988  1.0000
  H   H866      1.0  0.34066  0.00176  0.48091  1.0000
  H   H867      1.0  0.17637  0.01493  0.29417  1.0000
  H   H868      1.0  0.33950  0.95661  0.64208  1.0000
  H   H869      1.0  0.29766  0.00144  0.51810  1.0000
  H   H870      1.0  0.30825  0.80352  0.54158  1.0000
  C   C509      1.0  0.40451  0.89698  0.63945  1.0000
  S   S150      1.0  0.20519  0.54832  0.50163  1.0000
  S   S151      1.0  0.26054  0.59061  0.52290  1.0000
  H   H871      1.0  0.35425  0.75831  0.51043  1.0000
  C   C510      1.0  0.27733  0.73088  0.51474  1.0000
  C   C511      1.0  0.29561  0.79612  0.53251  1.0000
  Fe  Fe76      1.0  0.37938  0.74962  0.57621  1.0000
  S   S152      1.0  0.40613  0.79528  0.57266  1.0000
  S   S153      1.0  0.36202  0.74347  0.59560  1.0000
  Fe  Fe77      1.0  0.37693  0.72242  0.54753  1.0000
  S   S154      1.0  0.40386  0.76645  0.54194  1.0000
  S   S155      1.0  0.36268  0.68341  0.53090  1.0000
  Fe  Fe78      1.0  0.42726  0.75245  0.56165  1.0000
  S   S156      1.0  0.47021  0.73722  0.56646  1.0000
  Fe  Fe79      1.0  0.38055  0.80531  0.55334  1.0000
  S   S157      1.0  0.36446  0.86389  0.54777  1.0000
  S   S158      1.0  0.40175  0.70563  0.56648  1.0000
  S   S159      1.0  0.35234  0.76241  0.55762  1.0000
  Fe  Fe80      1.0  0.41752  0.78010  0.66984  1.0000
  S   S160      1.0  0.37909  0.77211  0.67675  1.0000
  S   S161      1.0  0.43149  0.76603  0.65023  1.0000
  Fe  Fe81      1.0  0.44022  0.81296  0.69600  1.0000
  S   S162      1.0  0.40327  0.80742  0.70511  1.0000
  H   H872      1.0  0.04995  0.77394  0.73255  1.0000
  Fe  Fe82      1.0  0.40140  0.75009  0.69586  1.0000
  S   S163      1.0  0.38706  0.69928  0.70675  1.0000
  Fe  Fe83      1.0  0.38364  0.82965  0.68536  1.0000
  S   S164      1.0  0.34856  0.86991  0.68165  1.0000
  S   S165      1.0  0.43968  0.75443  0.68828  1.0000
  S   S166      1.0  0.42047  0.83878  0.67694  1.0000
  H   H873      1.0  0.34050  0.96585  0.52655  1.0000
  H   H874      1.0  0.33251  0.94000  0.73205  1.0000
  H   H875      1.0  0.25405  0.80215  0.51459  1.0000
  H   H876      1.0  0.25939  0.83721  0.50278  1.0000
  C   C512      1.0  0.36851  0.97955  0.68194  1.0000
  S   S167      1.0  0.22982  0.93911  0.50707  1.0000
  H   H877      1.0  0.38096  0.00111  0.50006  1.0000
  C   C513      1.0  0.34780  0.91961  0.68067  1.0000
  C   C514      1.0  0.32409  0.93898  0.67727  1.0000
  C   C515      1.0  0.32258  0.97840  0.67626  1.0000
  H   H878      1.0  0.31786  0.96798  0.50455  1.0000
  H   H879      1.0  0.26692  0.52253  0.53690  1.0000
  C   C516      1.0  0.37004  0.94015  0.68294  1.0000
  H   H880      1.0  0.30679  0.92337  0.67534  1.0000
  H   H881      1.0  0.18807  0.78393  0.49378  1.0000
  N   N36       1.0  0.38632  0.65648  0.65697  1.0000
  H   H882      1.0  0.38843  0.92572  0.68550  1.0000
  C   C517      1.0  0.39245  0.64983  0.70648  1.0000
  C   C518      1.0  0.41173  0.63313  0.69995  1.0000
  C   C519      1.0  0.41508  0.59379  0.70003  1.0000
  C   C520      1.0  0.39963  0.57059  0.70685  1.0000
  C   C521      1.0  0.38076  0.58731  0.71363  1.0000
  C   C522      1.0  0.37712  0.62659  0.71336  1.0000
  H   H883      1.0  0.42426  0.65048  0.69499  1.0000
  H   H884      1.0  0.42990  0.58124  0.69485  1.0000
  H   H885      1.0  0.36866  0.56997  0.71890  1.0000
  H   H886      1.0  0.36225  0.63911  0.71852  1.0000
  C   C523      1.0  0.41158  0.76077  0.63519  1.0000
  C   C524      1.0  0.38501  0.75786  0.63475  1.0000
  C   C525      1.0  0.36995  0.75260  0.62254  1.0000
  C   C526      1.0  0.38133  0.75065  0.61072  1.0000
  C   C527      1.0  0.40783  0.75405  0.61118  1.0000
  C   C528      1.0  0.42290  0.75881  0.62339  1.0000
  H   H887      1.0  0.37614  0.75943  0.64380  1.0000
  H   H888      1.0  0.34941  0.75009  0.62220  1.0000
  H   H889      1.0  0.41677  0.75244  0.60213  1.0000
  H   H890      1.0  0.44346  0.76093  0.62366  1.0000
  C   C529      1.0  0.31231  0.89073  0.50906  1.0000
  C   C530      1.0  0.33410  0.86701  0.50907  1.0000
  C   C531      1.0  0.34953  0.85718  0.52099  1.0000
  C   C532      1.0  0.34355  0.87161  0.53297  1.0000
  C   C533      1.0  0.32183  0.89552  0.53296  1.0000
  C   C534      1.0  0.30607  0.90474  0.52107  1.0000
  H   H891      1.0  0.41213  0.64657  0.73813  1.0000
  H   H892      1.0  0.36653  0.83935  0.52087  1.0000
  H   H893      1.0  0.31727  0.90708  0.54219  1.0000
  H   H894      1.0  0.28936  0.92313  0.52117  1.0000
  C   C535      1.0  0.28968  0.61468  0.52528  1.0000
  C   C536      1.0  0.30770  0.61267  0.51624  1.0000
  C   C537      1.0  0.33022  0.63321  0.51832  1.0000
  C   C538      1.0  0.33502  0.65588  0.52945  1.0000
  C   C539      1.0  0.31711  0.65762  0.53857  1.0000
  C   C540      1.0  0.29453  0.63715  0.53647  1.0000
  H   H895      1.0  0.30423  0.59549  0.50760  1.0000
  H   H896      1.0  0.34395  0.63172  0.51120  1.0000
  H   H897      1.0  0.32051  0.67506  0.54714  1.0000
  H   H898      1.0  0.28067  0.63892  0.54351  1.0000
  H   H899      1.0  0.24404  0.79631  0.49711  1.0000
  H   H900      1.0  0.37613  0.57567  0.64814  1.0000
  H   H901      1.0  0.40492  0.91034  0.64928  1.0000
  C   C541      1.0  0.37795  0.95074  0.52183  1.0000
  C   C542      1.0  0.31131  0.77198  0.52381  1.0000
  N   N37       1.0  0.29714  0.75771  0.51119  1.0000
  H   H902      1.0  0.44578  0.88615  0.64336  1.0000
  H   H903      1.0  0.34426  0.81727  0.63717  1.0000
  C   C543      1.0  0.44283  0.54292  0.73660  1.0000
  H   H904      1.0  0.26227  0.98120  0.71835  1.0000
  C   C544      1.0  0.33721  0.94954  0.72219  1.0000
  H   H905      1.0  0.18948  0.53467  0.53880  1.0000
  H   H906      1.0  0.37633  0.86830  0.65625  1.0000
  H   H907      1.0  0.37256  0.95169  0.64831  1.0000
  C   C545      1.0  0.37375  0.85371  0.64662  1.0000
  H   H908      1.0  0.36227  0.69153  0.67852  1.0000
  H   H909      1.0  0.36086  0.62434  0.63315  1.0000
  H   H910      1.0  0.26915  0.95507  0.69646  1.0000
  H   H911      1.0  0.33921  0.85650  0.49979  1.0000
  H   H912      1.0  0.30428  0.99284  0.67347  1.0000
  H   H913      1.0  0.44797  0.56168  0.72856  1.0000
  H   H914      1.0  0.35734  0.67451  0.63034  1.0000
  H   H915      1.0  0.20584  0.54088  0.55502  1.0000
  H   H916      1.0  0.34939  0.64572  0.67556  1.0000
  H   H917      1.0  0.25809  0.55018  0.55010  1.0000
  H   H918      1.0  0.37943  0.64777  0.62212  1.0000
  C   C546      1.0  0.35533  0.93567  0.64499  1.0000
  H   H919      1.0  0.25541  0.72991  0.49471  1.0000
  H   H920      1.0  0.32723  0.78980  0.52166  1.0000
  C   C547      1.0  0.26289  0.71052  0.50300  1.0000
  H   H921      1.0  0.28915  0.82309  0.52746  1.0000
  C   C548      1.0  0.49817  0.75888  0.56223  1.0000
  H   H922      1.0  0.40791  0.60460  0.66188  1.0000
  H   H923      1.0  0.32297  0.70977  0.50995  1.0000
  C   C549      1.0  0.42867  0.62620  0.73874  1.0000
  C   C550      1.0  0.42829  0.86998  0.64067  1.0000
  H   H924      1.0  0.26268  0.74446  0.52018  1.0000
  C   C551      1.0  0.48398  0.84700  0.72926  1.0000
  N   N38       1.0  0.37895  0.87966  0.63544  1.0000
  Fe  Fe84      1.0  0.24803  0.54842  0.50695  1.0000
  H   H925      1.0  0.24091  0.52255  0.56863  1.0000
  C   C552      1.0  0.38091  0.85858  0.62278  1.0000
  H   H926      1.0  0.32047  0.74818  0.53010  1.0000
  C   C553      1.0  0.34480  0.99896  0.67869  1.0000
  C   C554      1.0  0.34051  0.75605  0.50129  1.0000
  C   C555      1.0  0.35612  0.85447  0.61314  1.0000
  C   C556      1.0  0.37115  0.65021  0.63165  1.0000
  H   H927      1.0  0.34499  0.66075  0.65091  1.0000
  H   H928      1.0  0.28353  0.78030  0.49159  1.0000
  H   H929      1.0  0.29912  0.93998  0.71401  1.0000
  H   H930      1.0  0.43971  0.67031  0.65463  1.0000
  H   H931      1.0  0.39425  0.87241  0.61662  1.0000
  H   H932      1.0  0.38950  0.83011  0.62504  1.0000
  H   H933      1.0  0.38788  0.82978  0.64779  1.0000
  C   C557      1.0  0.49144  0.85836  0.71708  1.0000
  H   H934      1.0  0.27932  0.78127  0.53588  1.0000
  H   H935      1.0  0.33974  0.90037  0.62959  1.0000
  H   H936      1.0  0.36426  0.99842  0.53185  1.0000
  H   H937      1.0  0.34596  0.92507  0.71761  1.0000
  H   H938      1.0  0.40860  0.63564  0.64177  1.0000
  C   C558      1.0  0.36005  0.67431  0.65755  1.0000
  H   H939      1.0  0.35998  0.83413  0.60541  1.0000
  H   H940      1.0  0.35017  0.88139  0.60789  1.0000
  H   H941      1.0  0.33988  0.84404  0.61792  1.0000
  H   H942      1.0  0.33136  0.85820  0.64482  1.0000
  C   C559      1.0  0.35048  0.67434  0.67135  1.0000
  C   C560      1.0  0.49704  0.79090  0.55406  1.0000
  C   C561      1.0  0.26432  0.98520  0.69736  1.0000
  H   H943      1.0  0.40789  0.91967  0.63225  1.0000
  H   H944      1.0  0.40225  0.67985  0.67568  1.0000
  H   H945      1.0  0.29947  0.81272  0.50232  1.0000
  C   C562      1.0  0.28592  0.78948  0.50208  1.0000
  H   H946      1.0  0.46872  0.82751  0.72950  1.0000
  H   H947      1.0  0.43919  0.64145  0.66953  1.0000
  H   H948      1.0  0.34966  0.91910  0.65340  1.0000
  H   H949      1.0  0.36713  0.56715  0.66451  1.0000
  H   H950      1.0  0.33075  0.68702  0.67037  1.0000
  H   H951      1.0  0.39605  0.96262  0.51936  1.0000
  H   H952      1.0  0.40278  0.70993  0.66170  1.0000
  C   C563      1.0  0.36933  0.58914  0.65689  1.0000
  H   H953      1.0  0.03162  0.84767  0.73334  1.0000
  C   C564      1.0  0.33430  0.98165  0.50082  1.0000
  H   H954      1.0  0.31722  0.96268  0.70276  1.0000
  C   C565      1.0  0.35897  0.91103  0.63300  1.0000
  H   H955      1.0  0.43007  0.61717  0.72849  1.0000
  H   H956      1.0  0.37144  0.92951  0.51450  1.0000
  H   H957      1.0  0.29470  0.52552  0.56541  1.0000
  H   H958      1.0  0.42784  0.84869  0.64866  1.0000
  C   C566      1.0  0.34710  0.83667  0.64551  1.0000
  C   C567      1.0  0.20880  0.53542  0.54461  1.0000
  S   S168      1.0  0.29400  0.90332  0.49380  1.0000
  H   H959      1.0  0.27307  0.00121  0.68977  1.0000
  H   H960      1.0  0.07538  0.82678  0.73855  1.0000
  S   S169      1.0  0.26155  0.00594  0.49436  1.0000
  C   C568      1.0  0.38871  0.61744  0.66289  1.0000
  H   H961      1.0  0.34562  0.81992  0.65469  1.0000
  C   C569      1.0  0.31269  0.96297  0.71317  1.0000
  H   H962      1.0  0.38260  0.93536  0.53149  1.0000
  C   C570      1.0  0.40539  0.68015  0.66506  1.0000
  C   C571      1.0  0.43402  0.66921  0.66479  1.0000
  C   C572      1.0  0.31627  0.73561  0.50418  1.0000
  H   H963      1.0  0.21852  0.55902  0.54033  1.0000
  H   H964      1.0  0.24635  0.69622  0.50645  1.0000
  H   H965      1.0  0.36357  0.92986  0.62481  1.0000
  H   H966      1.0  0.28649  0.70885  0.52181  1.0000
  H   H967      1.0  0.43080  0.85579  0.63128  1.0000
  H   H968      1.0  0.40088  0.68402  0.64025  1.0000
  H   H969      1.0  0.35952  0.70382  0.65383  1.0000
  H   H970      1.0  0.34977  0.60125  0.65417  1.0000
  H   H971      1.0  0.38585  0.99512  0.68375  1.0000
  H   H972      1.0  0.44589  0.68975  0.67057  1.0000
  H   H973      1.0  0.38828  0.61743  0.67382  1.0000
  C   C573      1.0  0.39298  0.65672  0.64286  1.0000
  C   C574      1.0  0.27197  0.99925  0.71155  1.0000
  H   H974      1.0  0.15543  0.77654  0.49724  1.0000
  S   S170      1.0  0.47892  0.83872  0.70192  1.0000
  H   H975      1.0  0.33596  0.78405  0.49662  1.0000
  H   H976      1.0  0.30722  0.72592  0.49442  1.0000
  S   S171      1.0  0.40466  0.52110  0.70655  1.0000
  H   H977      1.0  0.47858  0.80303  0.54997  1.0000
  N   N39       1.0  0.34828  0.00555  0.51121  1.0000
  H   H978      1.0  0.35202  0.97076  0.72363  1.0000
  C   C575      1.0  0.01030  0.77219  0.73439  1.0000
  Fe  Fe85      1.0  0.22955  0.00204  0.50708  1.0000
  H   H979      1.0  0.27532  0.68828  0.49935  1.0000
  C   C576      1.0  0.25942  0.80643  0.50451  1.0000
  H   H980      1.0  0.29576  0.98263  0.73612  1.0000
  Fe  Fe86      1.0  0.25946  0.94352  0.49304  1.0000
  H   H981      1.0  0.34673  0.95766  0.49847  1.0000
  C   C577      1.0  0.35690  0.98103  0.52331  1.0000
  H   H982      1.0  0.16500  0.82170  0.49252  1.0000
  H   H983      1.0  0.42278  0.53480  0.73342  1.0000
  C   C578      1.0  0.26586  0.52215  0.54778  1.0000
  H   H984      1.0  0.35070  0.73927  0.49433  1.0000
  H   H985      1.0  0.24318  0.98877  0.69489  1.0000
  C   C579      1.0  0.30360  0.00650  0.73087  1.0000
  C   C580      1.0  0.29376  0.51994  0.55466  1.0000
  H   H986      1.0  0.30468  0.54213  0.55026  1.0000
  N   N40       1.0  0.30042  0.00024  0.71612  1.0000
  H   H987      1.0  0.00602  0.79281  0.72605  1.0000
  H   H988      1.0  0.00782  0.74399  0.73014  1.0000
  H   H989      1.0  0.32411  0.00719  0.73498  1.0000
  C   C581      1.0  0.16753  0.79132  0.49075  1.0000
  H   H990      1.0  0.15416  0.73679  0.95399  1.0000
  H   H991      1.0  0.09200  0.77537  0.76308  1.0000
  S   S172      1.0  0.24067  0.57036  0.97552  1.0000
  H   H992      1.0  0.02031  0.55112  0.74128  1.0000
  S   S173      1.0  0.19934  0.95461  0.96150  1.0000
  C   C582      1.0  0.12919  0.53461  0.78830  1.0000
  Fe  Fe87      1.0  0.09668  0.71264  0.92957  1.0000
  S   S174      1.0  0.12388  0.75746  0.92572  1.0000
  S   S175      1.0  0.11457  0.65438  0.93312  1.0000
  Fe  Fe88      1.0  0.04893  0.76516  0.92395  1.0000
  S   S176      1.0  0.07353  0.81380  0.92015  1.0000
  C   C583      1.0  0.29598  0.52958  0.95949  1.0000
  Fe  Fe89      1.0  0.09478  0.77354  0.90824  1.0000
  S   S177      1.0  0.10614  0.78968  0.88795  1.0000
  Fe  Fe90      1.0  0.10038  0.79337  0.93792  1.0000
  S   S178      1.0  0.11747  0.82575  0.95589  1.0000
  S   S179      1.0  0.06919  0.72615  0.91117  1.0000
  S   S180      1.0  0.07425  0.74728  0.94274  1.0000
  Fe  Fe91      1.0  0.07293  0.71970  0.81461  1.0000
  S   S181      1.0  0.11414  0.72876  0.81219  1.0000
  S   S182      1.0  0.05689  0.71767  0.83446  1.0000
  Fe  Fe92      1.0  0.05892  0.70333  0.78525  1.0000
  S   S183      1.0  0.09962  0.71019  0.78095  1.0000
  H   H993      1.0  0.01629  0.63392  0.78367  1.0000
  Fe  Fe93      1.0  0.11131  0.67708  0.79984  1.0000
  S   S184      1.0  0.14535  0.63572  0.80451  1.0000
  Fe  Fe94      1.0  0.09902  0.76137  0.79348  1.0000
  S   S185      1.0  0.11877  0.81233  0.78589  1.0000
  S   S186      1.0  0.07066  0.66613  0.80322  1.0000
  S   S187      1.0  0.05775  0.75628  0.79688  1.0000
  S   S188      1.0  0.07698  0.97660  0.76680  1.0000
  C   C584      1.0  0.16493  0.96874  0.78232  1.0000
  H   H994      1.0  0.13906  0.53277  0.98455  1.0000
  C   C585      1.0  0.14594  0.58769  0.80070  1.0000
  C   C586      1.0  0.16592  0.56417  0.80696  1.0000
  H   H995      1.0  0.01977  0.74800  0.89378  1.0000
  Fe  Fe95      1.0  0.22224  0.97794  0.97999  1.0000
  H   H996      1.0  0.21606  0.57360  0.79370  1.0000
  C   C587      1.0  0.12737  0.57264  0.79148  1.0000
  H   H997      1.0  0.18030  0.57558  0.81417  1.0000
  C   C588      1.0  0.11077  0.54801  0.82720  1.0000
  H   H998      1.0  0.14252  0.93899  0.82251  1.0000
  H   H999      1.0  0.11191  0.59044  0.78658  1.0000
  C   C589      1.0  0.10651  0.85766  0.78055  1.0000
  C   C590      1.0  0.08332  0.87240  0.78401  1.0000
  C   C591      1.0  0.07464  0.90878  0.77969  1.0000
  C   C592      1.0  0.08891  0.93083  0.77182  1.0000
  C   C593      1.0  0.11194  0.91593  0.76823  1.0000
  C   C594      1.0  0.12079  0.87974  0.77269  1.0000
  H   H1000     1.0  0.07227  0.85596  0.79017  1.0000
  H   H1001     1.0  0.05677  0.92001  0.78252  1.0000
  H   H1002     1.0  0.12277  0.93206  0.76188  1.0000
  H   H1003     1.0  0.13871  0.86855  0.76990  1.0000
  C   C595      1.0  0.09489  0.76603  0.87331  1.0000
  C   C596      1.0  0.10215  0.77806  0.86108  1.0000
  C   C597      1.0  0.09151  0.76240  0.84910  1.0000
  C   C598      1.0  0.07302  0.73520  0.84926  1.0000
  C   C599      1.0  0.06615  0.72265  0.86149  1.0000
  C   C600      1.0  0.07742  0.73737  0.87346  1.0000
  H   H1004     1.0  0.11576  0.80005  0.86085  1.0000
  H   H1005     1.0  0.09697  0.77230  0.83974  1.0000
  H   H1006     1.0  0.05170  0.70191  0.86174  1.0000
  H   H1007     1.0  0.07183  0.72752  0.88277  1.0000
  C   C601      1.0  0.17685  0.91839  0.96024  1.0000
  C   C602      1.0  0.16876  0.90409  0.94766  1.0000
  C   C603      1.0  0.15063  0.87577  0.94612  1.0000
  C   C604      1.0  0.14012  0.86176  0.95714  1.0000
  C   C605      1.0  0.14818  0.87609  0.96972  1.0000
  C   C606      1.0  0.16651  0.90414  0.97129  1.0000
  H   H1008     1.0  0.17659  0.91494  0.93905  1.0000
  H   H1009     1.0  0.14467  0.86498  0.93640  1.0000
  H   H1010     1.0  0.14016  0.86548  0.97832  1.0000
  H   H1011     1.0  0.17242  0.91497  0.98101  1.0000
  C   C607      1.0  0.16088  0.62168  0.97304  1.0000
  C   C608      1.0  0.16975  0.61132  0.96113  1.0000
  C   C609      1.0  0.15555  0.62199  0.94893  1.0000
  C   C610      1.0  0.13279  0.64379  0.94853  1.0000
  C   C611      1.0  0.12441  0.65527  0.96042  1.0000
  C   C612      1.0  0.13833  0.64398  0.97263  1.0000
  H   H1012     1.0  0.18732  0.59467  0.96133  1.0000
  H   H1013     1.0  0.16228  0.61358  0.93974  1.0000
  H   H1014     1.0  0.10684  0.67201  0.96021  1.0000
  C   C613      1.0  0.47603  0.60139  0.76504  1.0000
  H   H1015     1.0  0.22025  0.60205  0.77916  1.0000
  H   H1016     1.0  0.18493  0.53492  0.77835  1.0000
  H   H1017     1.0  0.14095  0.75243  0.98916  1.0000
  N   N41       1.0  0.44431  0.56245  0.74972  1.0000
  H   H1018     1.0  0.44600  0.64155  0.74242  1.0000
  H   H1019     1.0  0.28432  0.53688  0.94987  1.0000
  H   H1020     1.0  0.17280  0.70439  0.93631  1.0000
  H   H1021     1.0  0.42131  0.60653  0.75774  1.0000
  H   H1022     1.0  0.00798  0.83825  0.74386  1.0000
  H   H1023     1.0  0.33317  0.54206  0.95407  1.0000
  C   C614      1.0  0.24655  0.54116  0.77046  1.0000
  C   C615      1.0  0.18554  0.72056  0.94348  1.0000
  H   H1024     1.0  0.19328  0.56150  0.76469  1.0000
  H   H1025     1.0  0.20073  0.80014  0.98486  1.0000
  H   H1026     1.0  0.17327  0.94116  0.77992  1.0000
  H   H1027     1.0  0.04549  0.79612  0.86187  1.0000
  H   H1028     1.0  0.09093  0.54279  0.82271  1.0000
  H   H1029     1.0  0.01188  0.78964  0.85954  1.0000
  C   C616      1.0  0.00402  0.66501  0.76556  1.0000
  H   H1030     1.0  0.13537  0.75316  0.97150  1.0000
  C   C617      1.0  0.03103  0.80046  0.88551  1.0000
  C   C618      1.0  0.03428  0.87945  0.75124  1.0000
  H   H1031     1.0  0.22674  0.51716  0.80458  1.0000
  H   H1032     1.0  0.17012  0.53260  0.96847  1.0000
  H   H1033     1.0  0.16011  0.00636  0.93716  1.0000
  H   H1034     1.0  0.06340  0.89927  0.88960  1.0000
  C   C619      1.0  0.21543  0.72533  0.97070  1.0000
  H   H1035     1.0  0.25288  0.56040  0.77851  1.0000
  H   H1036     1.0  0.02621  0.81972  0.84034  1.0000
  H   H1037     1.0  0.14695  0.94211  0.79768  1.0000
  H   H1038     1.0  0.20811  0.67470  0.98230  1.0000
  H   H1039     1.0  0.11563  0.53107  0.83645  1.0000
  H   H1040     1.0  0.45943  0.61952  0.76680  1.0000
  C   C620      1.0  0.11824  0.00456  0.79349  1.0000
  H   H1041     1.0  0.40485  0.58216  0.74465  1.0000
  H   H1042     1.0  0.48528  0.55315  0.75444  1.0000
  H   H1043     1.0  0.10915  0.97697  0.79273  1.0000
  C   C621      1.0  0.17339  0.72278  0.95654  1.0000
  C   C622      1.0  0.09196  0.78427  0.75260  1.0000
  H   H1044     1.0  0.28708  0.53356  0.76824  1.0000
  C   C623      1.0  0.43888  0.53402  0.76015  1.0000
  H   H1045     1.0  0.05156  0.77371  0.76725  1.0000
  C   C624      1.0  0.47096  0.57682  0.75275  1.0000
  H   H1046     1.0  0.06715  0.85182  0.89511  1.0000
  H   H1047     1.0  0.18956  0.59837  0.78462  1.0000
  H   H1048     1.0  0.48235  0.58396  0.77408  1.0000
  H   H1049     1.0  0.12046  0.97059  0.82953  1.0000
  N   N42       1.0  0.04465  0.80868  0.74943  1.0000
  H   H1050     1.0  0.23056  0.00182  0.94719  1.0000
  H   H1051     1.0  0.27378  0.00286  0.93987  1.0000
  C   C625      1.0  0.21746  0.68276  0.97350  1.0000
  H   H1052     1.0  0.19754  0.83674  0.97289  1.0000
  N   N43       1.0  0.14471  0.00155  0.80114  1.0000
  H   H1053     1.0  0.06142  0.85180  0.87175  1.0000
  C   C626      1.0  0.02882  0.84260  0.74393  1.0000
  C   C627      1.0  0.49710  0.85970  0.74119  1.0000
  H   H1054     1.0  0.02014  0.90143  0.74693  1.0000
  H   H1055     1.0  0.12351  0.53754  0.82002  1.0000
  H   H1056     1.0  0.15252  0.79027  0.98017  1.0000
  C   C628      1.0  0.19028  0.78261  0.96404  1.0000
  H   H1057     1.0  0.07876  0.84002  0.75544  1.0000
  H   H1058     1.0  0.42842  0.52483  0.77994  1.0000
  H   H1059     1.0  0.14755  0.97414  0.77518  1.0000
  H   H1060     1.0  0.13142  0.65225  0.98180  1.0000
  C   C629      1.0  0.07249  0.81699  0.74874  1.0000
  H   H1061     1.0  0.18701  0.74854  0.93883  1.0000
  C   C630      1.0  0.20123  0.54896  0.77453  1.0000
  C   C631      1.0  0.01378  0.79743  0.76712  1.0000
  C   C632      1.0  0.10581  0.51779  0.94430  1.0000
  C   C633      1.0  0.15857  0.96735  0.79675  1.0000
  S   S189      1.0  0.17732  0.60721  0.98857  1.0000
  H   H1062     1.0  0.34648  0.54882  0.97815  1.0000
  C   C634      1.0  0.04144  0.80047  0.76376  1.0000
  C   C635      1.0  0.14960  0.75973  0.98003  1.0000
  H   H1063     1.0  0.16083  0.54572  0.94315  1.0000
  S   S190      1.0  0.00604  0.77993  0.91858  1.0000
  H   H1064     1.0  0.22584  0.73841  0.97955  1.0000
  C   C636      1.0  0.12916  0.96364  0.82040  1.0000
  H   H1065     1.0  0.05063  0.82210  0.77025  1.0000
  H   H1066     1.0  0.22692  0.73165  0.96246  1.0000
  H   H1067     1.0  0.17110  0.79570  0.96059  1.0000
  H   H1068     1.0  0.40852  0.55940  0.77057  1.0000
  H   H1069     1.0  0.31987  0.52543  0.98317  1.0000
  N   N44       1.0  0.02440  0.82972  0.87465  1.0000
  H   H1070     1.0  0.49179  0.84996  0.75060  1.0000
  H   H1071     1.0  0.20071  0.78564  0.95520  1.0000
  N   N45       1.0  0.10303  0.60758  0.84057  1.0000
  C   C637      1.0  0.11498  0.59013  0.82925  1.0000
  C   C638      1.0  0.10793  0.64885  0.84004  1.0000
  C   C639      1.0  0.07453  0.60200  0.83802  1.0000
  C   C640      1.0  0.11459  0.58869  0.85343  1.0000
  H   H1072     1.0  0.03093  0.81200  0.89554  1.0000
  C   C641      1.0  0.13636  0.65942  0.84158  1.0000
  C   C642      1.0  0.05809  0.61700  0.84843  1.0000
  C   C643      1.0  0.11328  0.61080  0.86633  1.0000
  H   H1073     1.0  0.10771  0.60478  0.81968  1.0000
  H   H1074     1.0  0.13615  0.59320  0.83051  1.0000
  H   H1075     1.0  0.09883  0.66435  0.84763  1.0000
  H   H1076     1.0  0.09885  0.66156  0.83046  1.0000
  H   H1077     1.0  0.06656  0.61494  0.82825  1.0000
  H   H1078     1.0  0.07032  0.57185  0.83743  1.0000
  H   H1079     1.0  0.10557  0.56137  0.85477  1.0000
  H   H1080     1.0  0.13535  0.58195  0.85302  1.0000
  H   H1081     1.0  0.13949  0.54925  0.96151  1.0000
  H   H1082     1.0  0.02705  0.52235  0.75579  1.0000
  H   H1083     1.0  0.00460  0.85104  0.84725  1.0000
  H   H1084     1.0  0.13751  0.68992  0.84328  1.0000
  H   H1085     1.0  0.14792  0.64471  0.85006  1.0000
  H   H1086     1.0  0.14517  0.65413  0.83238  1.0000
  H   H1087     1.0  0.06012  0.64723  0.84994  1.0000
  H   H1088     1.0  0.06217  0.60116  0.85797  1.0000
  H   H1089     1.0  0.03755  0.61315  0.84481  1.0000
  H   H1090     1.0  0.10955  0.59113  0.87442  1.0000
  H   H1091     1.0  0.09819  0.63313  0.86585  1.0000
  H   H1092     1.0  0.13214  0.62277  0.86971  1.0000
  H   H1093     1.0  0.00200  0.82335  0.76462  1.0000
  Fe  Fe96      1.0  0.21189  0.56718  0.98998  1.0000
  N   N46       1.0  0.18858  0.74200  0.96784  1.0000
  H   H1094     1.0  0.24243  0.55975  0.76148  1.0000
  H   H1095     1.0  0.11304  0.95546  0.81312  1.0000
  C   C644      1.0  0.01381  0.76628  0.88492  1.0000
  C   C645      1.0  0.03823  0.77502  0.74100  1.0000
  H   H1096     1.0  0.03581  0.88595  0.87025  1.0000
  C   C646      1.0  0.17506  0.73709  0.98003  1.0000
  C   C647      1.0  0.00223  0.63648  0.77497  1.0000
  H   H1097     1.0  0.05110  0.79002  0.88551  1.0000
  H   H1098     1.0  0.00431  0.77308  0.76244  1.0000
  C   C648      1.0  0.02658  0.81111  0.86158  1.0000
  N   N47       1.0  0.22274  0.52099  0.77297  1.0000
  H   H1099     1.0  0.20943  0.66671  0.96484  1.0000
  H   H1100     1.0  0.16946  0.69383  0.95951  1.0000
  H   H1101     1.0  0.20447  0.70559  0.94472  1.0000
  C   C649      1.0  0.02384  0.83703  0.84912  1.0000
  H   H1102     1.0  0.01434  0.79264  0.77799  1.0000
  C   C650      1.0  0.20763  0.58229  0.78358  1.0000
  H   H1103     1.0  0.17680  0.96119  0.80333  1.0000
  H   H1104     1.0  0.25405  0.53124  0.79682  1.0000
  C   C651      1.0  0.05304  0.87283  0.89016  1.0000
  H   H1105     1.0  0.23802  0.67387  0.97568  1.0000
  C   C652      1.0  0.04356  0.86048  0.87601  1.0000
  C   C653      1.0  0.42868  0.54862  0.77277  1.0000
  H   H1106     1.0  0.44069  0.57011  0.77778  1.0000
  S   S191      1.0  0.02902  0.69740  0.76726  1.0000
  S   S192      1.0  0.26332  0.98841  0.97721  1.0000
  H   H1107     1.0  0.03897  0.85802  0.84956  1.0000
  H   H1108     1.0  0.11505  0.52336  0.78094  1.0000
  H   H1109     1.0  0.99937  0.71708  0.93677  1.0000
  H   H1110     1.0  0.03218  0.87694  0.76194  1.0000
  H   H1111     1.0  0.08867  0.75986  0.74614  1.0000
  C   C654      1.0  0.15047  0.52318  0.96504  1.0000
  H   H1112     1.0  0.49141  0.62102  0.76347  1.0000
  H   H1113     1.0  0.03750  0.87774  0.89640  1.0000
  C   C655      1.0  0.16747  0.52597  0.80397  1.0000
  C   C656      1.0  0.14350  0.99772  0.81584  1.0000
  H   H1114     1.0  0.23045  0.00957  0.92986  1.0000
  H   H1115     1.0  0.11159  0.79381  0.75164  1.0000
  C   C657      1.0  0.32327  0.51671  0.95706  1.0000
  H   H1116     1.0  0.11529  0.54336  0.94133  1.0000
  C   C658      1.0  0.01747  0.52283  0.74541  1.0000
  H   H1117     1.0  0.17044  0.70727  0.98150  1.0000
  H   H1118     1.0  0.37516  0.51871  0.96447  1.0000
  H   H1119     1.0  0.29633  0.55503  0.96559  1.0000
  H   H1120     1.0  0.09358  0.52445  0.95220  1.0000
  H   H1121     1.0  0.16316  0.99475  0.82128  1.0000
  H   H1122     1.0  0.17925  0.98995  0.78077  1.0000
  H   H1123     1.0  0.01611  0.74887  0.87621  1.0000
  H   H1124     1.0  0.22555  0.80577  0.97420  1.0000
  H   H1125     1.0  0.04336  0.74855  0.74679  1.0000
  C   C659      1.0  0.33952  0.52059  0.98045  1.0000
  C   C660      1.0  0.20452  0.80728  0.97465  1.0000
  H   H1126     1.0  0.05349  0.88992  0.74994  1.0000
  H   H1127     1.0  0.47697  0.59221  0.74406  1.0000
  H   H1128     1.0  0.19043  0.98854  0.93369  1.0000
  C   C661      1.0  0.42395  0.59351  0.74818  1.0000
  C   C662      1.0  0.17843  0.01458  0.93365  1.0000
  H   H1129     1.0  0.11926  0.01343  0.78302  1.0000
  H   H1130     1.0  0.45628  0.51607  0.76345  1.0000
  H   H1131     1.0  0.21385  0.51670  0.75160  1.0000
  C   C663      1.0  0.27011  0.51598  0.76855  1.0000
  H   H1132     1.0  0.17216  0.51556  0.92284  1.0000
  H   H1133     1.0  0.19870  0.01456  0.80112  1.0000
  H   H1134     1.0  0.18767  0.74380  0.98922  1.0000
  Fe  Fe97      1.0  0.75242  0.43746  0.00566  1.0000
  S   S193      1.0  0.76654  0.39710  0.02271  1.0000
  H   H1135     1.0  0.96479  0.22974  0.09670  1.0000
  H   H1136     1.0  0.86902  0.42169  0.07915  1.0000
  S   S194      1.0  0.74323  0.04312  0.00297  1.0000
  S   S195      1.0  0.81936  0.06203  0.00591  1.0000
  Fe  Fe98      1.0  0.94600  0.23418  0.04958  1.0000
  S   S196      1.0  0.93201  0.21028  0.06804  1.0000
  H   H1137     1.0  0.67349  0.25752  0.99703  1.0000
  Fe  Fe99      1.0  0.89441  0.27637  0.04087  1.0000
  S   S197      1.0  0.87696  0.25689  0.05867  1.0000
  S   S198      1.0  0.87586  0.31549  0.02448  1.0000
  Fe  Fe100     1.0  0.91495  0.26796  0.07037  1.0000
  S   S199      1.0  0.92072  0.30649  0.08792  1.0000
  Fe  Fe101     1.0  0.89490  0.20079  0.05470  1.0000
  S   S200      1.0  0.86820  0.15222  0.05584  1.0000
  S   S201      1.0  0.93101  0.29215  0.05272  1.0000
  S   S202      1.0  0.91031  0.21996  0.03615  1.0000
  Fe  Fe102     1.0  0.94603  0.32623  0.18621  1.0000
  S   S203      1.0  0.91966  0.31771  0.20169  1.0000
  H   H1138     1.0  0.87514  0.22324  0.99758  1.0000
  Fe  Fe103     1.0  0.91159  0.28346  0.16546  1.0000
  S   S204      1.0  0.88219  0.27366  0.17952  1.0000
  S   S205      1.0  0.90671  0.25081  0.14637  1.0000
  Fe  Fe104     1.0  0.88825  0.33386  0.18522  1.0000
  S   S206      1.0  0.85706  0.37553  0.19016  1.0000
  Fe  Fe105     1.0  0.91596  0.25845  0.19459  1.0000
  S   S207      1.0  0.92182  0.20667  0.20851  1.0000
  S   S208      1.0  0.91479  0.34458  0.16992  1.0000
  S   S209      1.0  0.94523  0.26604  0.18035  1.0000
  H   H1139     1.0  0.96964  0.27197  0.10554  1.0000
  C   C664      1.0  0.85174  0.42221  0.18382  1.0000
  C   C665      1.0  0.83561  0.44695  0.18989  1.0000
  C   C666      1.0  0.99230  0.35208  0.21622  1.0000
  C   C667      1.0  0.83107  0.48426  0.18521  1.0000
  C   C668      1.0  0.85861  0.47243  0.16825  1.0000
  C   C669      1.0  0.86323  0.43522  0.17296  1.0000
  H   H1140     1.0  0.82654  0.43719  0.19827  1.0000
  H   H1141     1.0  0.65579  0.47122  0.22195  1.0000
  H   H1142     1.0  0.94823  0.48000  0.22620  1.0000
  H   H1143     1.0  0.87549  0.41651  0.16809  1.0000
  C   C670      1.0  0.90572  0.16359  0.20816  1.0000
  C   C671      1.0  0.91775  0.13242  0.21528  1.0000
  C   C672      1.0  0.90601  0.09749  0.21512  1.0000
  C   C673      1.0  0.88191  0.09333  0.20789  1.0000
  C   C674      1.0  0.86957  0.12473  0.20104  1.0000
  C   C675      1.0  0.88138  0.15963  0.20116  1.0000
  H   H1144     1.0  0.93648  0.13522  0.22083  1.0000
  H   H1145     1.0  0.91575  0.07370  0.22047  1.0000
  H   H1146     1.0  0.85081  0.12197  0.19552  1.0000
  H   H1147     1.0  0.87164  0.18350  0.19586  1.0000
  C   C676      1.0  0.91635  0.29097  0.10409  1.0000
  C   C677      1.0  0.90911  0.25458  0.10658  1.0000
  C   C678      1.0  0.90617  0.24287  0.11960  1.0000
  C   C679      1.0  0.91053  0.26734  0.13023  1.0000
  C   C680      1.0  0.91790  0.30373  0.12775  1.0000
  C   C681      1.0  0.92080  0.31549  0.11471  1.0000
  H   H1148     1.0  0.90566  0.23546  0.09849  1.0000
  H   H1149     1.0  0.90031  0.21476  0.12141  1.0000
  H   H1150     1.0  0.92128  0.32279  0.13587  1.0000
  H   H1151     1.0  0.92646  0.34369  0.11286  1.0000
  C   C682      1.0  0.83327  0.08477  0.02026  1.0000
  C   C683      1.0  0.85543  0.10529  0.01939  1.0000
  C   C684      1.0  0.86628  0.12611  0.03016  1.0000
  C   C685      1.0  0.85528  0.12621  0.04203  1.0000
  C   C686      1.0  0.83339  0.10512  0.04300  1.0000
  C   C687      1.0  0.82231  0.08469  0.03215  1.0000
  H   H1152     1.0  0.86412  0.10535  0.01026  1.0000
  H   H1153     1.0  0.88330  0.14176  0.02932  1.0000
  H   H1154     1.0  0.82483  0.10484  0.05217  1.0000
  H   H1155     1.0  0.80526  0.06906  0.03296  1.0000
  C   C688      1.0  0.84462  0.33561  0.02372  1.0000
  C   C689      1.0  0.83659  0.36228  0.01367  1.0000
  C   C690      1.0  0.81252  0.38085  0.01314  1.0000
  C   C691      1.0  0.79620  0.37269  0.02261  1.0000
  C   C692      1.0  0.80400  0.34543  0.03253  1.0000
  C   C693      1.0  0.82819  0.32698  0.03312  1.0000
  H   H1156     1.0  0.84924  0.36921  0.00639  1.0000
  H   H1157     1.0  0.80684  0.40198  0.00552  1.0000
  H   H1158     1.0  0.79142  0.33900  0.03989  1.0000
  H   H1159     1.0  0.83416  0.30651  0.04093  1.0000
  C   C694      1.0  0.80102  0.05923  0.23536  1.0000
  H   H1160     1.0  0.98665  0.29505  0.06124  1.0000
  S   S210      1.0  0.75412  0.49994  0.00717  1.0000
  H   H1161     1.0  0.89270  0.48135  0.07351  1.0000
  H   H1162     1.0  0.94957  0.13695  0.18789  1.0000
  H   H1163     1.0  0.97786  0.33109  0.21548  1.0000
  H   H1164     1.0  0.87227  0.08282  0.16318  1.0000
  H   H1165     1.0  0.96925  0.33752  0.08353  1.0000
  H   H1166     1.0  0.94772  0.11075  0.15957  1.0000
  H   H1167     1.0  0.80332  0.15554  0.99391  1.0000
  H   H1168     1.0  0.87745  0.08286  0.23689  1.0000
  H   H1169     1.0  0.67443  0.38578  0.22585  1.0000
  H   H1170     1.0  0.81210  0.18759  0.04038  1.0000
  H   H1171     1.0  0.91762  0.41946  0.05425  1.0000
  C   C695      1.0  0.70585  0.49312  0.22840  1.0000
  S   S211      1.0  0.98128  0.36215  0.18899  1.0000
  H   H1172     1.0  0.89194  0.05053  0.17372  1.0000
  H   H1173     1.0  0.86748  0.48208  0.15979  1.0000
  C   C696      1.0  0.86081  0.23402  0.00389  1.0000
  S   S212      1.0  0.86650  0.04970  0.20689  1.0000
  H   H1174     1.0  0.95647  0.18485  0.18636  1.0000
  H   H1175     1.0  0.83929  0.10925  0.22187  1.0000
  H   H1176     1.0  0.81694  0.27376  0.00810  1.0000
  H   H1177     1.0  0.70744  0.39599  0.22787  1.0000
  H   H1178     1.0  0.97726  0.33083  0.10078  1.0000
  H   H1179     1.0  0.81403  0.15686  0.01808  1.0000
  H   H1180     1.0  0.91316  0.37143  0.04919  1.0000
  H   H1181     1.0  0.81261  0.12824  0.22890  1.0000
  H   H1182     1.0  0.78713  0.18523  0.01991  1.0000
  H   H1183     1.0  0.89041  0.48565  0.19925  1.0000
  C   C697      1.0  0.80246  0.18117  0.01344  1.0000
  C   C698      1.0  0.78930  0.16858  0.99994  1.0000
  H   H1184     1.0  0.82999  0.41351  0.06655  1.0000
  Fe  Fe106     1.0  0.71357  0.50139  0.99730  1.0000
  H   H1185     1.0  0.83593  0.17955  0.22293  1.0000
  H   H1186     1.0  0.67103  0.19425  0.99753  1.0000
  H   H1187     1.0  0.90250  0.38480  0.21371  1.0000
  H   H1188     1.0  0.97031  0.27493  0.07998  1.0000
  H   H1189     1.0  0.95330  0.14483  0.13917  1.0000
  H   H1190     1.0  0.87123  0.19001  0.17049  1.0000
  H   H1191     1.0  0.79724  0.23362  0.03689  1.0000
  H   H1192     1.0  0.92694  0.09211  0.17732  1.0000
  H   H1193     1.0  0.78427  0.27935  0.02155  1.0000
  C   C699      1.0  0.80454  0.24909  0.00708  1.0000
  H   H1194     1.0  0.82811  0.38199  0.05332  1.0000
  C   C700      1.0  0.88768  0.15274  0.15644  1.0000
  H   H1195     1.0  0.92490  0.19529  0.16678  1.0000
  C   C701      1.0  0.83987  0.20497  0.00452  1.0000
  H   H1196     1.0  0.96325  0.49454  0.20365  1.0000
  C   C702      1.0  0.93050  0.12609  0.15440  1.0000
  C   C703      1.0  0.92371  0.16912  0.17270  1.0000
  H   H1197     1.0  0.84899  0.20281  0.02949  1.0000
  C   C704      1.0  0.68792  0.40878  0.22798  1.0000
  H   H1198     1.0  0.86889  0.38799  0.03870  1.0000
  H   H1199     1.0  0.84984  0.17797  0.00793  1.0000
  H   H1200     1.0  0.64181  0.49853  0.23338  1.0000
  C   C705      1.0  0.83195  0.22204  0.02689  1.0000
  C   C706      1.0  0.95593  0.46662  0.20586  1.0000
  H   H1201     1.0  0.83966  0.25059  0.02740  1.0000
  H   H1202     1.0  0.86148  0.14203  0.17160  1.0000
  C   C707      1.0  0.84554  0.16199  0.23134  1.0000
  H   H1203     1.0  0.90107  0.06213  0.15777  1.0000
  H   H1204     1.0  0.87977  0.47613  0.05694  1.0000
  H   H1205     1.0  0.96520  0.15392  0.17399  1.0000
  C   C708      1.0  0.89249  0.07372  0.16632  1.0000
  C   C709      1.0  0.83373  0.12303  0.23089  1.0000
  H   H1206     1.0  0.87142  0.23886  0.01375  1.0000
  H   H1207     1.0  0.96926  0.44611  0.20192  1.0000
  H   H1208     1.0  0.91297  0.40785  0.03712  1.0000
  N   N48       1.0  0.81910  0.21466  0.01309  1.0000
  H   H1209     1.0  0.91092  0.17683  0.18022  1.0000
  H   H1210     1.0  0.94158  0.45081  0.16620  1.0000
  C   C710      1.0  0.84255  0.49723  0.17433  1.0000
  H   H1211     1.0  0.95088  0.17858  0.15166  1.0000
  N   N49       1.0  0.91252  0.13836  0.16412  1.0000
  H   H1212     1.0  0.93713  0.49891  0.18281  1.0000
  H   H1213     1.0  0.82651  0.22757  0.04767  1.0000
  N   N50       1.0  0.92897  0.46278  0.19914  1.0000
  C   C711      1.0  0.92914  0.47108  0.18451  1.0000
  C   C712      1.0  0.91023  0.49040  0.20413  1.0000
  C   C713      1.0  0.92017  0.42327  0.20084  1.0000
  C   C714      1.0  0.94477  0.44332  0.17694  1.0000
  H   H1214     1.0  0.92116  0.10578  0.14737  1.0000
  H   H1215     1.0  0.90921  0.47241  0.17935  1.0000
  H   H1216     1.0  0.87984  0.13195  0.14916  1.0000
  H   H1217     1.0  0.71871  0.46815  0.22799  1.0000
  H   H1218     1.0  0.90707  0.41504  0.19201  1.0000
  H   H1219     1.0  0.93669  0.40274  0.20148  1.0000
  S   S213      1.0  0.71053  0.43870  0.99746  1.0000
  H   H1220     1.0  0.96569  0.44461  0.18005  1.0000
  H   H1221     1.0  0.93874  0.41423  0.17795  1.0000
  H   H1222     1.0  0.86691  0.36190  0.08491  1.0000
  H   H1223     1.0  0.88554  0.42840  0.21105  1.0000
  H   H1224     1.0  0.83815  0.35052  0.07412  1.0000
  H   H1225     1.0  0.89888  0.11436  0.18159  1.0000
  H   H1226     1.0  0.89086  0.17778  0.15033  1.0000
  C   C715      1.0  0.81564  0.21750  0.03844  1.0000
  C   C716      1.0  0.77985  0.26132  0.01287  1.0000
  C   C717      1.0  0.95028  0.16009  0.18054  1.0000
  H   H1227     1.0  0.83507  0.46625  0.04919  1.0000
  H   H1228     1.0  0.79577  0.07124  0.22521  1.0000
  H   H1229     1.0  0.79507  0.02976  0.23503  1.0000
  H   H1230     1.0  0.90932  0.48644  0.21492  1.0000
  C   C718      1.0  0.94002  0.15736  0.14572  1.0000
  H   H1231     1.0  0.92410  0.17139  0.13911  1.0000
  C   C719      1.0  0.90831  0.10534  0.17294  1.0000
  H   H1232     1.0  0.86415  0.31745  0.07759  1.0000
  H   H1233     1.0  0.82922  0.43114  0.03666  1.0000
  H   H1234     1.0  0.84855  0.17195  0.15802  1.0000
  H   H1235     1.0  0.68500  0.42937  0.21967  1.0000
  H   H1236     1.0  0.76812  0.23800  0.01558  1.0000
  C   C720      1.0  0.96001  0.46030  0.22099  1.0000
  C   C721      1.0  0.62873  0.44240  0.23236  1.0000
  H   H1237     1.0  0.80566  0.44204  0.04727  1.0000
  H   H1238     1.0  0.89876  0.41706  0.07330  1.0000
  H   H1239     1.0  0.91485  0.42446  0.22233  1.0000
  C   C722      1.0  0.86627  0.16457  0.16481  1.0000
  C   C723      1.0  0.90514  0.41528  0.21274  1.0000
  N   N51       1.0  0.86649  0.40132  0.05916  1.0000
  C   C724      1.0  0.87212  0.36106  0.06359  1.0000
  C   C725      1.0  0.87777  0.40703  0.04632  1.0000
  C   C726      1.0  0.83765  0.40770  0.05700  1.0000
  C   C727      1.0  0.87840  0.42569  0.07000  1.0000
  C   C728      1.0  0.85937  0.34766  0.07572  1.0000
  C   C729      1.0  0.90709  0.40100  0.04701  1.0000
  C   C730      1.0  0.82671  0.43882  0.04699  1.0000
  C   C731      1.0  0.87684  0.46819  0.06719  1.0000
  H   H1240     1.0  0.86622  0.34198  0.05532  1.0000
  H   H1241     1.0  0.89306  0.35544  0.06627  1.0000
  H   H1242     1.0  0.87330  0.43534  0.04191  1.0000
  H   H1243     1.0  0.81865  0.50294  0.19000  1.0000
  H   H1244     1.0  0.63564  0.41288  0.23246  1.0000
  H   H1245     1.0  0.61479  0.44725  0.22331  1.0000
  H   H1246     1.0  0.83969  0.04847  0.23119  1.0000
  Fe  Fe107     1.0  0.78463  0.02493  0.00256  1.0000
  H   H1247     1.0  0.86618  0.16025  0.22993  1.0000
  C   C732      1.0  0.65052  0.47022  0.23217  1.0000
  H   H1248     1.0  0.77563  0.14646  0.00169  1.0000
  C   C733      1.0  0.97908  0.25120  0.09963  1.0000
  S   S214      1.0  0.98512  0.23052  0.04187  1.0000
  H   H1249     1.0  0.98044  0.46506  0.22465  1.0000
  H   H1250     1.0  0.85828  0.48053  0.06952  1.0000
  H   H1251     1.0  0.95649  0.43101  0.22376  1.0000
  C   C734      1.0  0.99746  0.37150  0.20482  1.0000
  H   H1252     1.0  0.69209  0.49612  0.21926  1.0000
  C   C735      1.0  0.98794  0.26871  0.08702  1.0000
  H   H1253     1.0  0.99526  0.23691  0.10599  1.0000
  H   H1254     1.0  0.85300  0.26104  0.99936  1.0000
  C   C736      1.0  0.83023  0.06005  0.23953  1.0000
  H   H1255     1.0  0.98250  0.39533  0.09377  1.0000
  H   H1256     1.0  0.76717  0.27778  0.00517  1.0000
  H   H1257     1.0  0.50744  0.26990  0.23620  1.0000
  H   H1258     1.0  0.79979  0.24696  0.99614  1.0000
  H   H1259     1.0  0.83164  0.20088  0.99406  1.0000
  H   H1260     1.0  0.98738  0.34467  0.06444  1.0000
  C   C737      1.0  0.98591  0.33539  0.09142  1.0000
  H   H1261     1.0  0.77824  0.19172  0.99426  1.0000
  H   H1262     1.0  0.70294  0.24665  0.99145  1.0000
  H   H1263     1.0  0.71696  0.30483  0.99160  1.0000
  H   H1264     1.0  0.99825  0.24637  0.08215  1.0000
  C   C738      1.0  0.99782  0.37421  0.09234  1.0000
  H   H1265     1.0  0.67460  0.40381  0.24709  1.0000
  S   S215      1.0  0.69383  0.47498  0.45878  1.0000
  H   H1266     1.0  0.67955  0.29942  0.43132  1.0000
  C   C739      1.0  0.60802  0.05592  0.27679  1.0000
  H   H1267     1.0  0.72008  0.34604  0.44743  1.0000
  S   S216      1.0  0.69816  0.15587  0.47780  1.0000
  Fe  Fe108     1.0  0.54178  0.29431  0.41758  1.0000
  S   S217      1.0  0.56742  0.34092  0.41304  1.0000
  H   H1268     1.0  0.65015  0.44513  0.25758  1.0000
  Fe  Fe109     1.0  0.58769  0.24399  0.42917  1.0000
  S   S218      1.0  0.61666  0.28653  0.42543  1.0000
  S   S219      1.0  0.59662  0.18541  0.43756  1.0000
  Fe  Fe110     1.0  0.58921  0.32790  0.43314  1.0000
  S   S220      1.0  0.59792  0.36973  0.44961  1.0000
  Fe  Fe111     1.0  0.59241  0.29576  0.40558  1.0000
  S   S221      1.0  0.61024  0.30281  0.38638  1.0000
  S   S222      1.0  0.56159  0.28427  0.43822  1.0000
  S   S223      1.0  0.56558  0.25013  0.40884  1.0000
  Fe  Fe112     1.0  0.55948  0.21256  0.28405  1.0000
  S   S224      1.0  0.59633  0.23310  0.27795  1.0000
  H   H1269     1.0  0.58129  0.10560  0.30094  1.0000
  Fe  Fe113     1.0  0.57237  0.24444  0.31183  1.0000
  S   S225      1.0  0.60989  0.26748  0.30735  1.0000
  S   S226      1.0  0.55623  0.24334  0.33159  1.0000
  Fe  Fe114     1.0  0.58767  0.28711  0.28777  1.0000
  S   S227      1.0  0.58590  0.33914  0.27399  1.0000
  Fe  Fe115     1.0  0.61492  0.21156  0.29780  1.0000
  S   S228      1.0  0.65195  0.17588  0.29930  1.0000
  S   S229      1.0  0.54967  0.26731  0.29297  1.0000
  S   S230      1.0  0.57877  0.18773  0.30330  1.0000
  H   H1270     1.0  0.55226  0.42357  0.45229  1.0000
  C   C740      1.0  0.65353  0.12752  0.30361  1.0000
  C   C741      1.0  0.63544  0.11165  0.31085  1.0000
  C   C742      1.0  0.63725  0.07330  0.31425  1.0000
  H   H1271     1.0  0.60766  0.12454  0.28721  1.0000
  C   C743      1.0  0.67513  0.06600  0.30308  1.0000
  C   C744      1.0  0.67352  0.10458  0.29985  1.0000
  H   H1272     1.0  0.62011  0.12902  0.31389  1.0000
  H   H1273     1.0  0.62869  0.16182  0.27147  1.0000
  H   H1274     1.0  0.66402  0.17689  0.36775  1.0000
  H   H1275     1.0  0.68774  0.11661  0.29432  1.0000
  C   C745      1.0  0.59695  0.38566  0.27579  1.0000
  C   C746      1.0  0.61252  0.39701  0.28707  1.0000
  C   C747      1.0  0.62106  0.43405  0.28786  1.0000
  C   C748      1.0  0.61405  0.46034  0.27745  1.0000
  C   C749      1.0  0.59835  0.44906  0.26622  1.0000
  C   C750      1.0  0.59004  0.41195  0.26537  1.0000
  H   H1276     1.0  0.61804  0.37726  0.29518  1.0000
  H   H1277     1.0  0.63312  0.44242  0.29662  1.0000
  H   H1278     1.0  0.59246  0.46902  0.25823  1.0000
  H   H1279     1.0  0.57793  0.40365  0.25662  1.0000
  C   C751      1.0  0.59405  0.28823  0.37110  1.0000
  C   C752      1.0  0.60363  0.29772  0.35918  1.0000
  C   C753      1.0  0.59208  0.28473  0.34694  1.0000
  C   C754      1.0  0.57074  0.26219  0.34654  1.0000
  C   C755      1.0  0.56089  0.25329  0.35843  1.0000
  C   C756      1.0  0.57248  0.26618  0.37064  1.0000
  H   H1280     1.0  0.62011  0.31517  0.35942  1.0000
  H   H1281     1.0  0.59959  0.29232  0.33783  1.0000
  H   H1282     1.0  0.54429  0.23609  0.35820  1.0000
  H   H1283     1.0  0.56478  0.25884  0.37970  1.0000
  C   C757      1.0  0.66977  0.16335  0.46665  1.0000
  C   C758      1.0  0.65523  0.13365  0.46160  1.0000
  C   C759      1.0  0.63281  0.14068  0.45270  1.0000
  C   C760      1.0  0.62486  0.17740  0.44873  1.0000
  C   C761      1.0  0.63936  0.20708  0.45380  1.0000
  C   C762      1.0  0.66168  0.20005  0.46276  1.0000
  H   H1284     1.0  0.66120  0.10527  0.46451  1.0000
  H   H1285     1.0  0.62164  0.11758  0.44885  1.0000
  H   H1286     1.0  0.63310  0.23535  0.45090  1.0000
  H   H1287     1.0  0.67262  0.22302  0.46677  1.0000
  C   C763      1.0  0.66618  0.44767  0.45619  1.0000
  C   C764      1.0  0.65023  0.44204  0.46608  1.0000
  C   C765      1.0  0.62912  0.41867  0.46379  1.0000
  C   C766      1.0  0.62388  0.40044  0.45167  1.0000
  C   C767      1.0  0.63961  0.40645  0.44172  1.0000
  C   C768      1.0  0.66058  0.43008  0.44396  1.0000
  H   H1288     1.0  0.65427  0.45549  0.47552  1.0000
  H   H1289     1.0  0.61701  0.41430  0.47154  1.0000
  H   H1290     1.0  0.63566  0.39290  0.43229  1.0000
  H   H1291     1.0  0.67269  0.43453  0.43622  1.0000
  H   H1292     1.0  0.64939  0.25652  0.35643  1.0000
  S   S231      1.0  0.75183  0.49185  0.48545  1.0000
  H   H1293     1.0  0.66214  0.22925  0.32108  1.0000
  Fe  Fe116     1.0  0.71047  0.09671  0.48482  1.0000
  H   H1294     1.0  0.66264  0.28514  0.45001  1.0000
  H   H1295     1.0  0.87789  0.12236  0.24728  1.0000
  H   H1296     1.0  0.64522  0.33185  0.47271  1.0000
  H   H1297     1.0  0.50500  0.17166  0.38910  1.0000
  S   S232      1.0  0.53777  0.18007  0.26738  1.0000
  H   H1298     1.0  0.67530  0.37290  0.46625  1.0000
  C   C769      1.0  0.66174  0.19692  0.35912  1.0000
  H   H1299     1.0  0.71155  0.28191  0.43787  1.0000
  H   H1300     1.0  0.59405  0.08128  0.25281  1.0000
  H   H1301     1.0  0.59305  0.17578  0.33432  1.0000
  H   H1302     1.0  0.55507  0.07587  0.30146  1.0000
  H   H1303     1.0  0.51290  0.21897  0.39306  1.0000
  C   C770      1.0  0.64877  0.30532  0.46765  1.0000
  H   H1304     1.0  0.50405  0.42496  0.45561  1.0000
  C   C771      1.0  0.66337  0.22726  0.33207  1.0000
  H   H1305     1.0  0.63101  0.19216  0.32711  1.0000
  H   H1306     1.0  0.67198  0.24601  0.37073  1.0000
  H   H1307     1.0  0.63945  0.23387  0.37095  1.0000
  H   H1308     1.0  0.78984  0.07383  0.24240  1.0000
  C   C772      1.0  0.65080  0.14360  0.34491  1.0000
  C   C773      1.0  0.63927  0.20786  0.33589  1.0000
  H   H1309     1.0  0.53618  0.42818  0.42417  1.0000
  H   H1310     1.0  0.50774  0.24974  0.27124  1.0000
  H   H1311     1.0  0.69484  0.49179  0.26919  1.0000
  H   H1312     1.0  0.53775  0.07172  0.25721  1.0000
  H   H1313     1.0  0.67465  0.46223  0.27718  1.0000
  N   N52       1.0  0.84053  0.09790  0.24303  1.0000
  H   H1314     1.0  0.67581  0.15293  0.32933  1.0000
  H   H1315     1.0  0.70716  0.32011  0.42618  1.0000
  H   H1316     1.0  0.52763  0.18256  0.40327  1.0000
  H   H1317     1.0  0.68833  0.36089  0.44202  1.0000
  H   H1318     1.0  0.82839  0.10277  0.27566  1.0000
  H   H1319     1.0  0.58586  0.05546  0.29966  1.0000
  H   H1320     1.0  0.80371  0.08128  0.26544  1.0000
  H   H1321     1.0  0.90197  0.06884  0.25808  1.0000
  H   H1322     1.0  0.53838  0.20326  0.43767  1.0000
  H   H1323     1.0  0.74456  0.31015  0.46071  1.0000
  C   C774      1.0  0.68560  0.42451  0.24192  1.0000
  H   H1324     1.0  0.54371  0.37564  0.43682  1.0000
  H   H1325     1.0  0.70520  0.42349  0.24752  1.0000
  H   H1326     1.0  0.51860  0.41623  0.40218  1.0000
  H   H1327     1.0  0.69101  0.34254  0.47886  1.0000
  H   H1328     1.0  0.70868  0.49072  0.24932  1.0000
  C   C775      1.0  0.57282  0.07994  0.29674  1.0000
  H   H1329     1.0  0.69800  0.44121  0.26804  1.0000
  H   H1330     1.0  0.62302  0.05745  0.26996  1.0000
  H   H1331     1.0  0.61907  0.05986  0.28670  1.0000
  H   H1332     1.0  0.54538  0.35720  0.45821  1.0000
  H   H1333     1.0  0.54481  0.46481  0.44179  1.0000
  H   H1334     1.0  0.87699  0.08437  0.26725  1.0000
  C   C776      1.0  0.62252  0.13328  0.26881  1.0000
  H   H1335     1.0  0.63953  0.11434  0.27155  1.0000
  C   C777      1.0  0.55622  0.06147  0.25405  1.0000
  H   H1336     1.0  0.63645  0.13158  0.33740  1.0000
  H   H1337     1.0  0.68192  0.21282  0.33548  1.0000
  H   H1338     1.0  0.61701  0.13383  0.25793  1.0000
  H   H1339     1.0  0.62320  0.06133  0.31990  1.0000
  H   H1340     1.0  0.51219  0.36745  0.45956  1.0000
  H   H1341     1.0  0.51333  0.23368  0.24841  1.0000
  H   H1342     1.0  0.65283  0.49424  0.25623  1.0000
  H   H1343     1.0  0.54410  0.27332  0.26226  1.0000
  H   H1344     1.0  0.71559  0.39642  0.46030  1.0000
  H   H1345     1.0  0.68017  0.10865  0.33752  1.0000
  H   H1346     1.0  0.68124  0.19851  0.35613  1.0000
  H   H1347     1.0  0.52179  0.32462  0.45294  1.0000
  C   C778      1.0  0.69944  0.30726  0.43485  1.0000
  C   C779      1.0  0.51884  0.20674  0.43213  1.0000
  H   H1348     1.0  0.70320  0.26361  0.45836  1.0000
  C   C780      1.0  0.70025  0.33598  0.44601  1.0000
  H   H1349     1.0  0.51587  0.37354  0.41109  1.0000
  H   H1350     1.0  0.87409  0.04200  0.25768  1.0000
  C   C781      1.0  0.60006  0.12339  0.27661  1.0000
  C   C782      1.0  0.68437  0.46538  0.26811  1.0000
  H   H1351     1.0  0.69301  0.14819  0.34601  1.0000
  C   C783      1.0  0.82430  0.08816  0.26613  1.0000
  H   H1352     1.0  0.53923  0.46505  0.45875  1.0000
  H   H1353     1.0  0.55174  0.26916  0.24580  1.0000
  C   C784      1.0  0.66384  0.46727  0.25585  1.0000
  H   H1354     1.0  0.52690  0.15663  0.42219  1.0000
  H   H1355     1.0  0.55214  0.10815  0.27954  1.0000
  C   C785      1.0  0.67652  0.13884  0.33919  1.0000
  C   C786      1.0  0.50887  0.40295  0.41010  1.0000
  C   C787      1.0  0.53722  0.28106  0.25178  1.0000
  H   H1356     1.0  0.50595  0.45263  0.42134  1.0000
  S   S233      1.0  0.74863  0.07203  0.48060  1.0000
  C   C788      1.0  0.71547  0.37937  0.46954  1.0000
  H   H1357     1.0  0.62953  0.29495  0.46398  1.0000
  H   H1358     1.0  0.71370  0.39969  0.47755  1.0000
  H   H1359     1.0  0.57681  0.16936  0.34857  1.0000
  N   N53       1.0  0.64269  0.18279  0.34817  1.0000
  N   N54       1.0  0.69148  0.32245  0.45883  1.0000
  C   C789      1.0  0.57809  0.08757  0.25880  1.0000
  C   C790      1.0  0.50927  0.19115  0.39739  1.0000
  C   C791      1.0  0.50218  0.10505  0.40939  1.0000
  H   H1360     1.0  0.65173  0.12486  0.35386  1.0000
  H   H1361     1.0  0.59761  0.13264  0.34414  1.0000
  S   S234      1.0  0.68922  0.04412  0.48061  1.0000
  N   N55       1.0  0.58777  0.08655  0.27345  1.0000
  H   H1362     1.0  0.53722  0.31183  0.25043  1.0000
  H   H1363     1.0  0.65817  0.28426  0.47492  1.0000
  C   C792      1.0  0.52362  0.37097  0.43877  1.0000
  C   C793      1.0  0.70677  0.28847  0.46466  1.0000
  H   H1364     1.0  0.66362  0.25668  0.33534  1.0000
  H   H1365     1.0  0.51338  0.11841  0.40218  1.0000
  C   C794      1.0  0.61723  0.18065  0.35363  1.0000
  C   C795      1.0  0.59522  0.16347  0.34450  1.0000
  C   C796      1.0  0.65500  0.23555  0.36447  1.0000
  H   H1366     1.0  0.61934  0.16454  0.36323  1.0000
  H   H1367     1.0  0.60996  0.20897  0.35594  1.0000
  H   H1368     1.0  0.62500  0.23086  0.33705  1.0000
  C   C797      1.0  0.73604  0.29194  0.46777  1.0000
  H   H1369     1.0  0.69047  0.04855  0.30003  1.0000
  C   C798      1.0  0.53840  0.44740  0.44984  1.0000
  H   H1370     1.0  0.81016  0.12876  0.25108  1.0000
  Fe  Fe117     1.0  0.72772  0.01825  0.47790  1.0000
  C   C799      1.0  0.88079  0.07093  0.25791  1.0000
  C   C800      1.0  0.76113  0.20026  0.48845  1.0000
  C   C801      1.0  0.52552  0.35494  0.45317  1.0000
  C   C802      1.0  0.65698  0.05018  0.31032  1.0000
  C   C803      1.0  0.86941  0.09455  0.24567  1.0000
  H   H1371     1.0  0.84142  0.13762  0.25887  1.0000
  H   H1372     1.0  0.61790  0.44702  0.24093  1.0000
  H   H1373     1.0  0.58564  0.14686  0.27494  1.0000
  C   C804      1.0  0.69230  0.35368  0.46866  1.0000
  S   S235      1.0  0.62590  0.50647  0.27883  1.0000
  H   H1374     1.0  0.57058  0.11622  0.25554  1.0000
  C   C805      1.0  0.66389  0.31141  0.45568  1.0000
  H   H1375     1.0  0.50878  0.14976  0.43542  1.0000
  C   C806      1.0  0.56564  0.08354  0.28159  1.0000
  H   H1376     1.0  0.65266  0.33279  0.44910  1.0000
  N   N56       1.0  0.67343  0.46311  0.24249  1.0000
  H   H1377     1.0  0.55378  0.05922  0.27886  1.0000
  H   H1378     1.0  0.83491  0.03911  0.24768  1.0000
  H   H1379     1.0  0.51518  0.09617  0.41843  1.0000
  C   C807      1.0  0.51509  0.42415  0.42310  1.0000
  H   H1380     1.0  0.52000  0.22770  0.42408  1.0000
  H   H1381     1.0  0.74553  0.26408  0.46692  1.0000
  C   C808      1.0  0.82915  0.11499  0.25458  1.0000
  H   H1382     1.0  0.70005  0.27973  0.47419  1.0000
  H   H1383     1.0  0.77518  0.20595  0.48138  1.0000
  H   H1384     1.0  0.83610  0.06196  0.26718  1.0000
  H   H1385     1.0  0.83259  0.06837  0.46820  1.0000
  C   C809      1.0  0.69264  0.49298  0.24113  1.0000
  H   H1386     1.0  0.50617  0.21761  0.43925  1.0000
  H   H1387     1.0  0.51707  0.34827  0.43199  1.0000
  C   C810      1.0  0.50549  0.16649  0.26603  1.0000
  H   H1388     1.0  0.56027  0.03217  0.25746  1.0000
  C   C811      1.0  0.51038  0.16860  0.42671  1.0000
  H   H1389     1.0  0.50714  0.14251  0.24681  1.0000
  H   H1390     1.0  0.74118  0.30186  0.47802  1.0000
  H   H1391     1.0  0.73413  0.36431  0.47200  1.0000
  C   C812      1.0  0.51066  0.43463  0.44625  1.0000
  H   H1392     1.0  0.55346  0.06174  0.24303  1.0000
  H   H1393     1.0  0.74180  0.20687  0.48310  1.0000
  N   N57       1.0  0.50720  0.40604  0.43551  1.0000
  H   H1394     1.0  0.50862  0.29923  0.27207  1.0000
  Fe  Fe118     1.0  0.70958  0.50039  0.47842  1.0000
  C   C813      1.0  0.51087  0.26458  0.24711  1.0000
  H   H1395     1.0  0.86685  0.02842  0.48005  1.0000
  H   H1396     1.0  0.49923  0.33669  0.25316  1.0000
  H   H1397     1.0  0.83593  0.08154  0.48512  1.0000
  S   S236      1.0  0.49914  0.29957  0.40990  1.0000
  H   H1398     1.0  0.80943  0.05363  0.47846  1.0000
  C   C814      1.0  0.84679  0.02240  0.48167  1.0000
  C   C815      1.0  0.83015  0.05848  0.47839  1.0000
  C   C816      1.0  0.59919  0.01529  0.27619  1.0000
  H   H1399     1.0  0.84297  0.17666  0.24062  1.0000
  Fe  Fe119     1.0  0.92229  0.25463  0.54907  1.0000
  S   S237      1.0  0.90531  0.29373  0.56314  1.0000
  S   S238      1.0  0.96311  0.22981  0.54946  1.0000
  Fe  Fe120     1.0  0.86894  0.23607  0.53497  1.0000
  S   S239      1.0  0.84814  0.27224  0.54825  1.0000
  S   S240      1.0  0.84748  0.21157  0.51662  1.0000
  Fe  Fe121     1.0  0.87789  0.31390  0.54526  1.0000
  S   S241      1.0  0.86637  0.37497  0.54060  1.0000
  Fe  Fe122     1.0  0.87668  0.24927  0.56495  1.0000
  S   S242      1.0  0.86347  0.22797  0.58412  1.0000
  S   S243      1.0  0.89757  0.27895  0.53108  1.0000
  S   S244      1.0  0.89472  0.20888  0.55187  1.0000
  Fe  Fe123     1.0  0.93701  0.21331  0.68389  1.0000
  S   S245      1.0  0.90632  0.22021  0.69730  1.0000
  S   S246      1.0  0.97307  0.17592  0.68768  1.0000
  Fe  Fe124     1.0  0.90501  0.25653  0.66106  1.0000
  S   S247      1.0  0.87167  0.26569  0.67288  1.0000
  S   S248      1.0  0.90885  0.28377  0.64094  1.0000
  Fe  Fe125     1.0  0.90166  0.28024  0.68968  1.0000
  S   S249      1.0  0.89787  0.32598  0.70514  1.0000
  Fe  Fe126     1.0  0.87914  0.20500  0.67948  1.0000
  S   S250      1.0  0.84749  0.16371  0.68223  1.0000
  S   S251      1.0  0.93468  0.27394  0.67756  1.0000
  S   S252      1.0  0.91006  0.19531  0.66639  1.0000
  C   C817      1.0  0.99459  0.24648  0.55320  1.0000
  Fe  Fe127     1.0  0.73923  0.48232  0.50559  1.0000
  H   H1400     1.0  0.84370  0.47036  0.71088  1.0000
  S   S253      1.0  0.75218  0.42988  0.51815  1.0000
  H   H1401     1.0  0.79360  0.42774  0.57204  1.0000
  S   S254      1.0  0.78917  0.05996  0.51716  1.0000
  H   H1402     1.0  0.79111  0.38265  0.56445  1.0000
  C   C818      1.0  0.84590  0.11498  0.67907  1.0000
  C   C819      1.0  0.86373  0.09594  0.67222  1.0000
  C   C820      1.0  0.86172  0.05721  0.67009  1.0000
  H   H1403     1.0  0.70551  0.21055  0.52497  1.0000
  C   C821      1.0  0.82384  0.05614  0.68137  1.0000
  C   C822      1.0  0.82589  0.09482  0.68353  1.0000
  H   H1404     1.0  0.87902  0.11110  0.66856  1.0000
  H   H1405     1.0  0.79498  0.11341  0.49619  1.0000
  H   H1406     1.0  0.81192  0.10921  0.68880  1.0000
  C   C823      1.0  0.89731  0.37588  0.70403  1.0000
  C   C824      1.0  0.89719  0.39554  0.69198  1.0000
  C   C825      1.0  0.89579  0.43505  0.69159  1.0000
  C   C826      1.0  0.89446  0.45555  0.70319  1.0000
  C   C827      1.0  0.89511  0.43594  0.71529  1.0000
  C   C828      1.0  0.89641  0.39645  0.71568  1.0000
  H   H1407     1.0  0.89792  0.38028  0.68293  1.0000
  H   H1408     1.0  0.89542  0.44979  0.68216  1.0000
  H   H1409     1.0  0.89412  0.45115  0.72429  1.0000
  H   H1410     1.0  0.89655  0.38160  0.72507  1.0000
  C   C829      1.0  0.83483  0.38936  0.53358  1.0000
  C   C830      1.0  0.81451  0.36483  0.53279  1.0000
  C   C831      1.0  0.78942  0.37768  0.52799  1.0000
  C   C832      1.0  0.78438  0.41495  0.52357  1.0000
  C   C833      1.0  0.80475  0.43935  0.52412  1.0000
  C   C834      1.0  0.82978  0.42668  0.52924  1.0000
  H   H1411     1.0  0.81807  0.33604  0.53595  1.0000
  H   H1412     1.0  0.77381  0.35862  0.52761  1.0000
  H   H1413     1.0  0.80115  0.46812  0.52080  1.0000
  H   H1414     1.0  0.84533  0.44591  0.52980  1.0000
  C   C835      1.0  0.89624  0.26724  0.62531  1.0000
  C   C836      1.0  0.88043  0.23653  0.62404  1.0000
  C   C837      1.0  0.87050  0.22477  0.61134  1.0000
  C   C838      1.0  0.87658  0.24327  0.59986  1.0000
  C   C839      1.0  0.89256  0.27377  0.60114  1.0000
  C   C840      1.0  0.90218  0.28585  0.61382  1.0000
  H   H1415     1.0  0.87569  0.22209  0.63283  1.0000
  H   H1416     1.0  0.85810  0.20118  0.61042  1.0000
  H   H1417     1.0  0.89731  0.28827  0.59239  1.0000
  H   H1418     1.0  0.91436  0.30969  0.61475  1.0000
  C   C841      1.0  0.83274  0.16831  0.51699  1.0000
  C   C842      1.0  0.83295  0.14734  0.52876  1.0000
  C   C843      1.0  0.81956  0.11395  0.52874  1.0000
  C   C844      1.0  0.80540  0.10207  0.51706  1.0000
  C   C845      1.0  0.80544  0.12282  0.50528  1.0000
  C   C846      1.0  0.81940  0.15554  0.50522  1.0000
  H   H1419     1.0  0.84332  0.15695  0.53785  1.0000
  H   H1420     1.0  0.81985  0.09764  0.53784  1.0000
  H   H1421     1.0  0.91406  0.05478  0.72075  1.0000
  H   H1422     1.0  0.81949  0.17149  0.49607  1.0000
  Fe  Fe128     1.0  0.69970  0.02923  0.50220  1.0000
  C   C847      1.0  0.68692  0.02464  0.73942  1.0000
  N   N58       1.0  0.93353  0.08689  0.70672  1.0000
  C   C848      1.0  0.65821  0.02398  0.73399  1.0000
  H   H1423     1.0  0.80541  0.28079  0.56801  1.0000
  C   C849      1.0  0.79475  0.42618  0.72363  1.0000
  Fe  Fe129     1.0  0.75393  0.05568  0.50227  1.0000
  H   H1424     1.0  0.95345  0.16314  0.61507  1.0000
  H   H1425     1.0  0.94881  0.07094  0.67435  1.0000
  H   H1426     1.0  0.81260  0.44876  0.69173  1.0000
  H   H1427     1.0  0.81859  0.10121  0.62903  1.0000
  H   H1428     1.0  0.95058  0.46742  0.71102  1.0000
  C   C850      1.0  0.80929  0.38211  0.58584  1.0000
  H   H1429     1.0  0.61168  0.07610  0.71436  1.0000
  H   H1430     1.0  0.77062  0.39614  0.57630  1.0000
  H   H1431     1.0  0.91827  0.06456  0.67997  1.0000
  N   N59       1.0  0.96467  0.21512  0.59435  1.0000
  C   C851      1.0  0.65215  0.09131  0.73244  1.0000
  C   C852      1.0  0.93555  0.08148  0.68128  1.0000
  H   H1432     1.0  0.98827  0.07228  0.71512  1.0000
  C   C853      1.0  0.94322  0.19074  0.61444  1.0000
  H   H1433     1.0  0.77993  0.47082  0.70308  1.0000
  H   H1434     1.0  0.97010  0.04606  0.72606  1.0000
  H   H1435     1.0  0.74481  0.19116  0.53758  1.0000
  C   C854      1.0  0.66917  0.02131  0.70609  1.0000
  H   H1436     1.0  0.66581  0.02480  0.69512  1.0000
  H   H1437     1.0  0.93574  0.02846  0.71267  1.0000
  H   H1438     1.0  0.88207  0.15064  0.70882  1.0000
  H   H1439     1.0  0.93460  0.15891  0.57420  1.0000
  H   H1440     1.0  0.84089  0.41964  0.69486  1.0000
  H   H1441     1.0  0.68056  0.07278  0.71499  1.0000
  H   H1442     1.0  0.64767  0.15188  0.73134  1.0000
  C   C855      1.0  0.82958  0.08487  0.63732  1.0000
  C   C856      1.0  0.94069  0.21169  0.58468  1.0000
  H   H1443     1.0  0.74268  0.05417  0.61243  1.0000
  C   C857      1.0  0.89661  0.12935  0.71328  1.0000
  H   H1444     1.0  0.76463  0.25443  0.49711  1.0000
  H   H1445     1.0  0.90790  0.17583  0.58157  1.0000
  H   H1446     1.0  0.88607  0.05873  0.69640  1.0000
  C   C858      1.0  0.82239  0.04339  0.63745  1.0000
  H   H1447     1.0  0.87818  0.06984  0.49634  1.0000
  H   H1448     1.0  0.79339  0.04514  0.65741  1.0000
  H   H1449     1.0  0.72903  0.15460  0.52786  1.0000
  H   H1450     1.0  0.90674  0.01886  0.69364  1.0000
  H   H1451     1.0  0.65071  0.07629  0.70471  1.0000
  H   H1452     1.0  0.94075  0.19853  0.62477  1.0000
  C   C859      1.0  0.95816  0.22140  0.60823  1.0000
  H   H1453     1.0  0.93306  0.50004  0.72547  1.0000
  H   H1454     1.0  0.96593  0.29652  0.60142  1.0000
  H   H1455     1.0  0.96507  0.09963  0.69558  1.0000
  H   H1456     1.0  0.95826  0.12796  0.71642  1.0000
  H   H1457     1.0  0.71827  0.19112  0.50204  1.0000
  C   C860      1.0  0.70340  0.22831  0.51588  1.0000
  H   H1458     1.0  0.76538  0.40689  0.73528  1.0000
  H   H1459     1.0  0.77764  0.08084  0.62335  1.0000
  H   H1460     1.0  0.89449  0.03397  0.50743  1.0000
  H   H1461     1.0  0.79254  0.22726  0.53309  1.0000
  N   N60       1.0  0.79410  0.03575  0.63649  1.0000
  H   H1462     1.0  0.79435  0.04554  0.61544  1.0000
  H   H1463     1.0  0.81189  0.40353  0.70009  1.0000
  C   C861      1.0  0.80613  0.31156  0.56914  1.0000
  C   C862      1.0  0.95124  0.09972  0.71848  1.0000
  H   H1464     1.0  0.82105  0.30610  0.58937  1.0000
  C   C863      1.0  0.98396  0.47163  0.72713  1.0000
  H   H1465     1.0  0.99871  0.19507  0.73532  1.0000
  H   H1466     1.0  0.90731  0.14237  0.72198  1.0000
  H   H1467     1.0  0.97179  0.20863  0.71379  1.0000
  H   H1468     1.0  0.85025  0.08657  0.63608  1.0000
  H   H1469     1.0  0.80987  0.32342  0.55945  1.0000
  H   H1470     1.0  0.85619  0.42760  0.56223  1.0000
  H   H1471     1.0  0.84635  0.31378  0.60767  1.0000
  H   H1472     1.0  0.67294  0.09630  0.73499  1.0000
  H   H1473     1.0  0.98640  0.08694  0.73160  1.0000
  H   H1474     1.0  0.95940  0.05128  0.69693  1.0000
  N   N61       1.0  0.83290  0.36033  0.58280  1.0000
  C   C864      1.0  0.85333  0.36173  0.59460  1.0000
  C   C865      1.0  0.84425  0.37605  0.57101  1.0000
  C   C866      1.0  0.82729  0.31979  0.58045  1.0000
  C   C867      1.0  0.84660  0.34472  0.60781  1.0000
  C   C868      1.0  0.85309  0.41667  0.57222  1.0000
  H   H1475     1.0  0.87148  0.34756  0.59239  1.0000
  H   H1476     1.0  0.85829  0.39110  0.59683  1.0000
  H   H1477     1.0  0.83093  0.37499  0.56174  1.0000
  H   H1478     1.0  0.86120  0.35851  0.56896  1.0000
  H   H1479     1.0  0.84506  0.30415  0.57847  1.0000
  H   H1480     1.0  0.86183  0.35149  0.61590  1.0000
  H   H1481     1.0  0.82820  0.35620  0.61057  1.0000
  H   H1482     1.0  0.87178  0.41796  0.57855  1.0000
  H   H1483     1.0  0.83879  0.43559  0.57606  1.0000
  C   C869      1.0  0.94947  0.07926  0.69555  1.0000
  H   H1484     1.0  0.92530  0.23137  0.58715  1.0000
  C   C870      1.0  0.82318  0.42881  0.69906  1.0000
  H   H1485     1.0  0.94448  0.22025  0.57452  1.0000
  C   C871      1.0  0.79061  0.39759  0.57383  1.0000
  H   H1486     1.0  0.97430  0.15567  0.59763  1.0000
  H   H1487     1.0  0.83665  0.05506  0.50564  1.0000
  C   C872      1.0  0.72337  0.21860  0.50640  1.0000
  C   C873      1.0  0.96518  0.28714  0.59103  1.0000
  H   H1488     1.0  0.74488  0.01933  0.62519  1.0000
  H   H1489     1.0  0.79724  0.26119  0.52019  1.0000
  H   H1490     1.0  0.79803  0.36485  0.59214  1.0000
  H   H1491     1.0  0.81505  0.40691  0.59182  1.0000
  C   C874      1.0  0.76705  0.22481  0.50074  1.0000
  H   H1492     1.0  0.74299  0.06841  0.63998  1.0000
  H   H1493     1.0  0.95632  0.42738  0.72221  1.0000
  H   H1494     1.0  0.78566  0.27579  0.53506  1.0000
  H   H1495     1.0  0.78650  0.08603  0.64724  1.0000
  C   C875      1.0  0.91427  0.11847  0.70279  1.0000
  C   C876      1.0  0.92915  0.17250  0.58325  1.0000
  C   C877      1.0  0.83092  0.44695  0.71253  1.0000
  C   C878      1.0  0.78332  0.05555  0.64769  1.0000
  H   H1496     1.0  0.78697  0.32114  0.57153  1.0000
  S   S255      1.0  0.71757  0.08433  0.50677  1.0000
  H   H1497     1.0  0.80490  0.49358  0.73721  1.0000
  H   H1498     1.0  0.76084  0.14777  0.53659  1.0000
  N   N62       1.0  0.80911  0.45985  0.71987  1.0000
  H   H1499     1.0  0.92444  0.14385  0.70013  1.0000
  H   H1500     1.0  0.94094  0.10277  0.72737  1.0000
  N   N63       1.0  0.75137  0.21809  0.51205  1.0000
  H   H1501     1.0  0.74957  0.06597  0.65760  1.0000
  C   C879      1.0  0.75646  0.24949  0.52162  1.0000
  C   C880      1.0  0.84179  0.03702  0.67465  1.0000
  C   C881      1.0  0.75967  0.18047  0.51831  1.0000
  H   H1502     1.0  0.92357  0.18893  0.60915  1.0000
  C   C882      1.0  0.78464  0.25311  0.52772  1.0000
  H   H1503     1.0  0.99801  0.25004  0.59640  1.0000
  C   C883      1.0  0.74752  0.16829  0.53070  1.0000
  C   C884      1.0  0.96551  0.45015  0.71712  1.0000
  H   H1504     1.0  0.94601  0.24715  0.60859  1.0000
  H   H1505     1.0  0.74505  0.24743  0.53008  1.0000
  H   H1506     1.0  0.75015  0.27679  0.51661  1.0000
  H   H1507     1.0  0.71945  0.23952  0.49808  1.0000
  C   C885      1.0  0.75569  0.03222  0.61771  1.0000
  H   H1508     1.0  0.78791  0.22048  0.50409  1.0000
  H   H1509     1.0  0.78079  0.17789  0.52079  1.0000
  H   H1510     1.0  0.93358  0.15335  0.59191  1.0000
  H   H1511     1.0  0.90139  0.11266  0.69367  1.0000
  C   C886      1.0  0.92120  0.05182  0.71091  1.0000
  H   H1512     1.0  0.74803  0.02359  0.64879  1.0000
  H   H1513     1.0  0.76190  0.45566  0.73113  1.0000
  H   H1514     1.0  0.68391  0.22386  0.51068  1.0000
  S   S256      1.0  0.69677  0.48808  0.49827  1.0000
  C   C887      1.0  0.77618  0.43268  0.73410  1.0000
  C   C888      1.0  0.66209  0.05849  0.71255  1.0000
  C   C889      1.0  0.89927  0.03667  0.70124  1.0000
  H   H1515     1.0  0.87567  0.04281  0.66482  1.0000
  N   N64       1.0  0.64822  0.05586  0.72471  1.0000
  C   C890      1.0  0.75431  0.05274  0.64835  1.0000
  H   H1516     1.0  0.93035  0.11094  0.67817  1.0000
  H   H1517     1.0  0.80841  0.04111  0.68497  1.0000
  C   C891      1.0  0.97520  0.07434  0.72290  1.0000
  C   C892      1.0  0.79057  0.48593  0.71138  1.0000
  H   H1518     1.0  0.82726  0.09817  0.64691  1.0000
  C   C893      1.0  0.99267  0.16938  0.70300  1.0000
  H   H1519     1.0  0.77559  0.49724  0.71723  1.0000
  C   C894      1.0  0.82014  0.48038  0.73193  1.0000
  H   H1520     1.0  0.83114  0.03053  0.62910  1.0000
  H   H1521     1.0  0.76288  0.16998  0.49090  1.0000
  H   H1522     1.0  0.70397  0.25820  0.51857  1.0000
  H   H1523     1.0  0.97523  0.30823  0.58558  1.0000
  H   H1524     1.0  0.94503  0.28732  0.58637  1.0000
  H   H1525     1.0  0.75540  0.15786  0.51111  1.0000
  C   C895      1.0  0.64037  0.12766  0.72551  1.0000
  H   H1526     1.0  0.98312  0.24635  0.57987  1.0000
  H   H1527     1.0  0.88583  0.10534  0.71644  1.0000
  H   H1528     1.0  0.97593  0.22582  0.61513  1.0000
  H   H1529     1.0  0.83290  0.03010  0.64660  1.0000
  H   H1530     1.0  0.88684  0.01951  0.70688  1.0000
  C   C896      1.0  0.98290  0.18166  0.59450  1.0000
  H   H1531     1.0  0.97686  0.43584  0.71003  1.0000
  H   H1532     1.0  0.64571  0.13131  0.71535  1.0000
  H   H1533     1.0  0.98333  0.30194  0.55847  1.0000
  C   C897      1.0  0.98764  0.18837  0.71436  1.0000
  H   H1534     1.0  0.78313  0.41511  0.71475  1.0000
  C   C898      1.0  0.87758  0.05349  0.50566  1.0000
  C   C899      1.0  0.97895  0.24865  0.59030  1.0000
  C   C900      1.0  0.94581  0.50548  0.73466  1.0000
  C   C901      1.0  0.78125  0.05004  0.62316  1.0000
  N   N65       1.0  0.97357  0.50752  0.73236  1.0000
  H   H1535     1.0  0.97807  0.17477  0.57267  1.0000
  C   C902      1.0  0.85213  0.03325  0.50594  1.0000
  H   H1536     1.0  0.84345  0.42588  0.71863  1.0000
  C   C903      1.0  0.61971  0.05242  0.72096  1.0000
  H   H1537     1.0  0.61919  0.12901  0.72531  1.0000
  C   C904      1.0  0.99335  0.17378  0.58121  1.0000
  H   H1538     1.0  0.60956  0.05378  0.72998  1.0000
  H   H1539     1.0  0.87941  0.07387  0.51382  1.0000
  S   S257      1.0  0.89144  0.50537  0.70196  1.0000
  H   H1540     1.0  0.80511  0.01617  0.49565  1.0000
  H   H1541     1.0  0.69939  0.02819  0.73146  1.0000
  H   H1542     1.0  0.80812  0.40247  0.72729  1.0000
  H   H1543     1.0  0.98989  0.45150  0.73552  1.0000
  H   H1544     1.0  0.83099  0.50464  0.72895  1.0000
  H   H1545     1.0  0.85902  0.45906  0.73943  1.0000
  H   H1546     1.0  0.85311  0.01992  0.51598  1.0000
  H   H1547     1.0  0.61685  0.01662  0.70346  1.0000
  C   C905      1.0  0.61080  0.01718  0.71354  1.0000
  H   H1548     1.0  0.58949  0.01760  0.71219  1.0000
  H   H1549     1.0  0.81762  0.51282  0.69914  1.0000
  C   C906      1.0  0.56479  0.13306  0.82458  1.0000
  H   H1550     1.0  0.64378  0.38899  0.77087  1.0000
  H   H1551     1.0  0.63480  0.44976  0.78455  1.0000
  H   H1552     1.0  0.56483  0.14481  0.81434  1.0000
  H   H1553     1.0  0.94926  0.44857  0.74383  1.0000
  N   N66       1.0  0.55896  0.16356  0.83398  1.0000
  Fe  Fe130     1.0  0.59466  0.29131  0.93609  1.0000
  S   S258      1.0  0.62437  0.25142  0.92983  1.0000
  S   S259      1.0  0.60057  0.34559  0.94695  1.0000
  Fe  Fe131     1.0  0.55073  0.23693  0.93007  1.0000
  S   S260      1.0  0.57727  0.19239  0.92331  1.0000
  C   C907      1.0  0.83915  0.45760  0.74205  1.0000
  Fe  Fe132     1.0  0.60573  0.20663  0.94075  1.0000
  S   S261      1.0  0.62377  0.16968  0.95816  1.0000
  Fe  Fe133     1.0  0.59398  0.24036  0.91270  1.0000
  S   S262      1.0  0.60800  0.23424  0.89244  1.0000
  S   S263      1.0  0.57805  0.24774  0.94814  1.0000
  S   S264      1.0  0.56540  0.28387  0.91827  1.0000
  Fe  Fe134     1.0  0.61624  0.32473  0.80280  1.0000
  S   S265      1.0  0.57811  0.35176  0.80518  1.0000
  S   S266      1.0  0.65274  0.35774  0.80349  1.0000
  Fe  Fe135     1.0  0.59384  0.24548  0.79944  1.0000
  S   S267      1.0  0.55403  0.26801  0.80164  1.0000
  S   S268      1.0  0.60117  0.18186  0.80045  1.0000
  Fe  Fe136     1.0  0.56269  0.31584  0.78834  1.0000
  S   S269      1.0  0.53873  0.33802  0.76945  1.0000
  Fe  Fe137     1.0  0.57325  0.30163  0.81831  1.0000
  S   S270      1.0  0.55690  0.30896  0.83785  1.0000
  S   S271      1.0  0.60149  0.29128  0.78506  1.0000
  S   S272      1.0  0.61238  0.27681  0.81698  1.0000
  H   H1554     1.0  0.61961  0.48135  0.81550  1.0000
  C   C908      1.0  0.65461  0.40623  0.80657  1.0000
  C   C909      1.0  0.67718  0.42470  0.80470  1.0000
  C   C910      1.0  0.67894  0.46355  0.80654  1.0000
  H   H1555     1.0  0.67424  0.39249  0.83528  1.0000
  C   C911      1.0  0.63576  0.46557  0.81249  1.0000
  C   C912      1.0  0.63396  0.42683  0.81058  1.0000
  H   H1556     1.0  0.69332  0.40900  0.80164  1.0000
  Fe  Fe138     1.0  0.72495  0.44144  0.97755  1.0000
  C   C913      1.0  0.49900  0.37513  0.78010  1.0000
  H   H1557     1.0  0.61651  0.41305  0.81208  1.0000
  C   C914      1.0  0.60259  0.14626  0.78847  1.0000
  C   C915      1.0  0.60453  0.10858  0.79284  1.0000
  C   C916      1.0  0.60618  0.07930  0.78382  1.0000
  C   C917      1.0  0.60618  0.08735  0.77028  1.0000
  C   C918      1.0  0.60420  0.12504  0.76591  1.0000
  C   C919      1.0  0.60227  0.15431  0.77491  1.0000
  H   H1558     1.0  0.60497  0.10194  0.80329  1.0000
  H   H1559     1.0  0.60782  0.05054  0.78735  1.0000
  H   H1560     1.0  0.60420  0.13165  0.75548  1.0000
  H   H1561     1.0  0.60090  0.18306  0.77138  1.0000
  C   C920      1.0  0.59383  0.25665  0.87757  1.0000
  C   C921      1.0  0.60654  0.25408  0.86620  1.0000
  C   C922      1.0  0.59560  0.27042  0.85404  1.0000
  C   C923      1.0  0.57165  0.28906  0.85307  1.0000
  C   C924      1.0  0.55909  0.29211  0.86448  1.0000
  C   C925      1.0  0.57013  0.27603  0.87670  1.0000
  H   H1562     1.0  0.62490  0.23917  0.86680  1.0000
  H   H1563     1.0  0.60556  0.26815  0.84539  1.0000
  H   H1564     1.0  0.54061  0.30670  0.86385  1.0000
  H   H1565     1.0  0.56016  0.27817  0.88539  1.0000
  C   C926      1.0  0.69180  0.08433  0.96212  1.0000
  C   C927      1.0  0.67887  0.09275  0.97300  1.0000
  C   C928      1.0  0.65801  0.11881  0.97154  1.0000
  C   C929      1.0  0.65002  0.13698  0.95927  1.0000
  C   C930      1.0  0.66314  0.12891  0.94842  1.0000
  C   C931      1.0  0.68386  0.10254  0.94984  1.0000
  H   H1566     1.0  0.68472  0.07885  0.98248  1.0000
  H   H1567     1.0  0.64792  0.12477  0.97998  1.0000
  H   H1568     1.0  0.65723  0.14276  0.93894  1.0000
  H   H1569     1.0  0.69379  0.09624  0.94138  1.0000
  C   C932      1.0  0.68166  0.38946  0.95633  1.0000
  C   C933      1.0  0.67678  0.36179  0.94683  1.0000
  C   C934      1.0  0.65199  0.34817  0.94386  1.0000
  C   C935      1.0  0.63181  0.36257  0.95024  1.0000
  C   C936      1.0  0.63657  0.39069  0.95959  1.0000
  C   C937      1.0  0.66147  0.40395  0.96271  1.0000
  H   H1570     1.0  0.69233  0.35059  0.94185  1.0000
  H   H1571     1.0  0.64850  0.32675  0.93657  1.0000
  H   H1572     1.0  0.62103  0.40203  0.96454  1.0000
  H   H1573     1.0  0.66508  0.42530  0.97003  1.0000
  C   C938      1.0  0.52444  0.21768  0.83400  1.0000
  H   H1574     1.0  0.56999  0.38900  0.96818  1.0000
  C   C939      1.0  0.69164  0.26120  0.96546  1.0000
  H   H1575     1.0  0.57775  0.48635  0.78068  1.0000
  H   H1576     1.0  0.69631  0.47751  0.80492  1.0000
  C   C940      1.0  0.53069  0.28796  0.96873  1.0000
  H   H1577     1.0  0.52723  0.17822  0.81885  1.0000
  H   H1578     1.0  0.60974  0.17517  0.84735  1.0000
  H   H1579     1.0  0.68554  0.20039  0.96309  1.0000
  C   C941      1.0  0.66010  0.39494  0.85497  1.0000
  H   H1580     1.0  0.71206  0.25772  0.96987  1.0000
  H   H1581     1.0  0.55605  0.40803  0.78319  1.0000
  H   H1582     1.0  0.91904  0.47257  0.74444  1.0000
  H   H1583     1.0  0.69092  0.28501  0.95816  1.0000
  H   H1584     1.0  0.54430  0.27375  0.97661  1.0000
  C   C942      1.0  0.63440  0.35022  0.84036  1.0000
  H   H1585     1.0  0.58637  0.38356  0.77272  1.0000
  H   H1586     1.0  0.67356  0.32629  0.84812  1.0000
  H   H1587     1.0  0.69233  0.18703  0.98518  1.0000
  H   H1588     1.0  0.57597  0.42543  0.83943  1.0000
  H   H1589     1.0  0.83441  0.42788  0.74292  1.0000
  H   H1590     1.0  0.69064  0.04658  0.74690  1.0000
  S   S273      1.0  0.60929  0.05185  0.75843  1.0000
  H   H1591     1.0  0.65172  0.31184  0.86710  1.0000
  H   H1592     1.0  0.64303  0.51331  0.77555  1.0000
  H   H1593     1.0  0.61849  0.38324  0.86998  1.0000
  H   H1594     1.0  0.64888  0.29276  0.84537  1.0000
  H   H1595     1.0  0.53991  0.17758  0.86156  1.0000
  H   H1596     1.0  0.57555  0.20436  0.82191  1.0000
  C   C943      1.0  0.60610  0.18377  0.83673  1.0000
  C   C944      1.0  0.55506  0.43877  0.78183  1.0000
  C   C945      1.0  0.56003  0.17406  0.85935  1.0000
  H   H1597     1.0  0.50760  0.36451  0.78972  1.0000
  C   C946      1.0  0.64377  0.33514  0.87246  1.0000
  C   C947      1.0  0.57752  0.19412  0.83241  1.0000
  H   H1598     1.0  0.54562  0.44984  0.79023  1.0000
  H   H1599     1.0  0.66203  0.43829  0.83929  1.0000
  H   H1600     1.0  0.51818  0.37631  0.92739  1.0000
  H   H1601     1.0  0.50333  0.22243  0.83187  1.0000
  H   H1602     1.0  0.66219  0.31449  0.83180  1.0000
  H   H1603     1.0  0.63330  0.32217  0.88017  1.0000
  C   C948      1.0  0.65595  0.31947  0.84172  1.0000
  H   H1604     1.0  0.65945  0.35088  0.87787  1.0000
  H   H1605     1.0  0.51779  0.15877  0.83369  1.0000
  C   C949      1.0  0.58745  0.39975  0.84288  1.0000
  H   H1606     1.0  0.61602  0.33536  0.83911  1.0000
  H   H1607     1.0  0.54234  0.44722  0.77268  1.0000
  H   H1608     1.0  0.52631  0.10949  0.81987  1.0000
  S   S274      1.0  0.71745  0.05062  0.96327  1.0000
  H   H1609     1.0  0.63470  0.36453  0.83055  1.0000
  H   H1610     1.0  0.94600  0.48605  0.75536  1.0000
  C   C950      1.0  0.54632  0.10026  0.82347  1.0000
  C   C951      1.0  0.54163  0.32579  0.96509  1.0000
  H   H1611     1.0  0.60759  0.34440  0.86059  1.0000
  H   H1612     1.0  0.51159  0.33161  0.92069  1.0000
  C   C952      1.0  0.67847  0.31025  0.97988  1.0000
  H   H1613     1.0  0.66972  0.32944  0.97177  1.0000
  H   H1614     1.0  0.52970  0.22275  0.84466  1.0000
  S   S275      1.0  0.71339  0.40384  0.96028  1.0000
  H   H1615     1.0  0.57893  0.38842  0.85153  1.0000
  H   H1616     1.0  0.57200  0.16278  0.86842  1.0000
  H   H1617     1.0  0.62137  0.42341  0.83727  1.0000
  H   H1618     1.0  0.58502  0.37989  0.83463  1.0000
  H   H1619     1.0  0.61362  0.16206  0.83045  1.0000
  C   C953      1.0  0.53741  0.38645  0.95249  1.0000
  H   H1620     1.0  0.51207  0.29144  0.97273  1.0000
  H   H1621     1.0  0.52291  0.40748  0.94776  1.0000
  C   C954      1.0  0.62424  0.45998  0.77497  1.0000
  H   H1622     1.0  0.49954  0.27494  0.77035  1.0000
  C   C955      1.0  0.61577  0.40997  0.84639  1.0000
  H   H1623     1.0  0.61613  0.43244  0.85386  1.0000
  H   H1624     1.0  0.69223  0.42068  0.84705  1.0000
  Fe  Fe139     1.0  0.76487  0.49921  0.98640  1.0000
  C   C956      1.0  0.62704  0.27679  0.98000  1.0000
  H   H1625     1.0  0.55315  0.44024  0.74461  1.0000
  C   C957      1.0  0.58167  0.45577  0.78212  1.0000
  H   H1626     1.0  0.66711  0.22996  0.95059  1.0000
  H   H1627     1.0  0.67443  0.37438  0.85995  1.0000
  N   N67       1.0  0.63429  0.37815  0.85129  1.0000
  H   H1628     1.0  0.70058  0.22223  0.95039  1.0000
  H   H1629     1.0  0.65863  0.41695  0.86249  1.0000
  H   H1630     1.0  0.51373  0.30209  0.94271  1.0000
  C   C958      1.0  0.67248  0.41243  0.84337  1.0000
  N   N68       1.0  0.67461  0.27006  0.97605  1.0000
  H   H1631     1.0  0.52875  0.26872  0.96029  1.0000
  Fe  Fe140     1.0  0.73659  0.02138  0.98225  1.0000
  H   H1632     1.0  0.64235  0.28571  0.96147  1.0000
  C   C959      1.0  0.65816  0.48423  0.81039  1.0000
  H   H1633     1.0  0.61058  0.39392  0.78538  1.0000
  H   H1634     1.0  0.57702  0.40410  0.74513  1.0000
  C   C960      1.0  0.60390  0.39985  0.77470  1.0000
  H   H1635     1.0  0.66846  0.31733  0.98861  1.0000
  H   H1636     1.0  0.60759  0.27084  0.97507  1.0000
  C   C961      1.0  0.58738  0.45096  0.75821  1.0000
  H   H1637     1.0  0.59150  0.45174  0.79241  1.0000
  N   N69       1.0  0.59876  0.44127  0.77228  1.0000
  H   H1638     1.0  0.53321  0.23899  0.82805  1.0000
  H   H1639     1.0  0.61629  0.51296  0.78467  1.0000
  C   C962      1.0  0.53169  0.17785  0.82988  1.0000
  C   C963      1.0  0.94006  0.47625  0.74518  1.0000
  S   S276      1.0  0.72442  0.50419  0.97651  1.0000
  H   H1640     1.0  0.64423  0.08892  0.74214  1.0000
  H   H1641     1.0  0.58428  0.12024  0.82740  1.0000
  C   C964      1.0  0.62483  0.36100  0.86344  1.0000
  H   H1642     1.0  0.63705  0.45259  0.76738  1.0000
  C   C965      1.0  0.62404  0.38186  0.76670  1.0000
  H   H1643     1.0  0.62066  0.38991  0.75604  1.0000
  C   C966      1.0  0.70651  0.32192  0.98335  1.0000
  H   H1644     1.0  0.54702  0.12612  0.84886  1.0000
  H   H1645     1.0  0.70643  0.35138  0.98661  1.0000
  H   H1646     1.0  0.54696  0.08420  0.83295  1.0000
  H   H1647     1.0  0.61763  0.20873  0.83547  1.0000
  C   C967      1.0  0.55180  0.40482  0.96471  1.0000
  C   C968      1.0  0.64683  0.26717  0.97045  1.0000
  C   C969      1.0  0.56196  0.14694  0.84786  1.0000
  H   H1648     1.0  0.54342  0.32072  0.93963  1.0000
  H   H1649     1.0  0.54576  0.34040  0.97458  1.0000
  H   H1650     1.0  0.60290  0.45198  0.75164  1.0000
  C   C970      1.0  0.68556  0.22636  0.95709  1.0000
  C   C971      1.0  0.51061  0.36685  0.76877  1.0000
  H   H1651     1.0  0.55732  0.43324  0.96180  1.0000
  C   C972      1.0  0.62324  0.50304  0.77539  1.0000
  H   H1652     1.0  0.64241  0.23903  0.96676  1.0000
  H   H1653     1.0  0.62676  0.30693  0.98231  1.0000
  H   H1654     1.0  0.56086  0.31996  0.96186  1.0000
  C   C973      1.0  0.67566  0.20417  0.98769  1.0000
  C   C974      1.0  0.56763  0.42393  0.75147  1.0000
  H   H1655     1.0  0.56771  0.20179  0.85767  1.0000
  H   H1656     1.0  0.58026  0.13014  0.85004  1.0000
  S   S277      1.0  0.51074  0.22677  0.93582  1.0000
  H   H1657     1.0  0.63023  0.25947  0.98924  1.0000
  H   H1658     1.0  0.57310  0.21919  0.83796  1.0000
  C   C975      1.0  0.68193  0.24595  0.98836  1.0000
  H   H1659     1.0  0.50994  0.36380  0.97959  1.0000
  H   H1660     1.0  0.57820  0.47949  0.75763  1.0000
  H   H1661     1.0  0.55249  0.08054  0.81605  1.0000
  H   H1662     1.0  0.62317  0.35097  0.76751  1.0000
  H   H1663     1.0  0.55188  0.38350  0.94536  1.0000
  H   H1664     1.0  0.65863  0.19795  0.98075  1.0000
  H   H1665     1.0  0.54008  0.40789  0.97298  1.0000
  H   H1666     1.0  0.55681  0.40811  0.75823  1.0000
  C   C976      1.0  0.50973  0.34916  0.92945  1.0000
  H   H1667     1.0  0.98799  0.49172  0.75275  1.0000
  N   N70       1.0  0.52516  0.34952  0.95471  1.0000
  S   S278      1.0  0.76670  0.43648  0.98576  1.0000
  H   H1668     1.0  0.71721  0.32140  0.97457  1.0000
  H   H1669     1.0  0.50837  0.37521  0.74759  1.0000
  H   H1670     1.0  0.83849  0.46916  0.75209  1.0000
  H   H1671     1.0  0.78661  0.43840  0.74398  1.0000
  H   H1672     1.0  0.64729  0.02337  0.74272  1.0000
  C   C977      1.0  0.52376  0.32861  0.94189  1.0000
  C   C978      1.0  0.49930  0.38108  0.75638  1.0000
  H   H1673     1.0  0.62375  0.79474  0.00708  1.0000
  H   H1674     1.0  0.53107  0.68024  0.19886  1.0000
  H   H1675     1.0  0.54230  0.79942  0.02710  1.0000
  Fe  Fe141     1.0  0.62963  0.74199  0.06539  1.0000
  S   S279      1.0  0.65816  0.78818  0.06711  1.0000
  S   S280      1.0  0.58961  0.75920  0.07035  1.0000
  Fe  Fe142     1.0  0.67019  0.68423  0.05869  1.0000
  S   S281      1.0  0.70061  0.72670  0.05957  1.0000
  S   S282      1.0  0.68593  0.62510  0.05693  1.0000
  Fe  Fe143     1.0  0.68553  0.74545  0.07816  1.0000
  S   S283      1.0  0.71618  0.75766  0.09515  1.0000
  Fe  Fe144     1.0  0.67070  0.76519  0.04848  1.0000
  S   S284      1.0  0.68057  0.79680  0.03024  1.0000
  S   S285      1.0  0.65639  0.70111  0.07797  1.0000
  S   S286      1.0  0.64088  0.72100  0.04605  1.0000
  Fe  Fe145     1.0  0.73781  0.98317  0.00953  1.0000
  S   S287      1.0  0.71380  0.96573  0.02574  1.0000
  S   S288      1.0  0.77977  0.96692  0.01075  1.0000
  S   S289      1.0  0.65064  0.56295  0.21782  1.0000
  H   H1676     1.0  0.72691  0.63483  0.23178  1.0000
  S   S290      1.0  0.89028  0.93974  0.21269  1.0000
  H   H1677     1.0  0.55395  0.73097  0.22879  1.0000
  H   H1678     1.0  0.95687  0.82716  0.23196  1.0000
  S   S291      1.0  0.84118  0.96921  0.22670  1.0000
  Fe  Fe146     1.0  0.85828  0.91338  0.22208  1.0000
  S   S292      1.0  0.83099  0.86620  0.21705  1.0000
  H   H1679     1.0  0.76018  0.54718  0.07969  1.0000
  C   C979      1.0  0.76686  0.59687  0.00997  1.0000
  H   H1680     1.0  0.65084  0.66837  0.16958  1.0000
  Fe  Fe147     1.0  0.77700  0.62875  0.19216  1.0000
  S   S293      1.0  0.81994  0.62616  0.19217  1.0000
  S   S294      1.0  0.76009  0.62664  0.21166  1.0000
  Fe  Fe148     1.0  0.76640  0.64457  0.16239  1.0000
  S   S295      1.0  0.80841  0.64310  0.16009  1.0000
  S   S296      1.0  0.73155  0.65073  0.14656  1.0000
  Fe  Fe149     1.0  0.81195  0.59215  0.17379  1.0000
  H   H1681     1.0  0.81582  0.82407  0.23814  1.0000
  Fe  Fe150     1.0  0.81343  0.67701  0.17871  1.0000
  S   S297      1.0  0.84096  0.72532  0.18031  1.0000
  S   S298      1.0  0.76934  0.59114  0.17478  1.0000
  S   S299      1.0  0.77110  0.68212  0.17998  1.0000
  C   C980      1.0  0.83424  0.82746  0.20670  1.0000
  C   C981      1.0  0.85315  0.82520  0.19814  1.0000
  C   C982      1.0  0.85481  0.79389  0.19004  1.0000
  C   C983      1.0  0.83773  0.76452  0.19046  1.0000
  C   C984      1.0  0.81888  0.76681  0.19906  1.0000
  C   C985      1.0  0.81710  0.79820  0.20708  1.0000
  H   H1682     1.0  0.86618  0.84781  0.19760  1.0000
  H   H1683     1.0  0.86932  0.79243  0.18333  1.0000
  H   H1684     1.0  0.80561  0.74443  0.19946  1.0000
  H   H1685     1.0  0.80224  0.79983  0.21356  1.0000
  C   C986      1.0  0.68143  0.57960  0.21635  1.0000
  C   C987      1.0  0.69347  0.60300  0.22586  1.0000
  C   C988      1.0  0.71784  0.61646  0.22442  1.0000
  C   C989      1.0  0.73027  0.60698  0.21341  1.0000
  C   C990      1.0  0.71843  0.58307  0.20398  1.0000
  C   C991      1.0  0.69405  0.56944  0.20546  1.0000
  H   H1686     1.0  0.69154  0.62418  0.08556  1.0000
  H   H1687     1.0  0.72804  0.57519  0.19556  1.0000
  H   H1688     1.0  0.53706  0.77424  0.22423  1.0000
  C   C992      1.0  0.71979  0.72992  0.10994  1.0000
  C   C993      1.0  0.69991  0.70809  0.11340  1.0000
  C   C994      1.0  0.70373  0.68470  0.12482  1.0000
  C   C995      1.0  0.72741  0.68286  0.13292  1.0000
  C   C996      1.0  0.74714  0.70532  0.12965  1.0000
  C   C997      1.0  0.74328  0.72890  0.11824  1.0000
  H   H1689     1.0  0.68163  0.70906  0.10722  1.0000
  H   H1690     1.0  0.68830  0.66762  0.12732  1.0000
  H   H1691     1.0  0.76546  0.70424  0.13582  1.0000
  H   H1692     1.0  0.75873  0.74588  0.11571  1.0000
  C   C998      1.0  0.68978  0.84384  0.02938  1.0000
  C   C999      1.0  0.68128  0.87103  0.03771  1.0000
  C   C1000     1.0  0.68862  0.90835  0.03644  1.0000
  C   C1001     1.0  0.70444  0.91879  0.02685  1.0000
  C   C1002     1.0  0.71275  0.89158  0.01849  1.0000
  C   C1003     1.0  0.70528  0.85439  0.01970  1.0000
  H   H1693     1.0  0.66890  0.86341  0.04502  1.0000
  H   H1694     1.0  0.68200  0.92933  0.04289  1.0000
  H   H1695     1.0  0.72498  0.89920  0.01109  1.0000
  H   H1696     1.0  0.71175  0.83365  0.01312  1.0000
  C   C1004     1.0  0.68483  0.56722  0.01695  1.0000
  C   C1005     1.0  0.70247  0.55554  0.02777  1.0000
  C   C1006     1.0  0.70274  0.57371  0.03995  1.0000
  C   C1007     1.0  0.68581  0.60418  0.04131  1.0000
  C   C1008     1.0  0.66862  0.61646  0.03039  1.0000
  C   C1009     1.0  0.66795  0.59774  0.01830  1.0000
  H   H1697     1.0  0.88858  0.82695  0.22271  1.0000
  H   H1698     1.0  0.71599  0.56393  0.04838  1.0000
  H   H1699     1.0  0.65537  0.63968  0.03136  1.0000
  H   H1700     1.0  0.65419  0.60681  0.00998  1.0000
  H   H1701     1.0  0.54687  0.74151  0.09234  1.0000
  C   C1010     1.0  0.91731  0.75365  0.22476  1.0000
  C   C1011     1.0  0.53718  0.65913  0.21909  1.0000
  H   H1702     1.0  0.93222  0.73640  0.22049  1.0000
  H   H1703     1.0  0.55705  0.65089  0.21869  1.0000
  H   H1704     1.0  0.68393  0.61114  0.23428  1.0000
  C   C1012     1.0  0.53804  0.77554  0.06460  1.0000
  C   C1013     1.0  0.55920  0.75512  0.06084  1.0000
  C   C1014     1.0  0.55533  0.73135  0.05006  1.0000
  C   C1015     1.0  0.53038  0.72714  0.04345  1.0000
  H   H1705     1.0  0.72228  0.58198  0.07889  1.0000
  H   H1706     1.0  0.54086  0.79450  0.07277  1.0000
  H   H1707     1.0  0.57140  0.71546  0.04703  1.0000
  C   C1016     1.0  0.69646  0.61516  0.09612  1.0000
  H   H1708     1.0  0.52745  0.70811  0.03530  1.0000
  H   H1709     1.0  0.78558  0.90058  0.23447  1.0000
  H   H1710     1.0  0.67900  0.57537  0.10917  1.0000
  C   C1017     1.0  0.93406  0.84636  0.20825  1.0000
  H   H1711     1.0  0.63233  0.72867  0.16341  1.0000
  H   H1712     1.0  0.56499  0.67344  0.09371  1.0000
  H   H1713     1.0  0.75750  0.57434  0.13010  1.0000
  H   H1714     1.0  0.63723  0.72909  0.18106  1.0000
  C   C1018     1.0  0.70389  0.65670  0.17919  1.0000
  H   H1715     1.0  0.50405  0.75966  0.08340  1.0000
  C   C1019     1.0  0.71532  0.65116  0.00157  1.0000
  H   H1716     1.0  0.58024  0.70538  0.10495  1.0000
  S   S300      1.0  0.89930  0.99253  0.23925  1.0000
  C   C1020     1.0  0.51677  0.68788  0.08074  1.0000
  H   H1717     1.0  0.93111  0.85302  0.19744  1.0000
  H   H1718     1.0  0.95476  0.84972  0.21154  1.0000
  H   H1719     1.0  0.73294  0.69417  0.19948  1.0000
  H   H1720     1.0  0.69982  0.63069  0.00114  1.0000
  H   H1721     1.0  0.50894  0.69097  0.11390  1.0000
  H   H1722     1.0  0.52764  0.84306  0.03068  1.0000
  H   H1723     1.0  0.90120  0.54903  0.20698  1.0000
  H   H1724     1.0  0.76093  0.63097  0.09969  1.0000
  H   H1725     1.0  0.76484  0.67331  0.00377  1.0000
  Fe  Fe151     1.0  0.63296  0.58076  0.23610  1.0000
  H   H1726     1.0  0.73884  0.63865  0.07564  1.0000
  H   H1727     1.0  0.65180  0.67114  0.21168  1.0000
  S   S301      1.0  0.68322  0.54458  0.00158  1.0000
  H   H1728     1.0  0.93903  0.78695  0.20594  1.0000
  H   H1729     1.0  0.70735  0.69905  0.20985  1.0000
  C   C1021     1.0  0.52242  0.67578  0.20787  1.0000
  S   S302      1.0  0.61744  0.63909  0.23809  1.0000
  H   H1730     1.0  0.55923  0.67328  0.11112  1.0000
  H   H1731     1.0  0.91173  0.54067  0.19132  1.0000
  H   H1732     1.0  0.50270  0.62549  0.11196  1.0000
  C   C1022     1.0  0.92571  0.80606  0.21061  1.0000
  N   N71       1.0  0.74702  0.84579  0.06766  1.0000
  C   C1023     1.0  0.75836  0.80810  0.06453  1.0000
  C   C1024     1.0  0.76200  0.85839  0.08032  1.0000
  C   C1025     1.0  0.75032  0.87250  0.05633  1.0000
  C   C1026     1.0  0.71904  0.84086  0.06902  1.0000
  C   C1027     1.0  0.74932  0.79300  0.05064  1.0000
  C   C1028     1.0  0.75972  0.83409  0.09281  1.0000
  C   C1029     1.0  0.74833  0.91471  0.05892  1.0000
  C   C1030     1.0  0.70401  0.87401  0.07425  1.0000
  H   H1733     1.0  0.77970  0.80872  0.06537  1.0000
  H   H1734     1.0  0.75396  0.78621  0.07179  1.0000
  H   H1735     1.0  0.75646  0.88723  0.08282  1.0000
  H   H1736     1.0  0.78277  0.85970  0.07910  1.0000
  H   H1737     1.0  0.76956  0.86780  0.05292  1.0000
  H   H1738     1.0  0.73613  0.86718  0.04758  1.0000
  H   H1739     1.0  0.70836  0.83398  0.05933  1.0000
  H   H1740     1.0  0.71631  0.81593  0.07534  1.0000
  H   H1741     1.0  0.72824  0.79101  0.04883  1.0000
  H   H1742     1.0  0.75602  0.81003  0.04257  1.0000
  H   H1743     1.0  0.75758  0.76427  0.04993  1.0000
  H   H1744     1.0  0.77117  0.84636  0.10148  1.0000
  H   H1745     1.0  0.73964  0.83343  0.09514  1.0000
  H   H1746     1.0  0.76741  0.80516  0.09201  1.0000
  H   H1747     1.0  0.73013  0.92352  0.06251  1.0000
  H   H1748     1.0  0.74906  0.93028  0.04940  1.0000
  H   H1749     1.0  0.76487  0.92393  0.06578  1.0000
  H   H1750     1.0  0.69424  0.89165  0.06593  1.0000
  H   H1751     1.0  0.71564  0.89180  0.08121  1.0000
  H   H1752     1.0  0.68909  0.86299  0.08003  1.0000
  H   H1753     1.0  0.71545  0.53195  0.02685  1.0000
  H   H1754     1.0  0.58478  0.86047  0.05161  1.0000
  C   C1031     1.0  0.74006  0.63716  0.09752  1.0000
  H   H1755     1.0  0.91368  0.84654  0.23331  1.0000
  C   C1032     1.0  0.50977  0.63944  0.10329  1.0000
  C   C1033     1.0  0.69633  0.71698  0.18885  1.0000
  H   H1756     1.0  0.92252  0.86734  0.21306  1.0000
  H   H1757     1.0  0.77806  0.85723  0.22625  1.0000
  H   H1758     1.0  0.61003  0.83376  0.06077  1.0000
  H   H1759     1.0  0.93460  0.53983  0.20633  1.0000
  H   H1760     1.0  0.65622  0.71314  0.20319  1.0000
  N   N72       1.0  0.72443  0.60306  0.09901  1.0000
  H   H1761     1.0  0.63181  0.68190  0.19632  1.0000
  Fe  Fe152     1.0  0.87543  0.99556  0.21933  1.0000
  H   H1762     1.0  0.74977  0.68014  0.08376  1.0000
  C   C1034     1.0  0.69449  0.62123  0.17193  1.0000
  C   C1035     1.0  0.66410  0.69177  0.17170  1.0000
  H   H1763     1.0  0.52394  0.74242  0.23503  1.0000
  C   C1036     1.0  0.72354  0.65621  0.01650  1.0000
  H   H1764     1.0  0.53899  0.73501  0.10877  1.0000
  C   C1037     1.0  0.67101  0.66166  0.19420  1.0000
  Fe  Fe153     1.0  0.91199  0.93522  0.23330  1.0000
  H   H1765     1.0  0.72306  0.55854  0.11374  1.0000
  C   C1038     1.0  0.72905  0.58802  0.11315  1.0000
  H   H1766     1.0  0.70669  0.66712  0.02107  1.0000
  C   C1039     1.0  0.74645  0.60002  0.99760  1.0000
  H   H1767     1.0  0.73866  0.67683  0.01858  1.0000
  H   H1768     1.0  0.73604  0.65787  0.10505  1.0000
  H   H1769     1.0  0.62899  0.77030  0.02292  1.0000
  H   H1770     1.0  0.72322  0.73897  0.20455  1.0000
  H   H1771     1.0  0.77112  0.57575  0.11483  1.0000
  N   N73       1.0  0.59256  0.82868  0.02635  1.0000
  C   C1040     1.0  0.60280  0.81636  0.04031  1.0000
  C   C1041     1.0  0.58975  0.79434  0.01796  1.0000
  C   C1042     1.0  0.56668  0.84843  0.02584  1.0000
  C   C1043     1.0  0.61105  0.85535  0.02137  1.0000
  H   H1772     1.0  0.71827  0.51771  0.22848  1.0000
  C   C1044     1.0  0.61489  0.77665  0.01413  1.0000
  H   H1773     1.0  0.52754  0.70544  0.07433  1.0000
  C   C1045     1.0  0.60412  0.87028  0.00697  1.0000
  H   H1774     1.0  0.59152  0.79322  0.04383  1.0000
  H   H1775     1.0  0.62268  0.80443  0.04066  1.0000
  H   H1776     1.0  0.57674  0.79997  0.00860  1.0000
  H   H1777     1.0  0.77131  0.62310  0.01510  1.0000
  H   H1778     1.0  0.56827  0.87599  0.03070  1.0000
  H   H1779     1.0  0.55868  0.85529  0.01539  1.0000
  H   H1780     1.0  0.61265  0.88058  0.02759  1.0000
  H   H1781     1.0  0.63105  0.84332  0.02254  1.0000
  H   H1782     1.0  0.76199  0.61845  0.12260  1.0000
  H   H1783     1.0  0.78505  0.58429  0.00721  1.0000
  H   H1784     1.0  0.49987  0.62659  0.09432  1.0000
  H   H1785     1.0  0.71855  0.54813  0.09100  1.0000
  C   C1046     1.0  0.54015  0.72044  0.09928  1.0000
  H   H1786     1.0  0.61073  0.74982  0.00913  1.0000
  C   C1047     1.0  0.52611  0.65313  0.23076  1.0000
  H   H1787     1.0  0.72923  0.62914  0.02165  1.0000
  H   H1788     1.0  0.59267  0.89696  0.00677  1.0000
  H   H1789     1.0  0.59329  0.85044  0.00044  1.0000
  H   H1790     1.0  0.62205  0.87523  0.00250  1.0000
  H   H1791     1.0  0.89233  0.74554  0.20605  1.0000
  H   H1792     1.0  0.71652  0.67134  0.08208  1.0000
  H   H1793     1.0  0.78670  0.80036  0.23773  1.0000
  H   H1794     1.0  0.70606  0.67810  0.99754  1.0000
  H   H1795     1.0  0.68258  0.62798  0.16236  1.0000
  H   H1796     1.0  0.68570  0.64871  0.20181  1.0000
  C   C1048     1.0  0.56201  0.69080  0.10233  1.0000
  H   H1797     1.0  0.90671  0.80404  0.20458  1.0000
  H   H1798     1.0  0.71706  0.60404  0.11961  1.0000
  H   H1799     1.0  0.67748  0.56166  0.09195  1.0000
  C   C1049     1.0  0.91518  0.53217  0.20197  1.0000
  H   H1800     1.0  0.52835  0.66140  0.08221  1.0000
  N   N74       1.0  0.68334  0.68228  0.18368  1.0000
  C   C1050     1.0  0.60378  0.84693  0.05087  1.0000
  C   C1051     1.0  0.71595  0.71137  0.20138  1.0000
  H   H1801     1.0  0.65875  0.75301  0.17134  1.0000
  H   H1802     1.0  0.67406  0.69523  0.16265  1.0000
  C   C1052     1.0  0.77217  0.87723  0.23360  1.0000
  H   H1803     1.0  0.91726  0.74158  0.23484  1.0000
  C   C1053     1.0  0.54603  0.82646  0.03199  1.0000
  C   C1054     1.0  0.67679  0.58553  0.09870  1.0000
  H   H1804     1.0  0.68239  0.73879  0.19133  1.0000
  H   H1805     1.0  0.58028  0.77191  0.02315  1.0000
  H   H1806     1.0  0.68408  0.60279  0.17816  1.0000
  C   C1055     1.0  0.89119  0.74510  0.21689  1.0000
  H   H1807     1.0  0.70645  0.73016  0.18100  1.0000
  H   H1808     1.0  0.68492  0.55108  0.19812  1.0000
  C   C1056     1.0  0.65155  0.68364  0.20155  1.0000
  H   H1809     1.0  0.71796  0.64691  0.18769  1.0000
  H   H1810     1.0  0.69221  0.63988  0.10204  1.0000
  H   H1811     1.0  0.61796  0.86828  0.04923  1.0000
  H   H1812     1.0  0.77197  0.58041  0.09108  1.0000
  H   H1813     1.0  0.53054  0.63279  0.10391  1.0000
  H   H1814     1.0  0.71521  0.67201  0.17235  1.0000
  C   C1057     1.0  0.75663  0.58928  0.12035  1.0000
  N   N75       1.0  0.73584  0.63857  0.99329  1.0000
  N   N76       1.0  0.51426  0.70675  0.09370  1.0000
  C   C1058     1.0  0.75761  0.55859  0.08956  1.0000
  C   C1059     1.0  0.75617  0.66751  0.99360  1.0000
  H   H1815     1.0  0.66055  0.63730  0.18996  1.0000
  H   H1816     1.0  0.71145  0.60467  0.16949  1.0000
  H   H1817     1.0  0.76025  0.57754  0.01745  1.0000
  C   C1060     1.0  0.64729  0.72771  0.17214  1.0000
  S   S303      1.0  0.95300  0.91166  0.23537  1.0000
  C   C1061     1.0  0.50320  0.68174  0.10359  1.0000
  H   H1818     1.0  0.75316  0.88957  0.22944  1.0000
  H   H1819     1.0  0.65720  0.59854  0.09660  1.0000
  C   C1062     1.0  0.72966  0.57330  0.08929  1.0000
  C   C1063     1.0  0.50906  0.74645  0.04757  1.0000
  C   C1064     1.0  0.73583  0.65749  0.08388  1.0000
  C   C1065     1.0  0.54225  0.75374  0.23254  1.0000
  S   S304      1.0  0.83807  0.54405  0.16806  1.0000
  H   H1820     1.0  0.55108  0.82150  0.04280  1.0000
  C   C1066     1.0  0.51314  0.77130  0.05800  1.0000
  H   H1821     1.0  0.60042  0.72475  0.23066  1.0000
  H   H1822     1.0  0.96509  0.78080  0.22767  1.0000
  H   H1823     1.0  0.76214  0.53595  0.09719  1.0000
  H   H1824     1.0  0.73063  0.58160  0.99959  1.0000
  H   H1825     1.0  0.50921  0.78085  0.10644  1.0000
  H   H1826     1.0  0.87549  0.76453  0.21907  1.0000
  H   H1827     1.0  0.60747  0.76653  0.23984  1.0000
  N   N77       1.0  0.92427  0.79423  0.22486  1.0000
  H   H1828     1.0  0.87234  0.79784  0.23964  1.0000
  C   C1067     1.0  0.50025  0.66402  0.23112  1.0000
  C   C1068     1.0  0.95065  0.79784  0.23235  1.0000
  H   H1829     1.0  0.88575  0.71641  0.21950  1.0000
  C   C1069     1.0  0.90490  0.81949  0.23048  1.0000
  H   H1830     1.0  0.57031  0.79219  0.24030  1.0000
  H   H1831     1.0  0.77661  0.81101  0.33085  1.0000
  S   S305      1.0  0.71028  0.56243  0.48148  1.0000
  N   N78       1.0  0.79356  0.83868  0.25410  1.0000
  Fe  Fe154     1.0  0.85049  0.77555  0.42187  1.0000
  S   S306      1.0  0.81412  0.75064  0.41221  1.0000
  S   S307      1.0  0.88757  0.74511  0.41788  1.0000
  Fe  Fe155     1.0  0.82071  0.83184  0.43655  1.0000
  S   S308      1.0  0.78273  0.81019  0.42839  1.0000
  S   S309      1.0  0.82527  0.88151  0.45011  1.0000
  Fe  Fe156     1.0  0.80086  0.75301  0.43240  1.0000
  S   S310      1.0  0.77642  0.70487  0.43763  1.0000
  Fe  Fe157     1.0  0.79846  0.80944  0.40878  1.0000
  S   S311      1.0  0.76678  0.82961  0.39264  1.0000
  S   S312      1.0  0.83793  0.77448  0.44232  1.0000
  S   S313      1.0  0.83586  0.83465  0.41670  1.0000
  H   H1832     1.0  0.65778  0.86596  0.47615  1.0000
  H   H1833     1.0  0.57913  0.69677  0.24604  1.0000
  H   H1834     1.0  0.86204  0.64684  0.41709  1.0000
  H   H1835     1.0  0.89243  0.82676  0.25002  1.0000
  S   S314      1.0  0.60593  0.61232  0.26799  1.0000
  H   H1836     1.0  0.81495  0.96171  0.41908  1.0000
  H   H1837     1.0  0.86485  0.58088  0.44594  1.0000
  S   S315      1.0  0.65627  0.57850  0.25606  1.0000
  H   H1838     1.0  0.77192  0.79747  0.26338  1.0000
  Fe  Fe158     1.0  0.63885  0.63577  0.25866  1.0000
  S   S316      1.0  0.66560  0.68380  0.26368  1.0000
  H   H1839     1.0  0.56691  0.78912  0.27063  1.0000
  H   H1840     1.0  0.97105  0.78495  0.40073  1.0000
  Fe  Fe159     1.0  0.73275  0.90568  0.31875  1.0000
  S   S317      1.0  0.69115  0.90374  0.32168  1.0000
  S   S318      1.0  0.76797  0.89238  0.33369  1.0000
  Fe  Fe160     1.0  0.72051  0.92574  0.28946  1.0000
  S   S319      1.0  0.67777  0.92539  0.29005  1.0000
  S   S320      1.0  0.73484  0.93637  0.26961  1.0000
  Fe  Fe161     1.0  0.68596  0.95668  0.30899  1.0000
  H   H1841     1.0  0.70109  0.90603  0.46492  1.0000
  Fe  Fe162     1.0  0.68594  0.87280  0.30244  1.0000
  S   S321      1.0  0.65906  0.82369  0.30113  1.0000
  S   S322      1.0  0.72821  0.96095  0.30749  1.0000
  S   S323      1.0  0.72806  0.87068  0.30043  1.0000
  S   S324      1.0  0.85085  0.97455  0.26576  1.0000
  C   C1070     1.0  0.76665  0.94988  0.26896  1.0000
  C   C1071     1.0  0.77483  0.95697  0.25653  1.0000
  C   C1072     1.0  0.80054  0.96474  0.25548  1.0000
  C   C1073     1.0  0.81823  0.96626  0.26688  1.0000
  C   C1074     1.0  0.80990  0.96039  0.27936  1.0000
  C   C1075     1.0  0.78421  0.95189  0.28040  1.0000
  C   C1076     1.0  0.78604  0.91799  0.41443  1.0000
  H   H1842     1.0  0.75297  0.98925  0.39511  1.0000
  H   H1843     1.0  0.76271  0.88089  0.25339  1.0000
  H   H1844     1.0  0.77808  0.94652  0.29004  1.0000
  H   H1845     1.0  0.57352  0.68087  0.27109  1.0000
  C   C1077     1.0  0.66285  0.72269  0.27399  1.0000
  C   C1078     1.0  0.68069  0.75108  0.27375  1.0000
  C   C1079     1.0  0.67958  0.78242  0.28186  1.0000
  C   C1080     1.0  0.66059  0.78562  0.29033  1.0000
  C   C1081     1.0  0.64269  0.75726  0.29057  1.0000
  C   C1082     1.0  0.64380  0.72589  0.28245  1.0000
  H   H1846     1.0  0.69553  0.74875  0.26726  1.0000
  H   H1847     1.0  0.69348  0.80400  0.28159  1.0000
  H   H1848     1.0  0.62808  0.75937  0.29719  1.0000
  H   H1849     1.0  0.63020  0.70397  0.28286  1.0000
  C   C1083     1.0  0.76811  0.84847  0.37652  1.0000
  C   C1084     1.0  0.74530  0.86306  0.36933  1.0000
  C   C1085     1.0  0.74513  0.87778  0.35637  1.0000
  C   C1086     1.0  0.76771  0.87734  0.35037  1.0000
  C   C1087     1.0  0.79062  0.86336  0.35764  1.0000
  C   C1088     1.0  0.79087  0.84907  0.37069  1.0000
  H   H1850     1.0  0.72761  0.86282  0.37379  1.0000
  H   H1851     1.0  0.72747  0.88892  0.35092  1.0000
  H   H1852     1.0  0.80821  0.86310  0.35308  1.0000
  H   H1853     1.0  0.80855  0.83799  0.37613  1.0000
  C   C1089     1.0  0.79780  0.90660  0.45395  1.0000
  C   C1090     1.0  0.77315  0.89401  0.45019  1.0000
  C   C1091     1.0  0.75160  0.91571  0.45264  1.0000
  C   C1092     1.0  0.75452  0.94976  0.45914  1.0000
  C   C1093     1.0  0.77914  0.96203  0.46322  1.0000
  C   C1094     1.0  0.80073  0.94052  0.46056  1.0000
  H   H1854     1.0  0.77062  0.86779  0.44525  1.0000
  H   H1855     1.0  0.73262  0.90625  0.44930  1.0000
  H   H1856     1.0  0.73656  0.98346  0.41595  1.0000
  H   H1857     1.0  0.81976  0.95047  0.46330  1.0000
  C   C1095     1.0  0.77998  0.62635  0.47416  1.0000
  C   C1096     1.0  0.79723  0.65559  0.47408  1.0000
  C   C1097     1.0  0.79618  0.68049  0.46309  1.0000
  C   C1098     1.0  0.77800  0.67597  0.45204  1.0000
  C   C1099     1.0  0.76075  0.64683  0.45217  1.0000
  C   C1100     1.0  0.76165  0.62220  0.46318  1.0000
  H   H1858     1.0  0.84756  0.64236  0.46435  1.0000
  H   H1859     1.0  0.80945  0.70297  0.46315  1.0000
  H   H1860     1.0  0.74664  0.64311  0.44365  1.0000
  H   H1861     1.0  0.74829  0.59980  0.46310  1.0000
  C   C1101     1.0  0.96702  0.89014  0.25042  1.0000
  C   C1102     1.0  0.95412  0.88934  0.26167  1.0000
  H   H1862     1.0  0.93506  0.90198  0.26127  1.0000
  C   C1103     1.0  0.96986  0.78493  0.42915  1.0000
  C   C1104     1.0  0.94859  0.80827  0.43098  1.0000
  C   C1105     1.0  0.92332  0.79629  0.42780  1.0000
  C   C1106     1.0  0.91903  0.76079  0.42266  1.0000
  C   C1107     1.0  0.94030  0.73721  0.42098  1.0000
  C   C1108     1.0  0.96559  0.74906  0.42430  1.0000
  H   H1863     1.0  0.95167  0.83602  0.43475  1.0000
  H   H1864     1.0  0.90718  0.81471  0.42917  1.0000
  H   H1865     1.0  0.93721  0.70967  0.41703  1.0000
  H   H1866     1.0  0.73635  0.71915  0.33729  1.0000
  C   C1109     1.0  0.85356  0.67663  0.44058  1.0000
  C   C1110     1.0  0.85007  0.61321  0.46119  1.0000
  C   C1111     1.0  0.87664  0.69120  0.44981  1.0000
  H   H1867     1.0  0.85142  0.69423  0.43132  1.0000
  H   H1868     1.0  0.83615  0.68363  0.44542  1.0000
  H   H1869     1.0  0.81482  0.67282  0.41997  1.0000
  H   H1870     1.0  0.94893  0.75807  0.24926  1.0000
  H   H1871     1.0  0.88259  0.71804  0.44566  1.0000
  H   H1872     1.0  0.89406  0.67290  0.45116  1.0000
  H   H1873     1.0  0.87083  0.69783  0.45969  1.0000
  H   H1874     1.0  0.54109  0.68194  0.27446  1.0000
  C   C1112     1.0  0.69120  0.79020  0.33470  1.0000
  C   C1113     1.0  0.69240  0.72741  0.31568  1.0000
  C   C1114     1.0  0.69021  0.80764  0.34835  1.0000
  H   H1875     1.0  0.70780  0.78046  0.31074  1.0000
  H   H1876     1.0  0.68488  0.81248  0.32710  1.0000
  H   H1877     1.0  0.67582  0.76952  0.33389  1.0000
  H   H1878     1.0  0.70790  0.72639  0.34471  1.0000
  H   H1879     1.0  0.67266  0.73957  0.31532  1.0000
  H   H1880     1.0  0.69369  0.71541  0.30575  1.0000
  H   H1881     1.0  0.69529  0.70404  0.32307  1.0000
  H   H1882     1.0  0.70519  0.82821  0.35072  1.0000
  C   C1115     1.0  0.72492  0.74100  0.34188  1.0000
  H   H1883     1.0  0.67149  0.82303  0.34830  1.0000
  H   H1884     1.0  0.80295  0.80351  0.27185  1.0000
  H   H1885     1.0  0.78746  0.92378  0.38724  1.0000
  H   H1886     1.0  0.78420  0.90845  0.42474  1.0000
  H   H1887     1.0  0.75995  0.79197  0.31628  1.0000
  H   H1888     1.0  0.86110  0.59739  0.46964  1.0000
  H   H1889     1.0  0.75571  0.85608  0.27268  1.0000
  H   H1890     1.0  0.90151  0.66760  0.42952  1.0000
  H   H1891     1.0  0.62061  0.78090  0.26133  1.0000
  H   H1892     1.0  0.94289  0.80705  0.25290  1.0000
  H   H1893     1.0  0.80505  0.89034  0.26323  1.0000
  H   H1894     1.0  0.71868  0.87225  0.40796  1.0000
  H   H1895     1.0  0.72981  0.66492  0.48027  1.0000
  H   H1896     1.0  0.96129  0.87624  0.39501  1.0000
  C   C1116     1.0  0.86057  0.93991  0.48802  1.0000
  N   N79       1.0  0.99302  0.81209  0.38671  1.0000
  H   H1897     1.0  0.53927  0.70834  0.25299  1.0000
  H   H1898     1.0  0.84961  0.83503  0.25991  1.0000
  H   H1899     1.0  0.78534  0.96887  0.37908  1.0000
  H   H1900     1.0  0.69073  0.86348  0.45783  1.0000
  H   H1901     1.0  0.81451  0.63045  0.44073  1.0000
  H   H1902     1.0  0.90907  0.62067  0.43650  1.0000
  C   C1117     1.0  0.95384  0.78729  0.24725  1.0000
  H   H1903     1.0  0.69342  0.94493  0.47981  1.0000
  C   C1118     1.0  0.67888  0.86993  0.47754  1.0000
  H   H1904     1.0  0.75365  0.83858  0.24560  1.0000
  H   H1905     1.0  0.84024  0.00243  0.47384  1.0000
  C   C1119     1.0  0.81306  0.93400  0.41459  1.0000
  C   C1120     1.0  0.99175  0.87353  0.25110  1.0000
  H   H1906     1.0  0.86812  0.59950  0.42266  1.0000
  C   C1121     1.0  0.73116  0.89251  0.41355  1.0000
  C   C1122     1.0  0.74147  0.91960  0.40358  1.0000
  N   N80       1.0  0.76340  0.94326  0.40908  1.0000
  C   C1123     1.0  0.75398  0.96629  0.41992  1.0000
  C   C1124     1.0  0.73450  0.89513  0.48687  1.0000
  H   H1907     1.0  0.80664  0.96914  0.24585  1.0000
  H   H1908     1.0  0.64432  0.93073  0.47512  1.0000
  C   C1125     1.0  0.68519  0.88657  0.46418  1.0000
  N   N81       1.0  0.56971  0.74815  0.25543  1.0000
  H   H1909     1.0  0.60206  0.70877  0.25940  1.0000
  C   C1126     1.0  0.77315  0.99265  0.42722  1.0000
  H   H1910     1.0  0.75722  0.94218  0.37904  1.0000
  H   H1911     1.0  0.68791  0.84132  0.47876  1.0000
  C   C1127     1.0  0.97666  0.86242  0.40204  1.0000
  H   H1912     1.0  0.62638  0.72502  0.24351  1.0000
  H   H1913     1.0  0.65372  0.97693  0.47954  1.0000
  H   H1914     1.0  0.82717  0.91502  0.42065  1.0000
  C   C1128     1.0  0.76935  0.96902  0.39801  1.0000
  C   C1129     1.0  0.65398  0.94747  0.48319  1.0000
  H   H1915     1.0  0.71914  0.90739  0.42018  1.0000
  C   C1130     1.0  0.99098  0.85657  0.27434  1.0000
  H   H1916     1.0  0.60945  0.81353  0.27239  1.0000
  Fe  Fe163     1.0  0.58549  0.61205  0.24713  1.0000
  H   H1917     1.0  0.69919  0.64781  0.48265  1.0000
  C   C1131     1.0  0.54884  0.72633  0.26075  1.0000
  H   H1918     1.0  0.97037  0.84846  0.37217  1.0000
  C   C1132     1.0  0.60330  0.79716  0.26343  1.0000
  C   C1133     1.0  0.81325  0.86777  0.25755  1.0000
  C   C1134     1.0  0.76963  0.85839  0.24719  1.0000
  C   C1135     1.0  0.81362  0.64208  0.42003  1.0000
  N   N82       1.0  0.85430  0.63571  0.43727  1.0000
  H   H1919     1.0  0.97288  0.80161  0.36720  1.0000
  H   H1920     1.0  0.92908  0.82156  0.37137  1.0000
  H   H1921     1.0  0.74714  0.90187  0.39552  1.0000
  H   H1922     1.0  0.90733  0.62988  0.41916  1.0000
  H   H1923     1.0  0.72804  0.82732  0.32602  1.0000
  H   H1924     1.0  0.81905  0.93537  0.40449  1.0000
  C   C1136     1.0  0.74151  0.75102  0.35491  1.0000
  H   H1925     1.0  0.82123  0.63058  0.41117  1.0000
  H   H1926     1.0  0.79289  0.63584  0.41914  1.0000
  H   H1927     1.0  0.73305  0.77380  0.36034  1.0000
  H   H1928     1.0  0.73089  0.74397  0.31564  1.0000
  H   H1929     1.0  0.76112  0.75873  0.35313  1.0000
  H   H1930     1.0  0.88505  0.61567  0.45244  1.0000
  H   H1931     1.0  0.81148  0.65896  0.48255  1.0000
  H   H1932     1.0  0.95602  0.87224  0.28228  1.0000
  H   H1933     1.0  0.74066  0.81381  0.34225  1.0000
  C   C1137     1.0  0.76174  0.79095  0.32729  1.0000
  H   H1934     1.0  0.97433  0.78983  0.25127  1.0000
  H   H1935     1.0  0.83106  0.60030  0.45945  1.0000
  C   C1138     1.0  0.77523  0.94953  0.38520  1.0000
  C   C1139     1.0  0.94355  0.81155  0.37967  1.0000
  S   S325      1.0  0.72702  0.97720  0.46121  1.0000
  C   C1140     1.0  0.73602  0.80268  0.33220  1.0000
  H   H1936     1.0  0.82659  0.59308  0.43178  1.0000
  H   H1937     1.0  0.78780  0.86638  0.28016  1.0000
  Fe  Fe164     1.0  0.86577  0.96329  0.24619  1.0000
  N   N83       1.0  0.71654  0.77262  0.33208  1.0000
  C   C1141     1.0  0.83856  0.85427  0.26565  1.0000
  C   C1142     1.0  0.68199  0.93393  0.48738  1.0000
  H   H1938     1.0  0.97590  0.74162  0.37995  1.0000
  H   H1939     1.0  0.83289  0.78011  0.25857  1.0000
  H   H1940     1.0  0.73405  0.87796  0.47788  1.0000
  H   H1941     1.0  0.98175  0.73071  0.42292  1.0000
  H   H1942     1.0  0.78648  0.89174  0.40874  1.0000
  H   H1943     1.0  0.74379  0.72609  0.36168  1.0000
  H   H1944     1.0  0.56214  0.71553  0.28204  1.0000
  C   C1143     1.0  0.71282  0.75738  0.31823  1.0000
  C   C1144     1.0  0.86474  0.61067  0.44893  1.0000
  H   H1945     1.0  0.76872  0.76268  0.33096  1.0000
  H   H1946     1.0  0.81876  0.88158  0.24846  1.0000
  H   H1947     1.0  0.77204  0.82643  0.28537  1.0000
  C   C1145     1.0  0.98882  0.78026  0.39605  1.0000
  H   H1948     1.0  0.94061  0.78129  0.38108  1.0000
  C   C1146     1.0  0.98732  0.74125  0.38986  1.0000
  H   H1949     1.0  0.69103  0.78582  0.35630  1.0000
  C   C1147     1.0  0.55731  0.69994  0.27279  1.0000
  C   C1148     1.0  0.86971  0.62902  0.42587  1.0000
  C   C1149     1.0  0.82720  0.62393  0.43300  1.0000
  H   H1950     1.0  0.85061  0.87890  0.26785  1.0000
  C   C1150     1.0  0.77489  0.84391  0.27655  1.0000
  H   H1951     1.0  0.53338  0.74549  0.26360  1.0000
  C   C1151     1.0  0.60638  0.73592  0.24065  1.0000
  H   H1952     1.0  0.78845  0.97661  0.43363  1.0000
  C   C1152     1.0  0.89847  0.63734  0.42819  1.0000
  H   H1953     1.0  0.59703  0.81777  0.25534  1.0000
  H   H1954     1.0  0.78142  0.98868  0.46797  1.0000
  S   S326      1.0  0.65766  0.00187  0.31455  1.0000
  H   H1955     1.0  0.93902  0.82608  0.38865  1.0000
  H   H1956     1.0  0.80352  0.75564  0.25469  1.0000
  C   C1153     1.0  0.96605  0.87251  0.27357  1.0000
  Fe  Fe165     1.0  0.62116  0.55482  0.26347  1.0000
  C   C1154     1.0  0.78627  0.81900  0.26631  1.0000
  H   H1957     1.0  0.58002  0.01154  0.27934  1.0000
  C   C1155     1.0  0.55673  0.77356  0.24443  1.0000
  H   H1958     1.0  0.74793  0.94811  0.42786  1.0000
  H   H1959     1.0  0.59073  0.75317  0.27500  1.0000
  H   H1960     1.0  0.83561  0.84147  0.27534  1.0000
  C   C1156     1.0  0.58183  0.77135  0.26659  1.0000
  H   H1961     1.0  0.66788  0.90054  0.45861  1.0000
  H   H1962     1.0  0.72493  0.93750  0.39893  1.0000
  H   H1963     1.0  0.76130  0.95562  0.24764  1.0000
  H   H1964     1.0  0.82345  0.96162  0.28824  1.0000
  H   H1965     1.0  0.96862  0.84128  0.40828  1.0000
  H   H1966     1.0  0.61243  0.99772  0.28332  1.0000
  H   H1967     1.0  0.74672  0.87595  0.41954  1.0000
  C   C1157     1.0  0.97070  0.81907  0.37599  1.0000
  H   H1968     1.0  0.97834  0.72188  0.39648  1.0000
  C   C1158     1.0  0.80298  0.81067  0.24463  1.0000
  H   H1969     1.0  0.98443  0.88427  0.40888  1.0000
  H   H1970     1.0  0.54265  0.79304  0.24837  1.0000
  C   C1159     1.0  0.58912  0.72097  0.25078  1.0000
  H   H1971     1.0  0.78584  0.98665  0.40120  1.0000
  H   H1972     1.0  0.90280  0.78016  0.24797  1.0000
  C   C1160     1.0  0.89273  0.80442  0.24261  1.0000
  S   S327      1.0  0.88085  0.90608  0.24220  1.0000
  H   H1973     1.0  0.70597  0.69495  0.48667  1.0000
  H   H1974     1.0  0.86242  0.94782  0.47758  1.0000
  H   H1975     1.0  0.59968  0.00410  0.26610  1.0000
  S   S328      1.0  0.59884  0.55325  0.24320  1.0000
  H   H1976     1.0  0.84175  0.92723  0.48858  1.0000
  H   H1977     1.0  0.73355  0.92525  0.48421  1.0000
  C   C1161     1.0  0.81713  0.77474  0.25069  1.0000
  S   S329      1.0  0.78175  0.59589  0.48819  1.0000
  C   C1162     1.0  0.71449  0.66636  0.48691  1.0000
  S   S330      1.0  0.54394  0.63335  0.24527  1.0000
  H   H1978     1.0  0.68344  0.52121  0.24185  1.0000
  H   H1979     1.0  0.82561  0.75955  0.24273  1.0000
  H   H1980     1.0  0.81241  0.97502  0.48738  1.0000
  H   H1981     1.0  0.76290  0.00990  0.43404  1.0000
  N   N84       1.0  0.68613  0.89234  0.48980  1.0000
  C   C1163     1.0  0.99849  0.84664  0.39472  1.0000
  H   H1982     1.0  0.78141  0.01223  0.42045  1.0000
  Fe  Fe166     1.0  0.75117  0.55307  0.49026  1.0000
  H   H1983     1.0  0.54114  0.66970  0.52050  1.0000
  S   S331      1.0  0.91357  0.59696  0.72179  1.0000
  S   S332      1.0  0.80786  0.57457  0.73980  1.0000
  N   N85       1.0  0.57522  0.85382  0.59697  1.0000
  S   S333      1.0  0.85196  0.59224  0.71354  1.0000
  Fe  Fe167     1.0  0.88561  0.55095  0.71704  1.0000
  Fe  Fe168     1.0  0.87920  0.63693  0.72040  1.0000
  S   S334      1.0  0.88184  0.69739  0.71339  1.0000
  H   H1984     1.0  0.55461  0.90297  0.60261  1.0000
  H   H1985     1.0  0.77258  0.66764  0.52617  1.0000
  Fe  Fe169     1.0  0.80682  0.94955  0.67420  1.0000
  S   S335      1.0  0.76572  0.96974  0.67062  1.0000
  H   H1986     1.0  0.79839  0.97887  0.61811  1.0000
  Fe  Fe170     1.0  0.79146  0.86681  0.67788  1.0000
  S   S336      1.0  0.74921  0.88259  0.67462  1.0000
  S   S337      1.0  0.79804  0.80337  0.67907  1.0000
  Fe  Fe171     1.0  0.75879  0.91925  0.65784  1.0000
  S   S338      1.0  0.74068  0.92416  0.63625  1.0000
  Fe  Fe172     1.0  0.76000  0.93099  0.68767  1.0000
  S   S339      1.0  0.74204  0.95091  0.70557  1.0000
  S   S340      1.0  0.80040  0.90123  0.66035  1.0000
  S   S341      1.0  0.80176  0.91309  0.69205  1.0000
  S   S342      1.0  0.63145  0.91179  0.71946  1.0000
  Fe  Fe173     1.0  0.66810  0.82028  0.55554  1.0000
  S   S343      1.0  0.68665  0.78057  0.57155  1.0000
  S   S344      1.0  0.69581  0.84926  0.54371  1.0000
  Fe  Fe174     1.0  0.61399  0.80031  0.56053  1.0000
  S   S345      1.0  0.62861  0.75906  0.57676  1.0000
  S   S346      1.0  0.57201  0.81626  0.55372  1.0000
  Fe  Fe175     1.0  0.65695  0.80267  0.58376  1.0000
  S   S347      1.0  0.66339  0.81146  0.60608  1.0000
  Fe  Fe176     1.0  0.65726  0.74061  0.56314  1.0000
  S   S348      1.0  0.66943  0.67954  0.56167  1.0000
  S   S349      1.0  0.64038  0.84555  0.56836  1.0000
  S   S350      1.0  0.64057  0.77869  0.54629  1.0000
  C   C1164     1.0  0.78003  0.78926  0.72713  1.0000
  S   S351      1.0  0.67048  0.59145  0.50799  1.0000
  C   C1165     1.0  0.56519  0.87783  0.60741  1.0000
  C   C1166     1.0  0.55685  0.67000  0.54190  1.0000
  H   H1987     1.0  0.65460  0.90531  0.69532  1.0000
  H   H1988     1.0  0.58911  0.86225  0.57786  1.0000
  C   C1167     1.0  0.68875  0.89467  0.53706  1.0000
  C   C1168     1.0  0.66394  0.91071  0.53600  1.0000
  C   C1169     1.0  0.65852  0.94542  0.52933  1.0000
  C   C1170     1.0  0.67787  0.96421  0.52375  1.0000
  C   C1171     1.0  0.70285  0.94879  0.52532  1.0000
  C   C1172     1.0  0.70823  0.91405  0.53187  1.0000
  H   H1989     1.0  0.64881  0.89594  0.53996  1.0000
  H   H1990     1.0  0.63916  0.95729  0.52820  1.0000
  H   H1991     1.0  0.71799  0.96336  0.52135  1.0000
  H   H1992     1.0  0.72750  0.90193  0.53279  1.0000
  C   C1173     1.0  0.67286  0.61685  0.52284  1.0000
  C   C1174     1.0  0.68297  0.60039  0.53501  1.0000
  C   C1175     1.0  0.68230  0.62029  0.54680  1.0000
  C   C1176     1.0  0.67200  0.65701  0.54650  1.0000
  C   C1177     1.0  0.66278  0.67402  0.53427  1.0000
  C   C1178     1.0  0.66281  0.65376  0.52252  1.0000
  H   H1993     1.0  0.69052  0.57187  0.53539  1.0000
  H   H1994     1.0  0.68945  0.60691  0.55622  1.0000
  H   H1995     1.0  0.65504  0.70238  0.53390  1.0000
  H   H1996     1.0  0.65488  0.66661  0.51313  1.0000
  C   C1179     1.0  0.71859  0.89330  0.62805  1.0000
  C   C1180     1.0  0.70458  0.86888  0.63505  1.0000
  C   C1181     1.0  0.68723  0.84478  0.62813  1.0000
  C   C1182     1.0  0.68417  0.84416  0.61419  1.0000
  C   C1183     1.0  0.69808  0.86870  0.60718  1.0000
  C   C1184     1.0  0.71504  0.89335  0.61409  1.0000
  H   H1997     1.0  0.70693  0.86882  0.64578  1.0000
  H   H1998     1.0  0.67639  0.82611  0.63363  1.0000
  H   H1999     1.0  0.69585  0.86862  0.59645  1.0000
  H   H2000     1.0  0.72569  0.91227  0.60858  1.0000
  C   C1185     1.0  0.71213  0.93587  0.70941  1.0000
  C   C1186     1.0  0.69364  0.92270  0.69969  1.0000
  C   C1187     1.0  0.66908  0.91448  0.70294  1.0000
  C   C1188     1.0  0.66303  0.91897  0.71593  1.0000
  C   C1189     1.0  0.68188  0.93068  0.72573  1.0000
  C   C1190     1.0  0.70620  0.93960  0.72243  1.0000
  H   H2001     1.0  0.69802  0.91993  0.68961  1.0000
  C   C1191     1.0  0.96253  0.53867  0.70899  1.0000
  H   H2002     1.0  0.74052  0.71733  0.52497  1.0000
  C   C1192     1.0  0.56171  0.81787  0.73398  1.0000
  H   H2003     1.0  0.81875  0.66039  0.71753  1.0000
  C   C1193     1.0  0.85777  0.72634  0.70417  1.0000
  C   C1194     1.0  0.85975  0.76538  0.70473  1.0000
  C   C1195     1.0  0.84135  0.78949  0.69736  1.0000
  C   C1196     1.0  0.82096  0.77470  0.68920  1.0000
  C   C1197     1.0  0.81884  0.73566  0.68874  1.0000
  C   C1198     1.0  0.83709  0.71156  0.69621  1.0000
  H   H2004     1.0  0.87574  0.77706  0.71082  1.0000
  H   H2005     1.0  0.84325  0.81945  0.69777  1.0000
  H   H2006     1.0  0.80317  0.72396  0.68243  1.0000
  H   H2007     1.0  0.83548  0.68161  0.69559  1.0000
  H   H2008     1.0  0.60885  0.92393  0.58239  1.0000
  C   C1199     1.0  0.54229  0.75002  0.71877  1.0000
  H   H2009     1.0  0.78850  0.65505  0.72389  1.0000
  H   H2010     1.0  0.59006  0.61460  0.54377  1.0000
  C   C1200     1.0  0.60129  0.66578  0.56441  1.0000
  C   C1201     1.0  0.51987  0.80748  0.55127  1.0000
  C   C1202     1.0  0.54402  0.79239  0.55666  1.0000
  C   C1203     1.0  0.54517  0.76007  0.56469  1.0000
  C   C1204     1.0  0.52236  0.74343  0.56742  1.0000
  H   H2011     1.0  0.73837  0.73440  0.61377  1.0000
  H   H2012     1.0  0.51875  0.83252  0.54507  1.0000
  H   H2013     1.0  0.56353  0.74846  0.56909  1.0000
  H   H2014     1.0  0.52339  0.71871  0.57378  1.0000
  H   H2015     1.0  0.57627  0.75594  0.51946  1.0000
  N   N86       1.0  0.75985  0.78228  0.63480  1.0000
  C   C1205     1.0  0.74805  0.79116  0.62072  1.0000
  C   C1206     1.0  0.77305  0.81685  0.63993  1.0000
  C   C1207     1.0  0.73843  0.77309  0.64288  1.0000
  C   C1208     1.0  0.77826  0.74922  0.63445  1.0000
  C   C1209     1.0  0.72926  0.76256  0.61425  1.0000
  C   C1210     1.0  0.79479  0.83011  0.63221  1.0000
  C   C1211     1.0  0.74361  0.77705  0.65804  1.0000
  C   C1212     1.0  0.79517  0.73766  0.64747  1.0000
  H   H2016     1.0  0.73741  0.81859  0.62015  1.0000
  H   H2017     1.0  0.76308  0.79411  0.61396  1.0000
  H   H2018     1.0  0.78141  0.81358  0.65044  1.0000
  H   H2019     1.0  0.75881  0.84058  0.63995  1.0000
  H   H2020     1.0  0.72128  0.79160  0.63980  1.0000
  H   H2021     1.0  0.73205  0.74410  0.64102  1.0000
  H   H2022     1.0  0.76763  0.72390  0.63132  1.0000
  H   H2023     1.0  0.79113  0.75290  0.62660  1.0000
  H   H2024     1.0  0.71170  0.76088  0.61928  1.0000
  H   H2025     1.0  0.72266  0.77202  0.60387  1.0000
  H   H2026     1.0  0.80408  0.85404  0.63738  1.0000
  H   H2027     1.0  0.80995  0.80808  0.63182  1.0000
  H   H2028     1.0  0.78737  0.84053  0.62208  1.0000
  H   H2029     1.0  0.74566  0.80673  0.66081  1.0000
  H   H2030     1.0  0.76051  0.76031  0.66257  1.0000
  H   H2031     1.0  0.72685  0.76703  0.66263  1.0000
  H   H2032     1.0  0.78547  0.71704  0.65329  1.0000
  H   H2033     1.0  0.80119  0.76117  0.65385  1.0000
  H   H2034     1.0  0.81345  0.72453  0.64508  1.0000
  C   C1213     1.0  0.59858  0.69065  0.55168  1.0000
  H   H2035     1.0  0.82521  0.96779  0.63070  1.0000
  H   H2036     1.0  0.58535  0.75621  0.53685  1.0000
  C   C1214     1.0  0.86531  0.97316  0.49737  1.0000
  H   H2037     1.0  0.54784  0.82887  0.61699  1.0000
  H   H2038     1.0  0.53333  0.76134  0.70900  1.0000
  C   C1215     1.0  0.76081  0.69486  0.50110  1.0000
  H   H2039     1.0  0.55562  0.64892  0.54996  1.0000
  C   C1216     1.0  0.59424  0.62175  0.52307  1.0000
  H   H2040     1.0  0.77084  0.63108  0.51452  1.0000
  S   S352      1.0  0.74182  0.54291  0.51111  1.0000
  C   C1217     1.0  0.67328  0.84075  0.50584  1.0000
  H   H2041     1.0  0.71388  0.68943  0.52235  1.0000
  H   H2042     1.0  0.60568  0.63808  0.51662  1.0000
  H   H2043     1.0  0.82018  0.77891  0.73231  1.0000
  H   H2044     1.0  0.79730  0.94041  0.62951  1.0000
  C   C1218     1.0  0.77987  0.72174  0.50832  1.0000
  H   H2045     1.0  0.61328  0.84808  0.60792  1.0000
  C   C1219     1.0  0.59705  0.63658  0.53732  1.0000
  S   S353      1.0  0.84003  0.98827  0.67153  1.0000
  C   C1220     1.0  0.60636  0.90420  0.59068  1.0000
  H   H2046     1.0  0.82609  0.94192  0.50928  1.0000
  H   H2047     1.0  0.61816  0.63709  0.54033  1.0000
  H   H2048     1.0  0.61259  0.78371  0.61568  1.0000
  H   H2049     1.0  0.60301  0.92116  0.59936  1.0000
  H   H2050     1.0  0.62475  0.88782  0.59281  1.0000
  H   H2051     1.0  0.53991  0.91533  0.72855  1.0000
  C   C1221     1.0  0.72793  0.70407  0.51689  1.0000
  H   H2052     1.0  0.65500  0.99649  0.72948  1.0000
  H   H2053     1.0  0.68896  0.94919  0.49648  1.0000
  Fe  Fe177     1.0  0.84852  0.58303  0.73523  1.0000
  H   H2054     1.0  0.94167  0.53515  0.70878  1.0000
  H   H2055     1.0  0.70761  0.64599  0.50607  1.0000
  C   C1222     1.0  0.59836  0.83035  0.60276  1.0000
  H   H2056     1.0  0.54812  0.80876  0.59720  1.0000
  H   H2057     1.0  0.56402  0.81098  0.58304  1.0000
  H   H2058     1.0  0.58248  0.66056  0.56788  1.0000
  C   C1223     1.0  0.74402  0.62846  0.52900  1.0000
  H   H2059     1.0  0.69143  0.83730  0.51266  1.0000
  H   H2060     1.0  0.56768  0.89822  0.58196  1.0000
  H   H2061     1.0  0.88477  0.98277  0.49601  1.0000
  H   H2062     1.0  0.79455  0.96260  0.50825  1.0000
  H   H2063     1.0  0.72891  0.61190  0.52358  1.0000
  H   H2064     1.0  0.79437  0.70684  0.51555  1.0000
  H   H2065     1.0  0.57884  0.74289  0.73044  1.0000
  H   H2066     1.0  0.58915  0.81185  0.62237  1.0000
  H   H2067     1.0  0.99701  0.54363  0.72175  1.0000
  H   H2068     1.0  0.67205  0.89990  0.50878  1.0000
  H   H2069     1.0  0.75756  0.60830  0.53489  1.0000
  H   H2070     1.0  0.58001  0.77913  0.60913  1.0000
  H   H2071     1.0  0.61278  0.68048  0.57249  1.0000
  H   H2072     1.0  0.69266  0.72516  0.50492  1.0000
  H   H2073     1.0  0.65765  0.83474  0.51196  1.0000
  N   N87       1.0  0.57567  0.80096  0.72330  1.0000
  H   H2074     1.0  0.73542  0.64646  0.53619  1.0000
  C   C1224     1.0  0.71366  0.88409  0.49549  1.0000
  H   H2075     1.0  0.53795  0.62654  0.52965  1.0000
  C   C1225     1.0  0.58368  0.87900  0.58631  1.0000
  C   C1226     1.0  0.58693  0.70061  0.52795  1.0000
  C   C1227     1.0  0.59414  0.79971  0.61302  1.0000
  C   C1228     1.0  0.52435  0.89638  0.72881  1.0000
  H   H2076     1.0  0.61831  0.69792  0.54983  1.0000
  H   H2077     1.0  0.81997  0.72323  0.72080  1.0000
  C   C1229     1.0  0.53786  0.65748  0.53019  1.0000
  H   H2078     1.0  0.58917  0.71731  0.55424  1.0000
  H   H2079     1.0  0.75894  0.01131  0.61009  1.0000
  N   N88       1.0  0.80180  0.72929  0.73878  1.0000
  C   C1230     1.0  0.57080  0.75994  0.72166  1.0000
  H   H2080     1.0  0.51820  0.66769  0.53165  1.0000
  C   C1231     1.0  0.75888  0.65133  0.51958  1.0000
  H   H2081     1.0  0.60743  0.81644  0.59468  1.0000
  H   H2082     1.0  0.57840  0.68960  0.51836  1.0000
  N   N89       1.0  0.58438  0.67419  0.53944  1.0000
  C   C1232     1.0  0.97655  0.54025  0.72316  1.0000
  C   C1233     1.0  0.60415  0.80694  0.72580  1.0000
  C   C1234     1.0  0.55527  0.82888  0.59024  1.0000
  H   H2083     1.0  0.55423  0.73977  0.53018  1.0000
  H   H2084     1.0  0.65824  0.99696  0.70862  1.0000
  H   H2085     1.0  0.61820  0.75568  0.73754  1.0000
  H   H2086     1.0  0.78696  0.53587  0.69869  1.0000
  H   H2087     1.0  0.73399  0.62413  0.49962  1.0000
  S   S354      1.0  0.73662  0.99944  0.49918  1.0000
  H   H2088     1.0  0.54874  0.69593  0.54593  1.0000
  H   H2089     1.0  0.57409  0.62126  0.51850  1.0000
  Fe  Fe178     1.0  0.70068  0.54970  0.50207  1.0000
  H   H2090     1.0  0.60758  0.70378  0.52677  1.0000
  H   H2091     1.0  0.82013  0.98468  0.51785  1.0000
  C   C1235     1.0  0.81519  0.96901  0.50864  1.0000
  H   H2092     1.0  0.60224  0.59259  0.52331  1.0000
  H   H2093     1.0  0.54087  0.82109  0.73048  1.0000
  H   H2094     1.0  0.56784  0.84684  0.73589  1.0000
  H   H2095     1.0  0.58142  0.88877  0.61416  1.0000
  H   H2096     1.0  0.67764  0.93337  0.73581  1.0000
  H   H2097     1.0  0.71792  0.89815  0.50517  1.0000
  H   H2098     1.0  0.64281  0.94738  0.49181  1.0000
  C   C1236     1.0  0.57486  0.74016  0.52885  1.0000
  H   H2099     1.0  0.76110  0.78478  0.73058  1.0000
  H   H2100     1.0  0.51630  0.82853  0.58013  1.0000
  H   H2101     1.0  0.61186  0.63899  0.56325  1.0000
  C   C1237     1.0  0.80738  0.66835  0.72564  1.0000
  H   H2102     1.0  0.57147  0.87835  0.71711  1.0000
  H   H2103     1.0  0.53089  0.75973  0.72664  1.0000
  H   H2104     1.0  0.78690  0.71815  0.71847  1.0000
  H   H2105     1.0  0.56140  0.87433  0.69976  1.0000
  H   H2106     1.0  0.78243  0.81998  0.72675  1.0000
  H   H2107     1.0  0.93873  0.53301  0.73787  1.0000
  H   H2108     1.0  0.55051  0.87002  0.62642  1.0000
  H   H2109     1.0  0.78001  0.77970  0.71680  1.0000
  N   N90       1.0  0.84584  0.00519  0.49527  1.0000
  N   N91       1.0  0.74273  0.67639  0.50949  1.0000
  C   C1238     1.0  0.80398  0.96936  0.62852  1.0000
  H   H2110     1.0  0.70976  0.75957  0.51493  1.0000
  H   H2111     1.0  0.80949  0.53998  0.71303  1.0000
  H   H2112     1.0  0.81832  0.65597  0.73470  1.0000
  C   C1239     1.0  0.80414  0.71124  0.72567  1.0000
  H   H2113     1.0  0.96478  0.56564  0.70374  1.0000
  C   C1240     1.0  0.72468  0.65193  0.50103  1.0000
  H   H2114     1.0  0.72050  0.94956  0.73000  1.0000
  H   H2115     1.0  0.77001  0.74442  0.51324  1.0000
  H   H2116     1.0  0.97018  0.56675  0.72757  1.0000
  H   H2117     1.0  0.52311  0.87103  0.58863  1.0000
  C   C1241     1.0  0.71203  0.73502  0.50859  1.0000
  Fe  Fe179     1.0  0.62077  0.92633  0.73975  1.0000
  C   C1242     1.0  0.61937  0.78645  0.73789  1.0000
  S   S355      1.0  0.66987  0.00509  0.51397  1.0000
  H   H2118     1.0  0.58092  0.74878  0.71345  1.0000
  H   H2119     1.0  0.53578  0.86161  0.57316  1.0000
  H   H2120     1.0  0.61696  0.99105  0.71915  1.0000
  H   H2121     1.0  0.61351  0.79888  0.71693  1.0000
  H   H2122     1.0  0.60798  0.83707  0.72727  1.0000
  H   H2123     1.0  0.71722  0.85370  0.49762  1.0000
  H   H2124     1.0  0.52641  0.86878  0.61270  1.0000
  H   H2125     1.0  0.57174  0.80472  0.70171  1.0000
  C   C1243     1.0  0.56559  0.82037  0.71024  1.0000
  H   H2126     1.0  0.54421  0.82120  0.70867  1.0000
  C   C1244     1.0  0.57363  0.86104  0.70837  1.0000
  C   C1245     1.0  0.80247  0.77112  0.73659  1.0000
  H   H2127     1.0  0.54093  0.71916  0.71843  1.0000
  H   H2128     1.0  0.59375  0.86185  0.70608  1.0000
  H   H2129     1.0  0.76078  0.72109  0.73525  1.0000
  C   C1246     1.0  0.53137  0.84918  0.58269  1.0000
  H   H2130     1.0  0.85451  0.71252  0.73628  1.0000
  C   C1247     1.0  0.54655  0.85964  0.61616  1.0000
  H   H2131     1.0  0.63999  0.79262  0.73797  1.0000
  H   H2132     1.0  0.75362  0.88952  0.49263  1.0000
  C   C1248     1.0  0.80224  0.52029  0.70529  1.0000
  H   H2133     1.0  0.87546  0.91761  0.49097  1.0000
  H   H2134     1.0  0.79069  0.73523  0.50088  1.0000
  C   C1249     1.0  0.81905  0.99204  0.49608  1.0000
  C   C1250     1.0  0.79195  0.99420  0.63853  1.0000
  H   H2135     1.0  0.64865  0.88446  0.49633  1.0000
  H   H2136     1.0  0.77188  0.98607  0.63846  1.0000
  C   C1251     1.0  0.66935  0.88113  0.50021  1.0000
  H   H2137     1.0  0.80117  0.98525  0.64859  1.0000
  H   H2138     1.0  0.67269  0.81981  0.49793  1.0000
  H   H2139     1.0  0.51710  0.89269  0.70754  1.0000
  C   C1252     1.0  0.51138  0.88354  0.71692  1.0000
  H   H2140     1.0  0.77224  0.67317  0.49647  1.0000
  H   H2141     1.0  0.69001  0.01431  0.70843  1.0000
  H   H2142     1.0  0.72138  0.74576  0.50018  1.0000
  H   H2143     1.0  0.75050  0.71115  0.49260  1.0000
  S   S356      1.0  0.88044  0.53924  0.73829  1.0000
  H   H2144     1.0  0.86702  0.96212  0.50778  1.0000
  H   H2145     1.0  0.97109  0.51663  0.70320  1.0000
  H   H2146     1.0  0.98297  0.82441  0.87085  1.0000
  C   C1253     1.0  0.88572  0.82066  0.93841  1.0000
  C   C1254     1.0  0.77863  0.65838  0.98555  1.0000
  Fe  Fe180     1.0  0.86467  0.72104  0.92872  1.0000
  S   S357      1.0  0.85269  0.76322  0.91245  1.0000
  S   S358      1.0  0.90623  0.70775  0.93719  1.0000
  Fe  Fe181     1.0  0.80894  0.69939  0.93051  1.0000
  S   S359      1.0  0.79321  0.74109  0.91450  1.0000
  S   S360      1.0  0.77793  0.66373  0.93721  1.0000
  Fe  Fe182     1.0  0.82547  0.72027  0.90376  1.0000
  S   S361      1.0  0.82369  0.70125  0.88246  1.0000
  Fe  Fe183     1.0  0.82153  0.77986  0.92485  1.0000
  S   S362      1.0  0.81389  0.84149  0.92810  1.0000
  S   S363      1.0  0.83979  0.67652  0.91922  1.0000
  S   S364      1.0  0.83491  0.73977  0.94170  1.0000
  H   H2147     1.0  0.68460  0.89906  0.94866  1.0000
  C   C1255     1.0  0.98562  0.66786  0.75429  1.0000
  C   C1256     1.0  0.87165  0.82948  0.97476  1.0000
  H   H2148     1.0  0.98684  0.68979  0.74695  1.0000
  C   C1257     1.0  0.77502  0.68329  0.75132  1.0000
  S   S365      1.0  0.59653  0.94544  0.77384  1.0000
  H   H2149     1.0  0.57227  0.81534  0.75552  1.0000
  Fe  Fe184     1.0  0.60935  0.98754  0.75934  1.0000
  S   S366      1.0  0.64501  0.95321  0.75636  1.0000
  Fe  Fe185     1.0  0.63032  0.90913  0.76936  1.0000
  S   S367      1.0  0.65900  0.87510  0.78374  1.0000
  H   H2150     1.0  0.87208  0.76327  0.96320  1.0000
  H   H2151     1.0  0.86533  0.71361  0.75357  1.0000
  H   H2152     1.0  0.69274  0.99757  0.74462  1.0000
  Fe  Fe186     1.0  0.71428  0.64114  0.82741  1.0000
  S   S368      1.0  0.67422  0.63282  0.81772  1.0000
  S   S369      1.0  0.71796  0.66469  0.84827  1.0000
  Fe  Fe187     1.0  0.73675  0.61484  0.80298  1.0000
  S   S370      1.0  0.69837  0.60411  0.79138  1.0000
  S   S371      1.0  0.77699  0.61004  0.79699  1.0000
  Fe  Fe188     1.0  0.68621  0.65932  0.79940  1.0000
  S   S372      1.0  0.65647  0.69793  0.78732  1.0000
  Fe  Fe189     1.0  0.68850  0.57795  0.81047  1.0000
  H   H2153     1.0  0.75785  0.96688  0.93546  1.0000
  S   S373      1.0  0.72516  0.67208  0.80959  1.0000
  S   S374      1.0  0.72798  0.58443  0.82160  1.0000
  C   C1258     1.0  0.65906  0.82572  0.78310  1.0000
  C   C1259     1.0  0.63665  0.80701  0.77892  1.0000
  C   C1260     1.0  0.63642  0.76778  0.77993  1.0000
  C   C1261     1.0  0.65855  0.74683  0.78512  1.0000
  C   C1262     1.0  0.68126  0.76536  0.78881  1.0000
  C   C1263     1.0  0.68146  0.80470  0.78787  1.0000
  H   H2154     1.0  0.61923  0.82284  0.77537  1.0000
  H   H2155     1.0  0.61880  0.75365  0.77700  1.0000
  H   H2156     1.0  0.69852  0.74941  0.79258  1.0000
  H   H2157     1.0  0.69891  0.81897  0.79103  1.0000
  C   C1264     1.0  0.79932  0.58548  0.75561  1.0000
  C   C1265     1.0  0.77362  0.58304  0.75801  1.0000
  C   C1266     1.0  0.76630  0.59120  0.77057  1.0000
  C   C1267     1.0  0.78475  0.60146  0.78084  1.0000
  C   C1268     1.0  0.81038  0.60425  0.77837  1.0000
  C   C1269     1.0  0.81764  0.59651  0.76579  1.0000
  H   H2158     1.0  0.73063  0.55747  0.88259  1.0000
  H   H2159     1.0  0.74653  0.58896  0.77238  1.0000
  H   H2160     1.0  0.82474  0.61213  0.78628  1.0000
  C   C1270     1.0  0.79414  0.69282  0.87276  1.0000
  C   C1271     1.0  0.77064  0.70485  0.87666  1.0000
  C   C1272     1.0  0.74750  0.69695  0.86883  1.0000
  C   C1273     1.0  0.74760  0.67669  0.85712  1.0000
  C   C1274     1.0  0.77110  0.66520  0.85310  1.0000
  C   C1275     1.0  0.79425  0.67331  0.86089  1.0000
  H   H2161     1.0  0.77027  0.72024  0.88569  1.0000
  H   H2162     1.0  0.72941  0.70615  0.87197  1.0000
  H   H2163     1.0  0.77144  0.64969  0.84408  1.0000
  H   H2164     1.0  0.81232  0.66410  0.85772  1.0000
  C   C1276     1.0  0.80550  0.85550  0.94364  1.0000
  C   C1277     1.0  0.79924  0.82924  0.95297  1.0000
  C   C1278     1.0  0.79253  0.84096  0.96525  1.0000
  C   C1279     1.0  0.79185  0.87900  0.96830  1.0000
  C   C1280     1.0  0.79852  0.90531  0.95906  1.0000
  C   C1281     1.0  0.80526  0.89356  0.94674  1.0000
  H   H2165     1.0  0.79923  0.79990  0.95067  1.0000
  H   H2166     1.0  0.78753  0.82045  0.97239  1.0000
  H   H2167     1.0  0.79863  0.93461  0.96146  1.0000
  H   H2168     1.0  0.81031  0.91402  0.93961  1.0000
  C   C1282     1.0  0.79223  0.56952  0.96862  1.0000
  C   C1283     1.0  0.76829  0.57490  0.96107  1.0000
  C   C1284     1.0  0.76435  0.60361  0.95136  1.0000
  C   C1285     1.0  0.78436  0.62694  0.94901  1.0000
  C   C1286     1.0  0.80850  0.62111  0.95631  1.0000
  C   C1287     1.0  0.81238  0.59252  0.96613  1.0000
  H   H2169     1.0  0.75271  0.55727  0.96283  1.0000
  H   H2170     1.0  0.74563  0.60796  0.94573  1.0000
  H   H2171     1.0  0.82404  0.63897  0.95457  1.0000
  H   H2172     1.0  0.83097  0.58844  0.97192  1.0000
  C   C1288     1.0  0.78076  0.54965  0.91897  1.0000
  C   C1289     1.0  0.89114  0.77624  0.96485  1.0000
  C   C1290     1.0  0.96548  0.64269  0.75247  1.0000
  H   H2173     1.0  0.95253  0.79804  0.91234  1.0000
  C   C1291     1.0  0.75177  0.98143  0.94415  1.0000
  H   H2174     1.0  0.73771  0.62755  0.97250  1.0000
  C   C1292     1.0  0.66587  0.96750  0.93667  1.0000
  S   S375      1.0  0.60847  0.88030  0.75252  1.0000
  C   C1293     1.0  0.95828  0.71342  0.93687  1.0000
  C   C1294     1.0  0.93380  0.72824  0.93195  1.0000
  C   C1295     1.0  0.93188  0.75879  0.92305  1.0000
  C   C1296     1.0  0.95422  0.77426  0.91915  1.0000
  H   H2175     1.0  0.66219  0.73894  0.85573  1.0000
  H   H2176     1.0  0.96000  0.68985  0.94378  1.0000
  H   H2177     1.0  0.91324  0.77067  0.91924  1.0000
  N   N92       1.0  0.76583  0.59859  0.90035  1.0000
  C   C1297     1.0  0.74529  0.61764  0.90726  1.0000
  H   H2178     1.0  0.98094  0.58910  0.78042  1.0000
  H   H2179     1.0  0.93130  0.80022  0.95206  1.0000
  C   C1298     1.0  0.79078  0.61764  0.90399  1.0000
  C   C1299     1.0  0.73866  0.65886  0.90322  1.0000
  H   H2180     1.0  0.85084  0.88135  0.96685  1.0000
  H   H2181     1.0  0.76084  0.63018  0.88177  1.0000
  C   C1300     1.0  0.51771  0.88377  0.74100  1.0000
  H   H2182     1.0  0.72712  0.60227  0.90584  1.0000
  H   H2183     1.0  0.75087  0.61715  0.91816  1.0000
  H   H2184     1.0  0.99338  0.77447  0.88524  1.0000
  H   H2185     1.0  0.73262  0.97189  0.96144  1.0000
  H   H2186     1.0  0.70565  0.58221  0.97987  1.0000
  H   H2187     1.0  0.75486  0.67918  0.75316  1.0000
  H   H2188     1.0  0.78916  0.64739  0.90055  1.0000
  H   H2189     1.0  0.79549  0.61953  0.91495  1.0000
  H   H2190     1.0  0.75498  0.67713  0.90600  1.0000
  H   H2191     1.0  0.73179  0.66254  0.89252  1.0000
  H   H2192     1.0  0.72287  0.66901  0.90873  1.0000
  H   H2193     1.0  0.69528  0.60994  0.96540  1.0000
  H   H2194     1.0  0.69685  0.91269  0.92801  1.0000
  Fe  Fe190     1.0  0.57556  0.91903  0.75580  1.0000
  C   C1301     1.0  0.73580  0.89361  0.93236  1.0000
  H   H2195     1.0  0.82153  0.73291  0.75865  1.0000
  H   H2196     1.0  0.85453  0.87622  0.98434  1.0000
  H   H2197     1.0  0.89219  0.76028  0.98599  1.0000
  H   H2198     1.0  0.78749  0.63026  0.98805  1.0000
  C   C1302     1.0  0.69989  0.91478  0.95448  1.0000
  H   H2199     1.0  0.78656  0.68330  0.76123  1.0000
  H   H2200     1.0  0.77913  0.51952  0.92143  1.0000
  C   C1303     1.0  0.75944  0.60111  0.88549  1.0000
  C   C1304     1.0  0.96365  0.61419  0.76189  1.0000
  H   H2201     1.0  0.74977  0.93311  0.95650  1.0000
  N   N93       1.0  0.88798  0.81829  0.96409  1.0000
  H   H2202     1.0  0.75209  0.89587  0.94018  1.0000
  H   H2203     1.0  0.88931  0.79031  0.93745  1.0000
  H   H2204     1.0  0.69108  0.98972  0.95255  1.0000
  C   C1305     1.0  0.82377  0.71824  0.74925  1.0000
  C   C1306     1.0  0.99735  0.84533  0.87436  1.0000
  H   H2205     1.0  0.99582  0.77582  0.74132  1.0000
  C   C1307     1.0  0.81427  0.60092  0.89804  1.0000
  H   H2206     1.0  0.73020  0.86930  0.95632  1.0000
  H   H2207     1.0  0.66569  0.95696  0.92647  1.0000
  H   H2208     1.0  0.90343  0.83628  0.93784  1.0000
  N   N94       1.0  0.91000  0.68802  0.88839  1.0000
  C   C1308     1.0  0.89757  0.72019  0.87982  1.0000
  C   C1309     1.0  0.90929  0.65410  0.87978  1.0000
  C   C1310     1.0  0.93754  0.69749  0.89260  1.0000
  C   C1311     1.0  0.89556  0.68316  0.90027  1.0000
  C   C1312     1.0  0.89937  0.75928  0.88593  1.0000
  C   C1313     1.0  0.88225  0.64289  0.87376  1.0000
  C   C1314     1.0  0.95406  0.66869  0.90158  1.0000
  C   C1315     1.0  0.89753  0.64410  0.90723  1.0000
  H   H2209     1.0  0.90583  0.72199  0.87022  1.0000
  H   H2210     1.0  0.87670  0.71586  0.87711  1.0000
  H   H2211     1.0  0.91862  0.62913  0.88511  1.0000
  H   H2212     1.0  0.92070  0.65862  0.87134  1.0000
  H   H2213     1.0  0.94759  0.70291  0.88372  1.0000
  H   H2214     1.0  0.93863  0.72357  0.89834  1.0000
  H   H2215     1.0  0.90155  0.70401  0.90789  1.0000
  H   H2216     1.0  0.87471  0.68913  0.89735  1.0000
  H   H2217     1.0  0.88552  0.77891  0.87997  1.0000
  H   H2218     1.0  0.89445  0.75923  0.89620  1.0000
  H   H2219     1.0  0.91873  0.77064  0.88570  1.0000
  H   H2220     1.0  0.88349  0.61466  0.86949  1.0000
  H   H2221     1.0  0.86851  0.64183  0.88121  1.0000
  H   H2222     1.0  0.87428  0.66225  0.86551  1.0000
  S   S376      1.0  0.65856  0.53332  0.81242  1.0000
  H   H2223     1.0  0.95526  0.64092  0.89706  1.0000
  H   H2224     1.0  0.94737  0.66647  0.91152  1.0000
  H   H2225     1.0  0.89784  0.64771  0.91809  1.0000
  H   H2226     1.0  0.91477  0.62682  0.90597  1.0000
  H   H2227     1.0  0.88006  0.62820  0.90421  1.0000
  C   C1316     1.0  0.90493  0.75956  0.97803  1.0000
  C   C1317     1.0  0.91316  0.83776  0.96633  1.0000
  H   H2228     1.0  0.81282  0.57097  0.89577  1.0000
  H   H2229     1.0  0.74444  0.89506  0.92290  1.0000
  H   H2230     1.0  0.97398  0.67872  0.90335  1.0000
  H   H2231     1.0  0.72748  0.86568  0.93324  1.0000
  C   C1318     1.0  0.73639  0.95610  0.95253  1.0000
  C   C1319     1.0  0.86455  0.87152  0.97544  1.0000
  H   H2232     1.0  0.65435  0.99421  0.93582  1.0000
  H   H2233     1.0  0.95136  0.64542  0.74380  1.0000
  H   H2234     1.0  0.69442  0.73668  0.85123  1.0000
  H   H2235     1.0  0.70626  0.86496  0.96720  1.0000
  S   S377      1.0  0.78291  0.89187  0.98384  1.0000
  H   H2236     1.0  0.75514  0.58632  0.98937  1.0000
  C   C1320     1.0  0.97872  0.75937  0.92403  1.0000
  H   H2237     1.0  0.77385  0.58487  0.88052  1.0000
  N   N95       1.0  0.67311  0.77581  0.82835  1.0000
  C   C1321     1.0  0.65409  0.79941  0.81908  1.0000
  C   C1322     1.0  0.66800  0.73544  0.82531  1.0000
  C   C1323     1.0  0.69970  0.78466  0.82525  1.0000
  C   C1324     1.0  0.66970  0.78557  0.84245  1.0000
  C   C1325     1.0  0.65838  0.84182  0.81882  1.0000
  C   C1326     1.0  0.64025  0.72362  0.82618  1.0000
  C   C1327     1.0  0.72231  0.76162  0.83275  1.0000
  C   C1328     1.0  0.67859  0.75563  0.85337  1.0000
  H   H2238     1.0  0.65356  0.78980  0.80873  1.0000
  H   H2239     1.0  0.63418  0.79621  0.82155  1.0000
  H   H2240     1.0  0.68070  0.71585  0.83184  1.0000
  H   H2241     1.0  0.67249  0.72901  0.81512  1.0000
  H   H2242     1.0  0.70101  0.78130  0.81449  1.0000
  H   H2243     1.0  0.70403  0.81428  0.82738  1.0000
  H   H2244     1.0  0.67960  0.81182  0.84525  1.0000
  H   H2245     1.0  0.64901  0.79142  0.84330  1.0000
  H   H2246     1.0  0.66053  0.85362  0.82888  1.0000
  H   H2247     1.0  0.67513  0.84859  0.81362  1.0000
  H   H2248     1.0  0.64149  0.85625  0.81299  1.0000
  H   H2249     1.0  0.63965  0.69266  0.82627  1.0000
  H   H2250     1.0  0.63281  0.73345  0.83530  1.0000
  H   H2251     1.0  0.62727  0.73380  0.81730  1.0000
  H   H2252     1.0  0.72065  0.73122  0.83133  1.0000
  H   H2253     1.0  0.72514  0.76817  0.84344  1.0000
  H   H2254     1.0  0.74023  0.76933  0.82873  1.0000
  H   H2255     1.0  0.68551  0.76983  0.86269  1.0000
  H   H2256     1.0  0.69026  0.93007  0.96209  1.0000
  S   S378      1.0  0.93892  0.58146  0.75983  1.0000
  H   H2257     1.0  0.87225  0.82985  0.92958  1.0000
  C   C1329     1.0  0.70071  0.61121  0.97630  1.0000
  H   H2258     1.0  0.75932  0.57469  0.75015  1.0000
  C   C1330     1.0  0.76772  0.55796  0.90471  1.0000
  C   C1331     1.0  0.98065  0.72878  0.93290  1.0000
  H   H2259     1.0  0.77792  0.54057  0.89791  1.0000
  S   S379      1.0  0.77823  0.00617  0.98138  1.0000
  N   N96       1.0  0.71165  0.94203  0.94558  1.0000
  C   C1332     1.0  0.71796  0.88538  0.96243  1.0000
  S   S380      1.0  0.58600  0.96305  0.74162  1.0000
  H   H2260     1.0  0.70067  0.99679  0.93655  1.0000
  S   S381      1.0  0.87381  0.63001  0.74195  1.0000
  H   H2261     1.0  0.88163  0.88909  0.97641  1.0000
  H   H2262     1.0  0.95019  0.80635  0.96782  1.0000
  S   S382      1.0  0.72779  0.96321  0.98884  1.0000
  H   H2263     1.0  0.88147  0.82152  0.98479  1.0000
  H   H2264     1.0  0.94668  0.84279  0.95567  1.0000
  H   H2265     1.0  0.77263  0.66089  0.97471  1.0000
  H   H2266     1.0  0.83748  0.59849  0.76406  1.0000
  H   H2267     1.0  0.98019  0.54011  0.75020  1.0000
  H   H2268     1.0  0.82395  0.68816  0.75205  1.0000
  H   H2269     1.0  0.71864  0.94685  0.92495  1.0000
  H   H2270     1.0  0.81717  0.61638  0.88877  1.0000
  H   H2271     1.0  0.76955  0.98932  0.95039  1.0000
  C   C1333     1.0  0.69327  0.97546  0.94308  1.0000
  C   C1334     1.0  0.71501  0.92502  0.93240  1.0000
  S   S383      1.0  0.53604  0.89515  0.75606  1.0000
  H   H2272     1.0  0.73018  0.89839  0.97064  1.0000
  H   H2273     1.0  0.90156  0.76506  0.95688  1.0000
  H   H2274     1.0  0.80153  0.55531  0.91998  1.0000
  C   C1335     1.0  0.98219  0.61108  0.77309  1.0000
  C   C1336     1.0  0.72354  0.63718  0.97907  1.0000
  H   H2275     1.0  0.77155  0.56557  0.92647  1.0000
  H   H2276     1.0  0.71703  0.60460  0.88313  1.0000
  C   C1337     1.0  0.73290  0.58723  0.87992  1.0000
  H   H2277     1.0  0.73089  0.58961  0.86890  1.0000
  C   C1338     1.0  0.93614  0.82019  0.96006  1.0000
  H   H2278     1.0  0.71673  0.66561  0.97525  1.0000
  H   H2279     1.0  0.90998  0.72964  0.97661  1.0000
  H   H2280     1.0  0.68343  0.62170  0.98054  1.0000
  Fe  Fe191     1.0  0.90644  0.58760  0.74290  1.0000
  C   C1339     1.0  0.87320  0.82998  0.95092  1.0000
  H   H2281     1.0  0.85326  0.81439  0.97367  1.0000
  H   H2282     1.0  0.79385  0.67892  0.98784  1.0000
  H   H2283     1.0  0.74126  0.00800  0.94097  1.0000
  Fe  Fe192     1.0  0.77007  0.95001  0.98955  1.0000
  H   H2284     1.0  0.86948  0.86071  0.95024  1.0000
  S   S384      1.0  0.79727  0.53566  0.98161  1.0000
  H   H2285     1.0  0.92297  0.77359  0.98136  1.0000
  H   H2286     1.0  0.83172  0.60303  0.90529  1.0000
  H   H2287     1.0  0.91960  0.83919  0.97717  1.0000
  H   H2288     1.0  0.85404  0.81722  0.94984  1.0000
  H   H2289     1.0  0.91059  0.86737  0.96271  1.0000
  H   H2290     1.0  0.65595  0.94812  0.94282  1.0000
  H   H2291     1.0  0.74829  0.54607  0.90414  1.0000
  H   H2292     1.0  0.78085  0.65890  0.74577  1.0000
  H   H2293     1.0  0.96852  0.86081  0.88713  1.0000
  H   H2294     1.0  0.77096  0.74264  0.75052  1.0000
  C   C1340     1.0  0.85086  0.72586  0.74565  1.0000
  H   H2295     1.0  0.99362  0.86834  0.86680  1.0000
  C   C1341     1.0  0.77649  0.72067  0.74366  1.0000
  C   C1342     1.0  0.98967  0.86190  0.88728  1.0000
  H   H2296     1.0  0.54419  0.79083  0.75003  1.0000
  H   H2297     1.0  0.80303  0.78573  0.74622  1.0000
  H   H2298     1.0  0.57506  0.77045  0.74843  1.0000
  C   C1343     1.0  0.56371  0.79697  0.74758  1.0000
  H   H2299     1.0  0.85448  0.75613  0.74506  1.0000
  H   H2300     1.0  0.99735  0.84581  0.89637  1.0000
  H   H2301     1.0  0.99526  0.89145  0.88824  1.0000
  H   H2302     1.0  0.74744  0.69504  0.98983  1.0000
  H   H2303     1.0  0.61399  0.79697  0.74739  1.0000
  H   H2304     1.0  0.61144  0.51601  0.76662  1.0000
  C   C1344     1.0  0.98872  0.51544  0.74558  1.0000
