data_image0
_chemical_formula_structural       FeS2FeS2FeCHCFeSFe2S2FeS2H2FeS2FeS2FeS2FeS2FeSHFeSFeHS2H4C2H2C2H2C3H2C6H4C6H4C4H2C4HCH3C6H4C6H4CH3NHCH3CHC2H3C2H7C2SHCH2CHCHCHCHNCHCHSH4CH4CH4CH2CHC2FeH2C3HCHC2HCNCHCH11CNH2CH2SH5C2HSH4SH4NH2CSH2C3SH3FeC2H4CHCH3CH4SHSC2H18NH3C4HCH2CH5C3SH3NC3H3CH2NH4C5H4CHCHC3HCH5CH4C2H2NCH2CHCH2SHNHCHC2S2FeSFeS2CHFeSCSH2SHFeSFeSCS2HC4H2C6H4C6H8C6H12SHFeC2H3CN2HCHNHC3H4CH8CHC2H2CH2CH5CHCHCHSFeH4CH3CSCH3CH2SH5CH2CHFeCH3CH3CS2HFeS2FeS2FeH3S2FeS2HCHFeSHCSH4C6H4C6H7C5H3C6H5C2H6CH4CH4CHC4H4NHC2H2FeHNCHCSH5CHCHCHSHCH3CH3CH3NHCHCHCHCHCH9CHCH6C2H2C2H2CH4C2H4CHNH4CNHC2HCH3SCSHFeCH6SH3CHCH3FeS2FeS2FeS2FeSHSNSFeSHFeS2FeSFeCS2FeHSH3CSHFeSFeS2HFeSC6H3C6H4C6H4C6H4SH3C3HFeH3FeC6H3C6H4C3H2C4H2CH2NH3SH4CH7CH3NC5H10CH4SHC2H3CNH6CHFeNCH4CSHC2H8CSC2H3C4SCH5SHC3H2CH3SC2HCHNH6CH3SC4H7CNC8H14FeH4CH3CSHCH5CHSH3NH4CHFeHCHC2SFeSCFeSFeCSFe2S2FeSFeS4FeS2FeS2HSCS2FeS2Fe2SFeCSCHCHC5H3C3H2CH2NHC6H5CHC2HCH4C5H2C4H3C6H7CH5SNC5HC2H3CH8CHCH5CNHC2H7CSHCH9CH3SCSHNC7H8CH4CH5CHNH2CFeC2H2CH4CFeCH2CH2SC2HC2HCHCHCH2C5SCH3CH6CHCH3NH3SH3FeH2SCH3CH4CH8CNCH2CH3CHS2C2H2CH5C2FeHCHC2HSFeSH2CS2H4SHCFeS3Fe3S3C7H3C6H5SH2C6H4C4H2CH3NC3H2C3H3C3H4C3H10CH3CH3CHCH6NHCH3CH2SHCH2CH5CHCHCH3CHC2H5CSH2CH4C2H7CH4CH2C2H2NHCHC2H3CSH6NCH3FeH2CH3NHCHCHFeH3FeH2S2C2S2H2SHFeSCFeSFeSH3SCHC6H4C5H2FeCSH2CH2NHC6H4C6H8CH2FeHCH3S2H2NSHFeCH2CNH2CHCHC3HCH2CH5CH4CH4CHC4SH4CH3CH3CH2CH5NHCH2CH8CH2CSHFeS2FeH3S2HFeS2FeSFeC2FeS2FeHCFeSHS2FeS2FeSHFeS5HS2C6H4C6H4C6H7C4H4C2SHC4H2C6H6C3SCHC2HCH4C2H2NHC3H2SHCH2SH2C2HC2H3NCNHNC2HNC2HCH2CH6CH4C2HCHCSH2SHCHFeSCH3CHC2HSHCH6CH3SH3SH3CH6NH5CH4CH2C2H2C2HC2HCFeCH3C2H8NH6C2H3CHCFeH2CH4CHC4H3CH2FeH5CHCSCH6CH4CHC2H3NH2CH4C2Fe2S2Fe2SCFeS2FeSH3CH2SCFeS2FeSHFeS2FeSFeS3CH2FeHFeH2SHC2H3C6H4C4H4CH3C6H4C6H4C6H2CHCHC2H2SCH2S2NCH3NH2CH5CH5CHCH8CH5CSCHC3H2NC8H18NCSC2NHCH2CSH4CH2SH8SH3C2HC2H6CH2FeC2H6C2HC5HCHCH6SHCHCH3CH8C3H3FeS2H2NFeSCSHFeS2H2FeSHSCHSH2CFeSHS3HSFeSC6H4C3HSH2CH2C3H3SC6H4C6H6CH5C3H3C2HCHNCH2C3H3C2H6CHCHFeSH7CHNC8H12CHCH7CH5CH3CH2FeH3CH2Fe2H2NH2CH2C4H2SH3NCHSHCHCHNCH2CSHC2H2CH7CHCHSH3CH2CH2FeS2HSHFeS2FeSFeS2FeNSHCHFeS2FeSHSHFeHSC2H2C6H3C6HCH2CHC2H7C6H4CHC3H5CH2C2H2CH3CNC8H20CSH5C2HCH4CHCH2CH3CSCH2CH5CNS2HSFeH6C2H3CH2CH2SCFeH5SH2C2H5CH3FeC7H2CH2FeHFeS2CSCHSFeS2FeS2FeSFeS3CSHS2FeSC2FeS2H6C6NH2C6H4C6H4CH3CH3C6H3C6H6C4H2NH3CHFeHC3SH6SH10CH2CHCH2SH3CHCHCH2CH7C2HCH5C2H2CNH2SH7CH3FeHC2HFeHCHCHNH3SC5HCHFeNC8H24CHNHCHCHNCHC2HCH2CH3CH2CHC2HNHSH3CH2CH3FeHC3HSHCHC3H6C3HFeSHNC2S2FeSHFeSFeSCSFeS2H4FeS2FeS2HSC2SHC2H4C6H4C6H4C5HC6H5C2H2C4H2C2H3CHC2FeC5HCH8SC2HSCHCHCHSHCH3CH2CHC2H2C3H3CHFeNH4SH2NH2CHCH3NSHCH6CHNH4CHCH2CH2C2S2HCHC2HCH3NHCHFeC2H11CH5CH8C2HNC2H8C2H2SCH2FeSHCH8CH2NCH2CH2SHFeH2CHSH3CFeHCH5CHCSFeSHSFeS2H3SCHCSFeS2Fe2SHSHSFeSHCSH2FeSHSH2CHCHC6H4C2HC4H4CHNCH3CFeC8NH4CHFeHCH5C4H2SCHC2H5FeCSHCH4C2HSHCH2C2HFeH4CHCH6CNHC2H2CFeHC3H3C2H2CH5NH5CHCSCHC2HCH2CH2SH2SH3CH5SHC2H2SH2NFeH2CH2SCHCH2CH3CH4SHCFeS2H2FeSHSH3CSCHFeSH2SCFeSFeSCH6FeS2C6H5NCHCH2C8HCHCHCHNSH2CHC6H2SH3CHC3H4CH2CH2CHCH6SHCH2SHFeHFeH2CHCNHCHCH2CH6CH6FeCH4C2H4CHCSNHCFeH2C2NC5H15SH3FeH3NC4HCH2CHCH4C3H3C2H4SCHCHCSHCH8SCH2CFeHCHC2HS2CHSHNFeHS2CSFeS2HSFeSFeS3CFeS2CS3HC6H4C6H4C2FeHCH3C6H5C3H5CH3CSCHC5H3C6H4NC8H22CH4C3FeSHCSH6FeH7CH4S2H6NC5HC2H8CH7NH3NC4FeC3FeH9FeH9C2H6CH2CHC3H2CH3CH2C2H2CH2CH3CH3SCH2C2HCSCSFe
_chemical_formula_sum              "Fe192 S384 C1344 H2304 N96"
_cell_length_a       56.4879
_cell_length_b       105.283
_cell_length_c       36.5399
_cell_angle_alpha    90.3865
_cell_angle_beta     90.0647
_cell_angle_gamma    89.1149

_space_group_name_H-M_alt    "P 1"
_space_group_IT_number       1

loop_
  _space_group_symop_operation_xyz
  'x, y, z'

loop_
  _atom_site_type_symbol
  _atom_site_label
  _atom_site_symmetry_multiplicity
  _atom_site_fract_x
  _atom_site_fract_y
  _atom_site_fract_z
  _atom_site_occupancy
  Fe  Fe1       1.0  0.33047  0.21505  0.22865  1.0000
  S   S1        1.0  0.36995  0.21548  0.23626  1.0000
  S   S2        1.0  0.31481  0.19688  0.20479  1.0000
  Fe  Fe2       1.0  0.36282  0.22259  0.29317  1.0000
  S   S3        1.0  0.38224  0.21784  0.34635  1.0000
  S   S4        1.0  0.03718  0.16341  0.00222  1.0000
  Fe  Fe3       1.0  0.00012  0.15810  0.02352  1.0000
  C   C1        1.0  0.16086  0.99501  0.13798  1.0000
  H   H1        1.0  0.01980  0.05571  0.21628  1.0000
  C   C2        1.0  0.42654  0.12045  0.32243  1.0000
  Fe  Fe4       1.0  0.22897  0.16870  0.04799  1.0000
  S   S5        1.0  0.23920  0.18705  0.07801  1.0000
  Fe  Fe5       1.0  0.23221  0.14007  0.02774  1.0000
  Fe  Fe6       1.0  0.18414  0.15415  0.02023  1.0000
  S   S6        1.0  0.14603  0.14867  0.03689  1.0000
  S   S7        1.0  0.20964  0.15151  0.06727  1.0000
  Fe  Fe7       1.0  0.45924  0.16203  0.43912  1.0000
  S   S8        1.0  0.20646  0.14231  0.98104  1.0000
  S   S9        1.0  0.44600  0.16908  0.38360  1.0000
  H   H2        1.0  0.19940  0.10194  0.06355  1.0000
  H   H3        1.0  0.10454  0.98243  0.32797  1.0000
  Fe  Fe8       1.0  0.26262  0.04375  0.02348  1.0000
  S   S10       1.0  0.30091  0.03875  0.01162  1.0000
  S   S11       1.0  0.24773  0.06281  0.00222  1.0000
  Fe  Fe9       1.0  0.25291  0.01749  0.05583  1.0000
  S   S12       1.0  0.29076  0.01140  0.04577  1.0000
  S   S13       1.0  0.23282  0.00082  0.08079  1.0000
  Fe  Fe10      1.0  0.30087  0.03042  0.06859  1.0000
  S   S14       1.0  0.33350  0.03282  0.10607  1.0000
  S   S15       1.0  0.26323  0.03627  0.08148  1.0000
  Fe  Fe11      1.0  0.40602  0.05290  0.37627  1.0000
  S   S16       1.0  0.37466  0.03984  0.37785  1.0000
  S   S17       1.0  0.40039  0.07258  0.40276  1.0000
  Fe  Fe12      1.0  0.43711  0.03201  0.34068  1.0000
  S   S18       1.0  0.40788  0.01776  0.33980  1.0000
  H   H4        1.0  0.01800  0.05669  0.10500  1.0000
  Fe  Fe13      1.0  0.38474  0.03414  0.31985  1.0000
  S   S19       1.0  0.35316  0.03289  0.27951  1.0000
  Fe  Fe14      1.0  0.39995  0.02463  0.39736  1.0000
  H   H5        1.0  0.30708  0.22461  0.99530  1.0000
  S   S20       1.0  0.41469  0.04811  0.31745  1.0000
  S   S21       1.0  0.43053  0.03803  0.39895  1.0000
  H   H6        1.0  0.32339  0.00412  0.26210  1.0000
  H   H7        1.0  0.34259  0.04504  0.44705  1.0000
  H   H8        1.0  0.41182  0.12914  0.41419  1.0000
  H   H9        1.0  0.26946  0.19201  0.29527  1.0000
  C   C3        1.0  0.01017  0.98818  0.18328  1.0000
  C   C4        1.0  0.42729  0.22050  0.26306  1.0000
  H   H10       1.0  0.01833  0.04632  0.17562  1.0000
  H   H11       1.0  0.33696  0.00792  0.15878  1.0000
  C   C5        1.0  0.01125  0.01128  0.18110  1.0000
  C   C6        1.0  0.02262  0.99948  0.18760  1.0000
  H   H12       1.0  0.02088  0.01996  0.18535  1.0000
  H   H13       1.0  0.04079  0.99914  0.19700  1.0000
  C   C7        1.0  0.20479  0.99898  0.10224  1.0000
  C   C8        1.0  0.16765  0.00725  0.12731  1.0000
  C   C9        1.0  0.18944  0.00924  0.10947  1.0000
  H   H14       1.0  0.29629  0.08732  0.02918  1.0000
  H   H15       1.0  0.19440  0.01871  0.10150  1.0000
  C   C10       1.0  0.33868  0.03397  0.15438  1.0000
  C   C11       1.0  0.36206  0.03283  0.16766  1.0000
  C   C12       1.0  0.36700  0.03290  0.20567  1.0000
  C   C13       1.0  0.34858  0.03414  0.23112  1.0000
  C   C14       1.0  0.32528  0.03564  0.21778  1.0000
  C   C15       1.0  0.32034  0.03560  0.17980  1.0000
  H   H16       1.0  0.37648  0.03163  0.14842  1.0000
  H   H17       1.0  0.38503  0.03173  0.21527  1.0000
  H   H18       1.0  0.31087  0.03670  0.23709  1.0000
  H   H19       1.0  0.30229  0.03673  0.17032  1.0000
  C   C16       1.0  0.45343  0.10289  0.44159  1.0000
  C   C17       1.0  0.42913  0.10440  0.44806  1.0000
  C   C18       1.0  0.41323  0.09497  0.43637  1.0000
  C   C19       1.0  0.42137  0.08391  0.41809  1.0000
  C   C20       1.0  0.44569  0.08230  0.41221  1.0000
  C   C21       1.0  0.46158  0.09172  0.42396  1.0000
  H   H20       1.0  0.28779  0.00194  0.11967  1.0000
  H   H21       1.0  0.32526  0.00144  0.09710  1.0000
  H   H22       1.0  0.45227  0.07386  0.39826  1.0000
  H   H23       1.0  0.19264  0.09301  0.98925  1.0000
  C   C22       1.0  0.24750  0.07899  0.01708  1.0000
  C   C23       1.0  0.24607  0.10511  0.03800  1.0000
  C   C24       1.0  0.24978  0.09549  0.06409  1.0000
  C   C25       1.0  0.25029  0.08252  0.05383  1.0000
  H   H24       1.0  0.25199  0.09810  0.09257  1.0000
  H   H25       1.0  0.25252  0.07527  0.07440  1.0000
  C   C26       1.0  0.06726  0.15881  0.01171  1.0000
  C   C27       1.0  0.07345  0.15029  0.03954  1.0000
  C   C28       1.0  0.09756  0.14743  0.04689  1.0000
  C   C29       1.0  0.11591  0.15295  0.02654  1.0000
  H   H26       1.0  0.47999  0.98317  0.29152  1.0000
  C   C30       1.0  0.15773  0.98753  0.25970  1.0000
  H   H27       1.0  0.05968  0.14595  0.05549  1.0000
  H   H28       1.0  0.10203  0.14090  0.06862  1.0000
  H   H29       1.0  0.34265  0.99206  0.17185  1.0000
  C   C31       1.0  0.39908  0.20395  0.35649  1.0000
  C   C32       1.0  0.40306  0.19433  0.33052  1.0000
  C   C33       1.0  0.41737  0.18370  0.33938  1.0000
  C   C34       1.0  0.42750  0.18245  0.37442  1.0000
  C   C35       1.0  0.42327  0.19199  0.40051  1.0000
  C   C36       1.0  0.40926  0.20271  0.39147  1.0000
  H   H30       1.0  0.39516  0.19511  0.30365  1.0000
  H   H31       1.0  0.42060  0.17639  0.31898  1.0000
  H   H32       1.0  0.43102  0.19117  0.42750  1.0000
  H   H33       1.0  0.40626  0.21010  0.41174  1.0000
  C   C37       1.0  0.29463  0.19443  0.16814  1.0000
  C   C38       1.0  0.28418  0.20450  0.14890  1.0000
  C   C39       1.0  0.26733  0.20205  0.12129  1.0000
  C   C40       1.0  0.26111  0.18953  0.11210  1.0000
  C   C41       1.0  0.27199  0.17946  0.13071  1.0000
  C   C42       1.0  0.28851  0.18192  0.15876  1.0000
  H   H34       1.0  0.28896  0.21415  0.15541  1.0000
  H   H35       1.0  0.25906  0.20991  0.10696  1.0000
  H   H36       1.0  0.26737  0.16978  0.12398  1.0000
  H   H37       1.0  0.29654  0.17406  0.17340  1.0000
  C   C43       1.0  0.19799  0.98674  0.11294  1.0000
  H   H38       1.0  0.14162  0.98522  0.24338  1.0000
  H   H39       1.0  0.32071  0.08612  0.12145  1.0000
  H   H40       1.0  0.11987  0.00666  0.07124  1.0000
  N   N1        1.0  0.44835  0.22743  0.27835  1.0000
  H   H41       1.0  0.41460  0.21829  0.28527  1.0000
  C   C44       1.0  0.29551  0.98432  0.16922  1.0000
  H   H42       1.0  0.12866  0.00175  0.02640  1.0000
  H   H43       1.0  0.40892  0.12125  0.30888  1.0000
  H   H44       1.0  0.12676  0.12276  0.00730  1.0000
  C   C45       1.0  0.17671  0.11616  0.01355  1.0000
  H   H45       1.0  0.04940  0.17025  0.15920  1.0000
  C   C46       1.0  0.17573  0.98356  0.32091  1.0000
  C   C47       1.0  0.30444  0.21684  0.01521  1.0000
  H   H46       1.0  0.48034  0.09040  0.41901  1.0000
  H   H47       1.0  0.28962  0.99863  0.22556  1.0000
  H   H48       1.0  0.48083  0.20674  0.29823  1.0000
  C   C48       1.0  0.30841  0.06642  0.07412  1.0000
  C   C49       1.0  0.24280  0.10158  0.00140  1.0000
  H   H49       1.0  0.07122  0.18309  0.04397  1.0000
  H   H50       1.0  0.16687  0.98400  0.98865  1.0000
  H   H51       1.0  0.33374  0.99098  0.23493  1.0000
  H   H52       1.0  0.31377  0.17666  0.03599  1.0000
  H   H53       1.0  0.17174  0.12079  0.11223  1.0000
  H   H54       1.0  0.26317  0.01236  0.18946  1.0000
  H   H55       1.0  0.32618  0.09096  0.01938  1.0000
  C   C50       1.0  0.42669  0.10817  0.34544  1.0000
  C   C51       1.0  0.18715  0.11766  0.09550  1.0000
  S   S22       1.0  0.25376  0.15724  0.01196  1.0000
  H   H56       1.0  0.15598  0.01527  0.13292  1.0000
  C   C52       1.0  0.25407  0.21095  0.28894  1.0000
  H   H57       1.0  0.15320  0.08805  0.04618  1.0000
  H   H58       1.0  0.01094  0.08022  0.10715  1.0000
  C   C53       1.0  0.26821  0.19943  0.27384  1.0000
  H   H59       1.0  0.25499  0.01508  0.14315  1.0000
  C   C54       1.0  0.24359  0.08862  0.99107  1.0000
  H   H60       1.0  0.30140  0.01310  0.21027  1.0000
  C   C55       1.0  0.18185  0.10563  0.07271  1.0000
  H   H61       1.0  0.44367  0.10281  0.34215  1.0000
  C   C56       1.0  0.34811  0.07577  0.06518  1.0000
  H   H62       1.0  0.45893  0.00377  0.30272  1.0000
  N   N2        1.0  0.16532  0.10734  0.04047  1.0000
  C   C57       1.0  0.39935  0.13103  0.39142  1.0000
  H   H63       1.0  0.38468  0.13688  0.40327  1.0000
  C   C58       1.0  0.00922  0.05407  0.19110  1.0000
  H   H64       1.0  0.41282  0.10170  0.33499  1.0000
  S   S23       1.0  0.40009  0.01067  0.44560  1.0000
  H   H65       1.0  0.35270  0.06157  0.10868  1.0000
  H   H66       1.0  0.99673  0.04644  0.12408  1.0000
  H   H67       1.0  0.29575  0.09003  0.09432  1.0000
  H   H68       1.0  0.41853  0.20102  0.24842  1.0000
  C   C59       1.0  0.00782  0.06646  0.16879  1.0000
  H   H69       1.0  0.40983  0.15330  0.29750  1.0000
  H   H70       1.0  0.32052  0.10841  0.10920  1.0000
  H   H71       1.0  0.38200  0.05339  0.44737  1.0000
  H   H72       1.0  0.99461  0.09253  0.16295  1.0000
  C   C60       1.0  0.48068  0.99586  0.46827  1.0000
  H   H73       1.0  0.11749  0.99288  0.29589  1.0000
  H   H74       1.0  0.15436  0.99722  0.27117  1.0000
  H   H75       1.0  0.44662  0.12436  0.39224  1.0000
  H   H76       1.0  0.08204  0.18453  0.15381  1.0000
  C   C61       1.0  0.22586  0.20647  0.21390  1.0000
  H   H77       1.0  0.09760  0.00188  0.03977  1.0000
  H   H78       1.0  0.45429  0.14021  0.38540  1.0000
  C   C62       1.0  0.99890  0.20029  0.11342  1.0000
  H   H79       1.0  0.02256  0.16317  0.14184  1.0000
  C   C63       1.0  0.37606  0.04903  0.47335  1.0000
  C   C64       1.0  0.45557  0.22206  0.31499  1.0000
  Fe  Fe15      1.0  0.28761  0.02006  0.98962  1.0000
  H   H80       1.0  0.00398  0.07426  0.18843  1.0000
  H   H81       1.0  0.41463  0.14813  0.37099  1.0000
  C   C65       1.0  0.47588  0.12656  0.35593  1.0000
  C   C66       1.0  0.20211  0.98603  0.31330  1.0000
  C   C67       1.0  0.17620  0.98475  0.13069  1.0000
  H   H82       1.0  0.24522  0.23049  0.18818  1.0000
  C   C68       1.0  0.03754  0.19193  0.06327  1.0000
  H   H83       1.0  0.12348  0.16580  0.98275  1.0000
  C   C69       1.0  0.33012  0.99810  0.15602  1.0000
  C   C70       1.0  0.28963  0.00596  0.14773  1.0000
  H   H84       1.0  0.21042  0.21422  0.26254  1.0000
  C   C71       1.0  0.22394  0.21731  0.24251  1.0000
  N   N3        1.0  0.24635  0.22105  0.26202  1.0000
  C   C72       1.0  0.26403  0.00819  0.16157  1.0000
  H   H85       1.0  0.27367  0.20641  0.03263  1.0000
  C   C73       1.0  0.04368  0.17257  0.09957  1.0000
  H   H86       1.0  0.44948  0.20332  0.24669  1.0000
  H   H87       1.0  0.29769  0.01545  0.14413  1.0000
  H   H88       1.0  0.19539  0.98992  0.24326  1.0000
  H   H89       1.0  0.21226  0.98505  0.33923  1.0000
  H   H90       1.0  0.34175  0.00699  0.22369  1.0000
  H   H91       1.0  0.43253  0.15198  0.26394  1.0000
  H   H92       1.0  0.44860  0.22980  0.20155  1.0000
  H   H93       1.0  0.42260  0.11284  0.46207  1.0000
  H   H94       1.0  0.31816  0.05792  0.06335  1.0000
  H   H95       1.0  0.45083  0.20149  0.30787  1.0000
  H   H96       1.0  0.25357  0.99936  0.16037  1.0000
  C   C74       1.0  0.42310  0.14661  0.28542  1.0000
  N   N4        1.0  0.30529  0.99755  0.17113  1.0000
  H   H97       1.0  0.41408  0.13860  0.27174  1.0000
  H   H98       1.0  0.30091  0.06610  0.00028  1.0000
  C   C75       1.0  0.01111  0.18707  0.11371  1.0000
  H   H99       1.0  0.45138  0.01358  0.43086  1.0000
  H   H100      1.0  0.13524  0.10691  0.07703  1.0000
  S   S24       1.0  0.24920  0.02532  0.99868  1.0000
  H   H101      1.0  0.43019  0.20968  0.21154  1.0000
  H   H102      1.0  0.43783  0.99228  0.43408  1.0000
  H   H103      1.0  0.21262  0.20813  0.19186  1.0000
  H   H104      1.0  0.17408  0.99733  0.21436  1.0000
  H   H105      1.0  0.27760  0.98405  0.18178  1.0000
  C   C76       1.0  0.31535  0.08874  0.09325  1.0000
  C   C77       1.0  0.08561  0.16435  0.99145  1.0000
  H   H106      1.0  0.26885  0.21672  0.99614  1.0000
  S   S25       1.0  0.24587  0.12128  0.05284  1.0000
  H   H107      1.0  0.05971  0.19543  0.01611  1.0000
  H   H108      1.0  0.02563  0.18658  0.04451  1.0000
  H   H109      1.0  0.39128  0.12213  0.38143  1.0000
  H   H110      1.0  0.47615  0.21749  0.24744  1.0000
  S   S26       1.0  0.20183  0.17229  0.00381  1.0000
  H   H111      1.0  0.03265  0.16752  0.07898  1.0000
  H   H112      1.0  0.22224  0.19714  0.22656  1.0000
  H   H113      1.0  0.20456  0.99580  0.30276  1.0000
  H   H114      1.0  0.19319  0.12557  0.07827  1.0000
  N   N5        1.0  0.47484  0.99695  0.42810  1.0000
  H   H115      1.0  0.46441  0.01107  0.38826  1.0000
  H   H116      1.0  0.30137  0.19143  0.05144  1.0000
  C   C78       1.0  0.06205  0.19243  0.04501  1.0000
  S   S27       1.0  0.13334  0.99313  0.16093  1.0000
  H   H117      1.0  0.07342  0.19958  0.05842  1.0000
  H   H118      1.0  0.42303  0.10959  0.37471  1.0000
  C   C79       1.0  0.14238  0.11296  0.05483  1.0000
  C   C80       1.0  0.46488  0.20824  0.31540  1.0000
  C   C81       1.0  0.10971  0.16147  0.99876  1.0000
  S   S28       1.0  0.32345  0.22055  0.28759  1.0000
  H   H119      1.0  0.02608  0.06841  0.15893  1.0000
  H   H120      1.0  0.20182  0.11549  0.11487  1.0000
  H   H121      1.0  0.35344  0.02158  0.46514  1.0000
  Fe  Fe16      1.0  0.47041  0.13562  0.47047  1.0000
  C   C82       1.0  0.12231  0.11515  0.02688  1.0000
  C   C83       1.0  0.32723  0.00091  0.23364  1.0000
  H   H122      1.0  0.41837  0.03455  0.47542  1.0000
  H   H123      1.0  0.17744  0.07844  0.99510  1.0000
  H   H124      1.0  0.44810  0.15072  0.32819  1.0000
  H   H125      1.0  0.29098  0.06639  0.05989  1.0000
  C   C84       1.0  0.30468  0.00265  0.21004  1.0000
  H   H126      1.0  0.30285  0.22103  0.04312  1.0000
  C   C85       1.0  0.30235  0.06382  0.11464  1.0000
  H   H127      1.0  0.35682  0.07789  0.12400  1.0000
  H   H128      1.0  0.45649  0.13801  0.29879  1.0000
  H   H129      1.0  0.17526  0.12612  0.02368  1.0000
  C   C86       1.0  0.47781  0.00295  0.30739  1.0000
  H   H130      1.0  0.12973  0.99124  0.34175  1.0000
  H   H131      1.0  0.25430  0.18945  0.00562  1.0000
  H   H132      1.0  0.00008  0.18067  0.09663  1.0000
  H   H133      1.0  0.35255  0.06833  0.04446  1.0000
  S   S29       1.0  0.47440  0.11452  0.45498  1.0000
  H   H134      1.0  0.14529  0.12248  0.06731  1.0000
  S   S30       1.0  0.47619  0.02846  0.32787  1.0000
  C   C87       1.0  0.16101  0.09426  0.02490  1.0000
  C   C88       1.0  0.11898  0.98624  0.06375  1.0000
  H   H135      1.0  0.24302  0.20588  0.19949  1.0000
  H   H136      1.0  0.28255  0.17892  0.03473  1.0000
  H   H137      1.0  0.31766  0.06458  0.13334  1.0000
  H   H138      1.0  0.29579  0.05399  0.11712  1.0000
  H   H139      1.0  0.28791  0.07027  0.12438  1.0000
  H   H140      1.0  0.47875  0.02979  0.43116  1.0000
  H   H141      1.0  0.16309  0.98384  0.03622  1.0000
  H   H142      1.0  0.35245  0.99392  0.10898  1.0000
  H   H143      1.0  0.39613  0.13988  0.33971  1.0000
  H   H144      1.0  0.34529  0.10179  0.08517  1.0000
  H   H145      1.0  0.99426  0.20325  0.08518  1.0000
  H   H146      1.0  0.44172  0.99617  0.36682  1.0000
  H   H147      1.0  0.43956  0.11862  0.30005  1.0000
  H   H148      1.0  0.17496  0.09842  0.09202  1.0000
  H   H149      1.0  0.26024  0.19499  0.24942  1.0000
  H   H150      1.0  0.06203  0.17107  0.08978  1.0000
  H   H151      1.0  0.08686  0.98496  0.00824  1.0000
  H   H152      1.0  0.31826  0.10637  0.06107  1.0000
  N   N6        1.0  0.03661  0.18644  0.10128  1.0000
  H   H153      1.0  0.00961  0.20765  0.12716  1.0000
  H   H154      1.0  0.39446  0.09632  0.44116  1.0000
  H   H155      1.0  0.34134  0.05919  0.47359  1.0000
  C   C89       1.0  0.05142  0.19401  0.12778  1.0000
  C   C90       1.0  0.04139  0.16520  0.13571  1.0000
  C   C91       1.0  0.31454  0.08315  0.02844  1.0000
  C   C92       1.0  0.07818  0.19061  0.12974  1.0000
  H   H156      1.0  0.46941  0.22807  0.32785  1.0000
  C   C93       1.0  0.11599  0.99982  0.04876  1.0000
  H   H157      1.0  0.20542  0.22938  0.30523  1.0000
  H   H158      1.0  0.28664  0.20209  0.26754  1.0000
  C   C94       1.0  0.43227  0.20804  0.24140  1.0000
  H   H159      1.0  0.00934  0.18356  0.14224  1.0000
  H   H160      1.0  0.04974  0.20435  0.12178  1.0000
  H   H161      1.0  0.04457  0.19286  0.15616  1.0000
  H   H162      1.0  0.27325  0.21533  0.22197  1.0000
  H   H163      1.0  0.08826  0.19945  0.13447  1.0000
  C   C95       1.0  0.48982  0.99130  0.30093  1.0000
  C   C96       1.0  0.46832  0.01040  0.41798  1.0000
  C   C97       1.0  0.35934  0.07106  0.10110  1.0000
  S   S31       1.0  0.43754  0.14788  0.46998  1.0000
  H   H164      1.0  0.05062  0.15585  0.13276  1.0000
  H   H165      1.0  0.08581  0.18611  0.10496  1.0000
  H   H166      1.0  0.32055  0.21078  0.01637  1.0000
  N   N7        1.0  0.43234  0.13268  0.34215  1.0000
  C   C98       1.0  0.44121  0.14207  0.31438  1.0000
  C   C99       1.0  0.45154  0.13108  0.37055  1.0000
  C   C100      1.0  0.41060  0.13850  0.35999  1.0000
  H   H167      1.0  0.16808  0.99288  0.32970  1.0000
  H   H168      1.0  0.47009  0.20580  0.34388  1.0000
  H   H169      1.0  0.11703  0.10641  0.01225  1.0000
  C   C101      1.0  0.28173  0.20948  0.00634  1.0000
  H   H170      1.0  0.37875  0.06988  0.09707  1.0000
  H   H171      1.0  0.23850  0.20709  0.30357  1.0000
  N   N8        1.0  0.32179  0.07844  0.06590  1.0000
  H   H172      1.0  0.14769  0.09433  0.00275  1.0000
  H   H173      1.0  0.46148  0.98248  0.36297  1.0000
  H   H174      1.0  0.21531  0.22564  0.22905  1.0000
  H   H175      1.0  0.19536  0.08416  0.03146  1.0000
  C   C102      1.0  0.32569  0.10198  0.08622  1.0000
  C   C103      1.0  0.29952  0.18379  0.03061  1.0000
  C   C104      1.0  0.26619  0.22395  0.23591  1.0000
  C   C105      1.0  0.17767  0.98876  0.23118  1.0000
  C   C106      1.0  0.99245  0.07879  0.11677  1.0000
  H   H176      1.0  0.10633  0.11864  0.04177  1.0000
  H   H177      1.0  0.44030  0.22216  0.33428  1.0000
  H   H178      1.0  0.22934  0.22541  0.33672  1.0000
  H   H179      1.0  0.26562  0.21512  0.31060  1.0000
  C   C107      1.0  0.30225  0.18884  0.99129  1.0000
  H   H180      1.0  0.19612  0.11418  0.01187  1.0000
  C   C108      1.0  0.12173  0.98615  0.31827  1.0000
  H   H181      1.0  0.03095  0.20192  0.06307  1.0000
  C   C109      1.0  0.33324  0.99424  0.11553  1.0000
  C   C110      1.0  0.44717  0.98703  0.37936  1.0000
  C   C111      1.0  0.99877  0.05591  0.11124  1.0000
  H   H182      1.0  0.48512  0.13436  0.34185  1.0000
  C   C112      1.0  0.45398  0.98858  0.42005  1.0000
  H   H183      1.0  0.48728  0.12372  0.37940  1.0000
  H   H184      1.0  0.41959  0.05853  0.47275  1.0000
  H   H185      1.0  0.99177  0.06246  0.05494  1.0000
  H   H186      1.0  0.35788  0.08432  0.05650  1.0000
  H   H187      1.0  0.47454  0.11822  0.33746  1.0000
  C   C113      1.0  0.18304  0.08723  0.00945  1.0000
  H   H188      1.0  0.13650  0.98596  0.07723  1.0000
  H   H189      1.0  0.38106  0.03884  0.47116  1.0000
  H   H190      1.0  0.28157  0.22775  0.25123  1.0000
  H   H191      1.0  0.32615  0.98472  0.10931  1.0000
  C   C114      1.0  0.34881  0.04941  0.47304  1.0000
  C   C115      1.0  0.26043  0.19205  0.97789  1.0000
  H   H192      1.0  0.23996  0.10883  0.98094  1.0000
  H   H193      1.0  0.33231  0.06841  0.99367  1.0000
  N   N9        1.0  0.28402  0.19862  0.97945  1.0000
  C   C116      1.0  0.46929  0.22722  0.25274  1.0000
  H   H194      1.0  0.41727  0.22680  0.24400  1.0000
  H   H195      1.0  0.32052  0.19245  0.98970  1.0000
  C   C117      1.0  0.48744  0.02046  0.42536  1.0000
  H   H196      1.0  0.12621  0.98494  0.98582  1.0000
  C   C118      1.0  0.31491  0.07325  0.99704  1.0000
  H   H197      1.0  0.10616  0.98522  0.08661  1.0000
  H   H198      1.0  0.47996  0.23105  0.19656  1.0000
  S   S32       1.0  0.99143  0.14819  0.07608  1.0000
  H   H199      1.0  0.99156  0.05080  0.19976  1.0000
  N   N10       1.0  0.99070  0.06641  0.13706  1.0000
  H   H200      1.0  0.48150  0.98571  0.47660  1.0000
  C   C119      1.0  0.16725  0.11606  0.97370  1.0000
  H   H201      1.0  0.32056  0.19208  0.60418  1.0000
  C   C120      1.0  0.39907  0.00124  0.77715  1.0000
  C   C121      1.0  0.25667  0.98910  0.75505  1.0000
  S   S33       1.0  0.23314  0.16862  0.91110  1.0000
  S   S34       1.0  0.47193  0.17227  0.48972  1.0000
  Fe  Fe17      1.0  0.45224  0.15735  0.52082  1.0000
  S   S35       1.0  0.42859  0.15986  0.57163  1.0000
  Fe  Fe18      1.0  0.33541  0.20347  0.78830  1.0000
  S   S36       1.0  0.37352  0.21002  0.78611  1.0000
  S   S37       1.0  0.32723  0.18882  0.83312  1.0000
  C   C122      1.0  0.23974  0.19961  0.96030  1.0000
  H   H202      1.0  0.42733  0.99156  0.82829  1.0000
  Fe  Fe19      1.0  0.37014  0.20919  0.72434  1.0000
  S   S38       1.0  0.39927  0.20518  0.68131  1.0000
  C   C123      1.0  0.38106  0.00902  0.48420  1.0000
  S   S39       1.0  0.33354  0.20110  0.72671  1.0000
  H   H203      1.0  0.24797  0.00905  0.74715  1.0000
  H   H204      1.0  0.24117  0.08603  0.96261  1.0000
  S   S40       1.0  0.30265  0.00722  0.94271  1.0000
  H   H205      1.0  0.36405  0.00288  0.82923  1.0000
  Fe  Fe20      1.0  0.32587  0.98985  0.71896  1.0000
  S   S41       1.0  0.31269  0.00266  0.76691  1.0000
  Fe  Fe21      1.0  0.33596  0.99077  0.63453  1.0000
  S   S42       1.0  0.33346  0.00456  0.58621  1.0000
  C   C124      1.0  0.38792  0.00074  0.51257  1.0000
  S   S43       1.0  0.30315  0.98742  0.66849  1.0000
  S   S44       1.0  0.35759  0.99488  0.68476  1.0000
  H   H206      1.0  0.47398  0.16200  0.68269  1.0000
  C   C125      1.0  0.34523  0.01415  0.51870  1.0000
  C   C126      1.0  0.35211  0.00591  0.54714  1.0000
  C   C127      1.0  0.37356  0.99917  0.54380  1.0000
  C   C128      1.0  0.41465  0.98461  0.81654  1.0000
  H   H207      1.0  0.32853  0.01929  0.52074  1.0000
  H   H208      1.0  0.37907  0.99277  0.56534  1.0000
  C   C129      1.0  0.30944  0.00355  0.81584  1.0000
  C   C130      1.0  0.31540  0.99344  0.83896  1.0000
  C   C131      1.0  0.31301  0.99475  0.87741  1.0000
  C   C132      1.0  0.30438  0.00611  0.89362  1.0000
  C   C133      1.0  0.29801  0.01615  0.87042  1.0000
  C   C134      1.0  0.30058  0.01487  0.83196  1.0000
  H   H209      1.0  0.26996  0.99121  0.73354  1.0000
  H   H210      1.0  0.44473  0.99953  0.49029  1.0000
  H   H211      1.0  0.29134  0.02496  0.88213  1.0000
  H   H212      1.0  0.29577  0.02279  0.81459  1.0000
  C   C135      1.0  0.41879  0.17294  0.59940  1.0000
  C   C136      1.0  0.40336  0.17063  0.62880  1.0000
  C   C137      1.0  0.39659  0.18042  0.65348  1.0000
  C   C138      1.0  0.40557  0.19264  0.64951  1.0000
  C   C139      1.0  0.42065  0.19502  0.61971  1.0000
  C   C140      1.0  0.42696  0.18531  0.59452  1.0000
  H   H213      1.0  0.39687  0.16113  0.63291  1.0000
  H   H214      1.0  0.38499  0.17841  0.67620  1.0000
  H   H215      1.0  0.42761  0.20445  0.61620  1.0000
  H   H216      1.0  0.43847  0.18734  0.57175  1.0000
  H   H217      1.0  0.31091  0.07818  0.97090  1.0000
  H   H218      1.0  0.47390  0.17412  0.58222  1.0000
  H   H219      1.0  0.18138  0.11273  0.95463  1.0000
  H   H220      1.0  0.42162  0.03519  0.52459  1.0000
  C   C141      1.0  0.25957  0.17415  0.88992  1.0000
  C   C142      1.0  0.28218  0.17025  0.90141  1.0000
  C   C143      1.0  0.30255  0.17478  0.88355  1.0000
  C   C144      1.0  0.30072  0.18338  0.85420  1.0000
  C   C145      1.0  0.27811  0.18735  0.84292  1.0000
  C   C146      1.0  0.25773  0.18269  0.86048  1.0000
  H   H221      1.0  0.28397  0.16358  0.92365  1.0000
  H   H222      1.0  0.31990  0.17157  0.89242  1.0000
  H   H223      1.0  0.27633  0.19391  0.82038  1.0000
  H   H224      1.0  0.24038  0.18573  0.85115  1.0000
  H   H225      1.0  0.26715  0.98964  0.78080  1.0000
  H   H226      1.0  0.46805  0.00025  0.52331  1.0000
  H   H227      1.0  0.22341  0.99937  0.73924  1.0000
  H   H228      1.0  0.32786  0.22939  0.62777  1.0000
  H   H229      1.0  0.23330  0.00217  0.78581  1.0000
  H   H230      1.0  0.24295  0.20168  0.93101  1.0000
  H   H231      1.0  0.34141  0.04360  0.49535  1.0000
  H   H232      1.0  0.44445  0.04073  0.49524  1.0000
  S   S45       1.0  0.31980  0.22326  0.78743  1.0000
  H   H233      1.0  0.15132  0.11040  0.96869  1.0000
  Fe  Fe22      1.0  0.32061  0.22154  0.72576  1.0000
  C   C147      1.0  0.46738  0.16061  0.65436  1.0000
  C   C148      1.0  0.41456  0.05394  0.49905  1.0000
  H   H234      1.0  0.22363  0.19370  0.96101  1.0000
  H   H235      1.0  0.37637  0.22594  0.64657  1.0000
  H   H236      1.0  0.30830  0.22071  0.60079  1.0000
  C   C149      1.0  0.33945  0.20812  0.55725  1.0000
  N   N11       1.0  0.38818  0.05523  0.50546  1.0000
  N   N12       1.0  0.34512  0.21568  0.59142  1.0000
  H   H237      1.0  0.32013  0.20617  0.55579  1.0000
  C   C150      1.0  0.31571  0.20536  0.93145  1.0000
  H   H238      1.0  0.24689  0.98940  0.68133  1.0000
  N   N13       1.0  0.39212  0.99134  0.80485  1.0000
  H   H239      1.0  0.30217  0.18052  0.97220  1.0000
  C   C151      1.0  0.34634  0.20650  0.62304  1.0000
  C   C152      1.0  0.32452  0.19804  0.62846  1.0000
  C   C153      1.0  0.37538  0.99030  0.87115  1.0000
  H   H240      1.0  0.40506  0.99668  0.75107  1.0000
  H   H241      1.0  0.36189  0.19994  0.62000  1.0000
  H   H242      1.0  0.36252  0.05905  0.58396  1.0000
  H   H243      1.0  0.34850  0.19862  0.55801  1.0000
  C   C154      1.0  0.35875  0.05285  0.56001  1.0000
  H   H244      1.0  0.37610  0.01797  0.78867  1.0000
  H   H245      1.0  0.39289  0.00604  0.84653  1.0000
  H   H246      1.0  0.47733  0.18444  0.62049  1.0000
  H   H247      1.0  0.32527  0.19611  0.92831  1.0000
  H   H248      1.0  0.46392  0.01309  0.49219  1.0000
  H   H249      1.0  0.38547  0.08666  0.53764  1.0000
  H   H250      1.0  0.41318  0.07929  0.52710  1.0000
  H   H251      1.0  0.34539  0.05755  0.54246  1.0000
  C   C155      1.0  0.35945  0.01559  0.48728  1.0000
  H   H252      1.0  0.38564  0.01645  0.74228  1.0000
  C   C156      1.0  0.46318  0.00261  0.49465  1.0000
  C   C157      1.0  0.28950  0.20340  0.94146  1.0000
  H   H253      1.0  0.39445  0.07278  0.56245  1.0000
  H   H254      1.0  0.34893  0.21157  0.64950  1.0000
  C   C158      1.0  0.23904  0.00039  0.75713  1.0000
  H   H255      1.0  0.31661  0.21001  0.90426  1.0000
  H   H256      1.0  0.33970  0.22358  0.51608  1.0000
  C   C159      1.0  0.38215  0.06926  0.50565  1.0000
  H   H257      1.0  0.45541  0.15233  0.65480  1.0000
  H   H258      1.0  0.08116  0.17097  0.96989  1.0000
  H   H259      1.0  0.16263  0.12594  0.96545  1.0000
  H   H260      1.0  0.39639  0.05020  0.56130  1.0000
  H   H261      1.0  0.38136  0.03820  0.53638  1.0000
  C   C160      1.0  0.39466  0.07729  0.53516  1.0000
  H   H262      1.0  0.27994  0.21253  0.93610  1.0000
  C   C161      1.0  0.37962  0.01098  0.76637  1.0000
  H   H263      1.0  0.36594  0.21342  0.51610  1.0000
  C   C162      1.0  0.37459  0.98258  0.78692  1.0000
  H   H264      1.0  0.28289  0.19668  0.92032  1.0000
  S   S46       1.0  0.48380  0.14388  0.52368  1.0000
  Fe  Fe23      1.0  0.35774  0.22968  0.78300  1.0000
  H   H265      1.0  0.32828  0.19134  0.65116  1.0000
  H   H266      1.0  0.36291  0.00637  0.75851  1.0000
  H   H267      1.0  0.38323  0.21413  0.58599  1.0000
  H   H268      1.0  0.36295  0.07113  0.50877  1.0000
  C   C163      1.0  0.34644  0.21378  0.52003  1.0000
  H   H269      1.0  0.36192  0.98304  0.86528  1.0000
  H   H270      1.0  0.47995  0.15359  0.60215  1.0000
  H   H271      1.0  0.42464  0.05896  0.52076  1.0000
  C   C164      1.0  0.42495  0.04027  0.49866  1.0000
  S   S47       1.0  0.29202  0.22574  0.68270  1.0000
  C   C165      1.0  0.38206  0.04869  0.54079  1.0000
  H   H272      1.0  0.32513  0.21148  0.95116  1.0000
  H   H273      1.0  0.40437  0.99543  0.51038  1.0000
  H   H274      1.0  0.30860  0.20367  0.63656  1.0000
  C   C166      1.0  0.48788  0.15779  0.62738  1.0000
  H   H275      1.0  0.31785  0.98687  0.89488  1.0000
  H   H276      1.0  0.35016  0.04430  0.57138  1.0000
  S   S48       1.0  0.35699  0.22954  0.72133  1.0000
  H   H277      1.0  0.43459  0.98332  0.76436  1.0000
  H   H278      1.0  0.32191  0.98461  0.82736  1.0000
  H   H279      1.0  0.26202  0.18289  0.96272  1.0000
  H   H280      1.0  0.41441  0.00683  0.78718  1.0000
  H   H281      1.0  0.45639  0.16892  0.64641  1.0000
  C   C167      1.0  0.36916  0.22165  0.58827  1.0000
  H   H282      1.0  0.36733  0.99672  0.89217  1.0000
  H   H283      1.0  0.38650  0.07350  0.47867  1.0000
  C   C168      1.0  0.32585  0.22534  0.59971  1.0000
  H   H284      1.0  0.39131  0.98599  0.88401  1.0000
  Fe  Fe24      1.0  0.22625  0.16037  0.96818  1.0000
  C   C169      1.0  0.38115  0.99824  0.83715  1.0000
  H   H285      1.0  0.33878  0.20788  0.49775  1.0000
  H   H286      1.0  0.35694  0.98736  0.78466  1.0000
  H   H287      1.0  0.20470  0.98660  0.78454  1.0000
  C   C170      1.0  0.48745  0.17881  0.59970  1.0000
  H   H288      1.0  0.48601  0.19574  0.56601  1.0000
  H   H289      1.0  0.37089  0.22733  0.56306  1.0000
  H   H290      1.0  0.23549  0.20848  0.97553  1.0000
  C   C171      1.0  0.37610  0.23069  0.61975  1.0000
  S   S49       1.0  0.39932  0.24120  0.18256  1.0000
  S   S50       1.0  0.30819  0.42044  0.44168  1.0000
  H   H291      1.0  0.08644  0.29047  0.46078  1.0000
  Fe  Fe25      1.0  0.32629  0.45925  0.23940  1.0000
  S   S51       1.0  0.40953  0.47275  0.20028  1.0000
  S   S52       1.0  0.31174  0.45641  0.29836  1.0000
  Fe  Fe26      1.0  0.33654  0.45096  0.15898  1.0000
  S   S53       1.0  0.35099  0.46984  0.14395  1.0000
  S   S54       1.0  0.33449  0.43506  0.11602  1.0000
  Fe  Fe27      1.0  0.36987  0.46918  0.19788  1.0000
  H   H292      1.0  0.30114  0.43824  0.04080  1.0000
  H   H293      1.0  0.42206  0.45011  0.35864  1.0000
  H   H294      1.0  0.27575  0.23442  0.18722  1.0000
  S   S55       1.0  0.35740  0.44950  0.21161  1.0000
  S   S56       1.0  0.30406  0.45923  0.18736  1.0000
  Fe  Fe28      1.0  0.32335  0.24061  0.26714  1.0000
  S   S57       1.0  0.36240  0.24317  0.27637  1.0000
  S   S58       1.0  0.29437  0.25499  0.28392  1.0000
  H   H295      1.0  0.25417  0.32033  0.40413  1.0000
  C   C172      1.0  0.28166  0.29889  0.34879  1.0000
  H   H296      1.0  0.44895  0.32867  0.04480  1.0000
  Fe  Fe29      1.0  0.45059  0.28547  0.02117  1.0000
  S   S59       1.0  0.42342  0.28510  0.06791  1.0000
  H   H297      1.0  0.30687  0.29255  0.45919  1.0000
  C   C173      1.0  0.39558  0.30935  0.99844  1.0000
  S   S60       1.0  0.24879  0.26123  0.44367  1.0000
  H   H298      1.0  0.43869  0.42791  0.04628  1.0000
  H   H299      1.0  0.25619  0.45032  0.11147  1.0000
  H   H300      1.0  0.41714  0.45105  0.25662  1.0000
  H   H301      1.0  0.26075  0.48078  0.15196  1.0000
  C   C174      1.0  0.28236  0.25683  0.32875  1.0000
  C   C175      1.0  0.26314  0.26529  0.33435  1.0000
  C   C176      1.0  0.25295  0.26698  0.36939  1.0000
  C   C177      1.0  0.26187  0.26020  0.39935  1.0000
  C   C178      1.0  0.28079  0.25156  0.39353  1.0000
  C   C179      1.0  0.29108  0.24994  0.35857  1.0000
  H   H302      1.0  0.25592  0.27048  0.31133  1.0000
  H   H303      1.0  0.23777  0.27325  0.37299  1.0000
  H   H304      1.0  0.28755  0.24606  0.41628  1.0000
  H   H305      1.0  0.30569  0.24329  0.35473  1.0000
  C   C180      1.0  0.40485  0.25327  0.14966  1.0000
  C   C181      1.0  0.42521  0.25217  0.12752  1.0000
  C   C182      1.0  0.43088  0.26164  0.10185  1.0000
  C   C183      1.0  0.41644  0.27249  0.09838  1.0000
  C   C184      1.0  0.39610  0.27361  0.12057  1.0000
  C   C185      1.0  0.39023  0.26404  0.14583  1.0000
  H   H306      1.0  0.43669  0.24391  0.13020  1.0000
  H   H307      1.0  0.44660  0.26062  0.08517  1.0000
  H   H308      1.0  0.38482  0.28195  0.11832  1.0000
  H   H309      1.0  0.37460  0.26509  0.16272  1.0000
  H   H310      1.0  0.31606  0.27706  0.44434  1.0000
  H   H311      1.0  0.23975  0.48058  0.04692  1.0000
  H   H312      1.0  0.42151  0.41099  0.11986  1.0000
  C   C186      1.0  0.29851  0.44379  0.01545  1.0000
  C   C187      1.0  0.37137  0.44528  0.02476  1.0000
  C   C188      1.0  0.36149  0.44540  0.06019  1.0000
  C   C189      1.0  0.34832  0.43510  0.07227  1.0000
  C   C190      1.0  0.34531  0.42467  0.04847  1.0000
  H   H313      1.0  0.48451  0.23221  0.26554  1.0000
  H   H314      1.0  0.36403  0.45348  0.07809  1.0000
  H   H315      1.0  0.33492  0.41671  0.05733  1.0000
  C   C191      1.0  0.30817  0.43048  0.40176  1.0000
  C   C192      1.0  0.29640  0.44230  0.40049  1.0000
  C   C193      1.0  0.29745  0.44993  0.36864  1.0000
  C   C194      1.0  0.31017  0.44594  0.33724  1.0000
  C   C195      1.0  0.32181  0.43408  0.33839  1.0000
  C   C196      1.0  0.32088  0.42649  0.37032  1.0000
  H   H316      1.0  0.28654  0.44560  0.42416  1.0000
  H   H317      1.0  0.28833  0.45903  0.36843  1.0000
  H   H318      1.0  0.33163  0.43075  0.31474  1.0000
  H   H319      1.0  0.33004  0.41740  0.37065  1.0000
  H   H320      1.0  0.40318  0.39849  0.10209  1.0000
  C   C197      1.0  0.37414  0.45422  0.34337  1.0000
  C   C198      1.0  0.39603  0.46335  0.29171  1.0000
  H   H321      1.0  0.41614  0.38295  0.03866  1.0000
  H   H322      1.0  0.13763  0.47826  0.14635  1.0000
  H   H323      1.0  0.43045  0.45372  0.29988  1.0000
  H   H324      1.0  0.41621  0.45790  0.40194  1.0000
  H   H325      1.0  0.31971  0.47818  0.08470  1.0000
  H   H326      1.0  0.30191  0.46277  0.99516  1.0000
  C   C199      1.0  0.36841  0.43486  0.00096  1.0000
  H   H327      1.0  0.43053  0.24300  0.34203  1.0000
  H   H328      1.0  0.29154  0.32040  0.38179  1.0000
  H   H329      1.0  0.34515  0.46144  0.37847  1.0000
  H   H330      1.0  0.41343  0.41316  0.98399  1.0000
  C   C200      1.0  0.44141  0.24123  0.28419  1.0000
  H   H331      1.0  0.30979  0.28595  0.32732  1.0000
  H   H332      1.0  0.37876  0.39951  0.00015  1.0000
  H   H333      1.0  0.44040  0.46249  0.37459  1.0000
  H   H334      1.0  0.43393  0.24541  0.25861  1.0000
  C   C201      1.0  0.24659  0.31080  0.39960  1.0000
  H   H335      1.0  0.37547  0.38476  0.02294  1.0000
  C   C202      1.0  0.28911  0.47865  0.04704  1.0000
  C   C203      1.0  0.30264  0.29571  0.32297  1.0000
  C   C204      1.0  0.41197  0.32318  0.04588  1.0000
  C   C205      1.0  0.36176  0.45573  0.38084  1.0000
  H   H336      1.0  0.22128  0.24153  0.32856  1.0000
  H   H337      1.0  0.46364  0.24386  0.21703  1.0000
  H   H338      1.0  0.27349  0.30785  0.33838  1.0000
  H   H339      1.0  0.26848  0.44129  0.07344  1.0000
  N   N14       1.0  0.28397  0.46460  0.04736  1.0000
  H   H340      1.0  0.38154  0.45331  0.01577  1.0000
  C   C206      1.0  0.45114  0.39948  0.00754  1.0000
  C   C207      1.0  0.42173  0.45934  0.37310  1.0000
  H   H341      1.0  0.40766  0.32972  0.06906  1.0000
  H   H342      1.0  0.32123  0.28989  0.39137  1.0000
  Fe  Fe30      1.0  0.32001  0.47817  0.17504  1.0000
  H   H343      1.0  0.45197  0.37840  0.00854  1.0000
  N   N15       1.0  0.39044  0.32075  0.02249  1.0000
  C   C208      1.0  0.35512  0.42458  0.01292  1.0000
  H   H344      1.0  0.38001  0.39881  0.04959  1.0000
  C   C209      1.0  0.30174  0.45809  0.02245  1.0000
  S   S61       1.0  0.47376  0.30256  0.01331  1.0000
  H   H345      1.0  0.45720  0.24701  0.29110  1.0000
  H   H346      1.0  0.29648  0.27994  0.38471  1.0000
  H   H347      1.0  0.01016  0.32384  0.47613  1.0000
  H   H348      1.0  0.36329  0.34465  0.03366  1.0000
  H   H349      1.0  0.38725  0.30648  0.08934  1.0000
  C   C210      1.0  0.30257  0.28471  0.44024  1.0000
  H   H350      1.0  0.31999  0.45893  0.03359  1.0000
  C   C211      1.0  0.38020  0.34470  0.01827  1.0000
  H   H351      1.0  0.23991  0.30987  0.37120  1.0000
  C   C212      1.0  0.46348  0.38655  0.01500  1.0000
  H   H352      1.0  0.31708  0.30267  0.32530  1.0000
  S   S62       1.0  0.47934  0.27160  0.00470  1.0000
  H   H353      1.0  0.40564  0.44285  0.29479  1.0000
  C   C213      1.0  0.30246  0.28858  0.39965  1.0000
  H   H354      1.0  0.42282  0.43463  0.00877  1.0000
  H   H355      1.0  0.38099  0.46194  0.27247  1.0000
  H   H356      1.0  0.27069  0.34684  0.46665  1.0000
  C   C214      1.0  0.27263  0.44776  0.09634  1.0000
  H   H357      1.0  0.40971  0.31149  0.97843  1.0000
  H   H358      1.0  0.38596  0.44579  0.34554  1.0000
  H   H359      1.0  0.43048  0.33854  0.01698  1.0000
  C   C215      1.0  0.38472  0.33193  0.99829  1.0000
  H   H360      1.0  0.36847  0.33017  0.98194  1.0000
  H   H361      1.0  0.31800  0.31168  0.38010  1.0000
  H   H362      1.0  0.37334  0.46000  0.40190  1.0000
  N   N16       1.0  0.42836  0.40207  0.02810  1.0000
  H   H363      1.0  0.17719  0.47994  0.16294  1.0000
  C   C216      1.0  0.41789  0.41428  0.01349  1.0000
  H   H364      1.0  0.40576  0.47170  0.28138  1.0000
  C   C217      1.0  0.43416  0.40299  0.06831  1.0000
  H   H365      1.0  0.30828  0.32649  0.43622  1.0000
  C   C218      1.0  0.43333  0.42617  0.01754  1.0000
  H   H366      1.0  0.30544  0.45801  0.09297  1.0000
  C   C219      1.0  0.41384  0.40685  0.09451  1.0000
  H   H367      1.0  0.24020  0.46859  0.08226  1.0000
  C   C220      1.0  0.23942  0.47022  0.05239  1.0000
  H   H368      1.0  0.40079  0.41671  0.02652  1.0000
  H   H369      1.0  0.39894  0.33331  0.97760  1.0000
  H   H370      1.0  0.46455  0.40680  0.01382  1.0000
  H   H371      1.0  0.40275  0.30130  0.01476  1.0000
  H   H372      1.0  0.44077  0.39365  0.07850  1.0000
  H   H373      1.0  0.44933  0.40938  0.07355  1.0000
  H   H374      1.0  0.28341  0.44209  0.11598  1.0000
  H   H375      1.0  0.36706  0.32649  0.06673  1.0000
  H   H376      1.0  0.39896  0.47569  0.37823  1.0000
  C   C221      1.0  0.46484  0.23334  0.21497  1.0000
  H   H377      1.0  0.25509  0.29088  0.40543  1.0000
  C   C222      1.0  0.41322  0.45201  0.28634  1.0000
  H   H378      1.0  0.36047  0.45130  0.32311  1.0000
  H   H379      1.0  0.41833  0.31423  0.05902  1.0000
  H   H380      1.0  0.35569  0.30583  0.08889  1.0000
  H   H381      1.0  0.26682  0.30064  0.43962  1.0000
  H   H382      1.0  0.40204  0.41445  0.08399  1.0000
  H   H383      1.0  0.29321  0.31369  0.45469  1.0000
  C   C223      1.0  0.37156  0.30636  0.07108  1.0000
  C   C224      1.0  0.30078  0.31216  0.39476  1.0000
  H   H384      1.0  0.37213  0.29751  0.05445  1.0000
  H   H385      1.0  0.47007  0.38585  0.04350  1.0000
  C   C225      1.0  0.28645  0.45983  0.08615  1.0000
  C   C226      1.0  0.40647  0.46995  0.35514  1.0000
  H   H386      1.0  0.26821  0.29144  0.34403  1.0000
  H   H387      1.0  0.25414  0.45296  0.03049  1.0000
  C   C227      1.0  0.42283  0.24398  0.31421  1.0000
  H   H388      1.0  0.23455  0.24082  0.26565  1.0000
  H   H389      1.0  0.29622  0.29597  0.29421  1.0000
  H   H390      1.0  0.28037  0.46730  0.10583  1.0000
  H   H391      1.0  0.28535  0.28061  0.44796  1.0000
  C   C228      1.0  0.43356  0.32861  0.02585  1.0000
  C   C229      1.0  0.26427  0.30006  0.40964  1.0000
  H   H392      1.0  0.44903  0.42569  0.99937  1.0000
  H   H393      1.0  0.37861  0.35235  0.99754  1.0000
  H   H394      1.0  0.47912  0.38558  0.99671  1.0000
  H   H395      1.0  0.32411  0.31167  0.44301  1.0000
  C   C230      1.0  0.25940  0.46303  0.03182  1.0000
  H   H396      1.0  0.35656  0.44622  0.39085  1.0000
  N   N17       1.0  0.28744  0.30000  0.38911  1.0000
  H   H397      1.0  0.41872  0.47639  0.34057  1.0000
  H   H398      1.0  0.23090  0.31023  0.41776  1.0000
  H   H399      1.0  0.22199  0.46684  0.04253  1.0000
  H   H400      1.0  0.41625  0.25394  0.31173  1.0000
  C   C231      1.0  0.38507  0.39388  0.02391  1.0000
  N   N18       1.0  0.38682  0.46580  0.32990  1.0000
  H   H401      1.0  0.43873  0.32277  0.00184  1.0000
  C   C232      1.0  0.41188  0.39116  0.02060  1.0000
  C   C233      1.0  0.36967  0.31841  0.04728  1.0000
  H   H402      1.0  0.25883  0.46625  0.00281  1.0000
  C   C234      1.0  0.30694  0.31599  0.43443  1.0000
  H   H403      1.0  0.39479  0.34732  0.03696  1.0000
  H   H404      1.0  0.35290  0.31794  0.03132  1.0000
  H   H405      1.0  0.35204  0.41670  0.99453  1.0000
  S   S63       1.0  0.34025  0.47898  0.22830  1.0000
  C   C235      1.0  0.22322  0.23206  0.31514  1.0000
  S   S64       1.0  0.20683  0.29318  0.47226  1.0000
  H   H406      1.0  0.40736  0.23775  0.31153  1.0000
  Fe  Fe31      1.0  0.36753  0.23600  0.21858  1.0000
  C   C236      1.0  0.26018  0.23360  0.20554  1.0000
  H   H407      1.0  0.35288  0.47331  0.31124  1.0000
  H   H408      1.0  0.31248  0.44045  0.99609  1.0000
  H   H409      1.0  0.19143  0.48024  0.20645  1.0000
  H   H410      1.0  0.25787  0.23669  0.29613  1.0000
  H   H411      1.0  0.41427  0.38753  0.99208  1.0000
  H   H412      1.0  0.25667  0.24326  0.21674  1.0000
  S   S65       1.0  0.32821  0.23503  0.20734  1.0000
  H   H413      1.0  0.35971  0.30119  0.99315  1.0000
  H   H414      1.0  0.32757  0.47983  0.03682  1.0000
  H   H415      1.0  0.36159  0.47902  0.35493  1.0000
  C   C237      1.0  0.36857  0.47642  0.32738  1.0000
  H   H416      1.0  0.45507  0.47926  0.17158  1.0000
  C   C238      1.0  0.24127  0.23308  0.28362  1.0000
  H   H417      1.0  0.28136  0.44157  0.00239  1.0000
  H   H418      1.0  0.03851  0.31578  0.47202  1.0000
  H   H419      1.0  0.44803  0.40001  0.97743  1.0000
  Fe  Fe32      1.0  0.26519  0.39867  0.54715  1.0000
  S   S66       1.0  0.30369  0.40082  0.53289  1.0000
  S   S67       1.0  0.24639  0.37978  0.55752  1.0000
  Fe  Fe33      1.0  0.25912  0.42738  0.56307  1.0000
  S   S68       1.0  0.29729  0.43096  0.54861  1.0000
  S   S69       1.0  0.24109  0.44521  0.58731  1.0000
  Fe  Fe34      1.0  0.30574  0.41365  0.58266  1.0000
  S   S70       1.0  0.33640  0.41408  0.62468  1.0000
  S   S71       1.0  0.26807  0.41065  0.59859  1.0000
  Fe  Fe35      1.0  0.11673  0.47073  0.67361  1.0000
  S   S72       1.0  0.13523  0.45406  0.64451  1.0000
  H   H420      1.0  0.39530  0.31122  0.85412  1.0000
  S   S73       1.0  0.02814  0.47218  0.71243  1.0000
  N   N19       1.0  0.14176  0.47953  0.54221  1.0000
  S   S74       1.0  0.09929  0.46880  0.72881  1.0000
  Fe  Fe36      1.0  0.39265  0.42073  0.91251  1.0000
  S   S75       1.0  0.43119  0.41507  0.91134  1.0000
  H   H421      1.0  0.22369  0.24299  0.70285  1.0000
  Fe  Fe37      1.0  0.38367  0.40738  0.83741  1.0000
  S   S76       1.0  0.42186  0.40072  0.83254  1.0000
  S   S77       1.0  0.35345  0.40319  0.79628  1.0000
  Fe  Fe38      1.0  0.41905  0.39567  0.89262  1.0000
  S   S78       1.0  0.43710  0.37961  0.92583  1.0000
  Fe  Fe39      1.0  0.43105  0.42047  0.85228  1.0000
  C   C239      1.0  0.21879  0.25281  0.69446  1.0000
  S   S79       1.0  0.38030  0.40116  0.89690  1.0000
  S   S80       1.0  0.39306  0.42728  0.85393  1.0000
  Fe  Fe40      1.0  0.46565  0.27399  0.94716  1.0000
  H   H422      1.0  0.33822  0.38349  0.57921  1.0000
  S   S81       1.0  0.46285  0.25715  0.90796  1.0000
  H   H423      1.0  0.40195  0.28503  0.74931  1.0000
  H   H424      1.0  0.43860  0.27677  0.78920  1.0000
  H   H425      1.0  0.07205  0.31156  0.53586  1.0000
  C   C240      1.0  0.39374  0.30259  0.87103  1.0000
  S   S82       1.0  0.36840  0.24692  0.81771  1.0000
  H   H426      1.0  0.30297  0.37252  0.54542  1.0000
  Fe  Fe41      1.0  0.00523  0.28682  0.52519  1.0000
  S   S83       1.0  0.04286  0.28700  0.49996  1.0000
  Fe  Fe42      1.0  0.19032  0.28745  0.52637  1.0000
  S   S84       1.0  0.21430  0.30018  0.55968  1.0000
  S   S85       1.0  0.15247  0.28519  0.54997  1.0000
  H   H427      1.0  0.30086  0.47231  0.67144  1.0000
  Fe  Fe43      1.0  0.23918  0.28325  0.56264  1.0000
  S   S86       1.0  0.25794  0.27895  0.61671  1.0000
  C   C241      1.0  0.12213  0.28580  0.53523  1.0000
  C   C242      1.0  0.10408  0.28362  0.56103  1.0000
  C   C243      1.0  0.07986  0.28384  0.55088  1.0000
  C   C244      1.0  0.07320  0.28631  0.51464  1.0000
  C   C245      1.0  0.09123  0.28856  0.48891  1.0000
  C   C246      1.0  0.11545  0.28832  0.49904  1.0000
  H   H428      1.0  0.10889  0.28163  0.58909  1.0000
  H   H429      1.0  0.06639  0.28196  0.57103  1.0000
  H   H430      1.0  0.40750  0.30661  0.79350  1.0000
  C   C247      1.0  0.28439  0.24067  0.66321  1.0000
  C   C248      1.0  0.27111  0.24098  0.63057  1.0000
  C   C249      1.0  0.26396  0.25262  0.61481  1.0000
  C   C250      1.0  0.26929  0.26410  0.63231  1.0000
  C   C251      1.0  0.28273  0.26378  0.66475  1.0000
  C   C252      1.0  0.29050  0.25215  0.67989  1.0000
  H   H431      1.0  0.10893  0.32215  0.54607  1.0000
  H   H432      1.0  0.25374  0.25270  0.58976  1.0000
  H   H433      1.0  0.28692  0.27259  0.67854  1.0000
  H   H434      1.0  0.30062  0.25206  0.70506  1.0000
  C   C253      1.0  0.43583  0.25305  0.88624  1.0000
  C   C254      1.0  0.43608  0.24426  0.85706  1.0000
  C   C255      1.0  0.41529  0.24174  0.83694  1.0000
  C   C256      1.0  0.39404  0.24806  0.84570  1.0000
  C   C257      1.0  0.39367  0.25654  0.87564  1.0000
  C   C258      1.0  0.41435  0.25892  0.89603  1.0000
  H   H435      1.0  0.04731  0.46711  0.87953  1.0000
  H   H436      1.0  0.36429  0.23919  0.62118  1.0000
  H   H437      1.0  0.37729  0.26139  0.88286  1.0000
  H   H438      1.0  0.41375  0.26546  0.91893  1.0000
  C   C259      1.0  0.43810  0.36265  0.92356  1.0000
  C   C260      1.0  0.42376  0.35565  0.89983  1.0000
  C   C261      1.0  0.42508  0.34222  0.89959  1.0000
  C   C262      1.0  0.44074  0.33558  0.92294  1.0000
  C   C263      1.0  0.45503  0.34257  0.94672  1.0000
  C   C264      1.0  0.45365  0.35599  0.94707  1.0000
  H   H439      1.0  0.41171  0.36058  0.88158  1.0000
  H   H440      1.0  0.01342  0.34398  0.58119  1.0000
  H   H441      1.0  0.02255  0.47618  0.86696  1.0000
  H   H442      1.0  0.41396  0.33695  0.88096  1.0000
  S   S87       1.0  0.08302  0.47746  0.64621  1.0000
  H   H443      1.0  0.43111  0.29777  0.77340  1.0000
  H   H444      1.0  0.11192  0.45113  0.55961  1.0000
  H   H445      1.0  0.38662  0.27700  0.82699  1.0000
  C   C265      1.0  0.01353  0.45859  0.69514  1.0000
  C   C266      1.0  0.02585  0.44874  0.67730  1.0000
  C   C267      1.0  0.01359  0.43809  0.66403  1.0000
  H   H446      1.0  0.21620  0.26201  0.61780  1.0000
  Fe  Fe44      1.0  0.06673  0.47708  0.70201  1.0000
  H   H447      1.0  0.14918  0.46060  0.56304  1.0000
  H   H448      1.0  0.04484  0.44926  0.67394  1.0000
  H   H449      1.0  0.02332  0.43047  0.65052  1.0000
  Fe  Fe45      1.0  0.23217  0.30488  0.50673  1.0000
  C   C268      1.0  0.21196  0.44708  0.60511  1.0000
  C   C269      1.0  0.20601  0.45825  0.62467  1.0000
  C   C270      1.0  0.18277  0.46045  0.63773  1.0000
  C   C271      1.0  0.16521  0.45148  0.63123  1.0000
  C   C272      1.0  0.17127  0.44025  0.61214  1.0000
  C   C273      1.0  0.19450  0.43802  0.59925  1.0000
  H   H450      1.0  0.21937  0.46533  0.62933  1.0000
  H   H451      1.0  0.15783  0.43324  0.60698  1.0000
  H   H452      1.0  0.19879  0.42939  0.58425  1.0000
  C   C274      1.0  0.34047  0.41117  0.67267  1.0000
  C   C275      1.0  0.36205  0.41447  0.68935  1.0000
  C   C276      1.0  0.36632  0.41221  0.72696  1.0000
  C   C277      1.0  0.34913  0.40644  0.74858  1.0000
  C   C278      1.0  0.32757  0.40308  0.73183  1.0000
  C   C279      1.0  0.32320  0.40549  0.69434  1.0000
  H   H453      1.0  0.37567  0.41882  0.67306  1.0000
  H   H454      1.0  0.38302  0.41485  0.73918  1.0000
  H   H455      1.0  0.31408  0.39864  0.74814  1.0000
  H   H456      1.0  0.30647  0.40292  0.68225  1.0000
  C   C280      1.0  0.24783  0.33913  0.50788  1.0000
  C   C281      1.0  0.24748  0.36425  0.53751  1.0000
  C   C282      1.0  0.09285  0.32712  0.55685  1.0000
  H   H457      1.0  0.32885  0.37634  0.67648  1.0000
  H   H458      1.0  0.45255  0.23959  0.84937  1.0000
  C   C283      1.0  0.11191  0.46152  0.55437  1.0000
  C   C284      1.0  0.18483  0.28613  0.63767  1.0000
  C   C285      1.0  0.42361  0.30085  0.80026  1.0000
  C   C286      1.0  0.36081  0.36837  0.65495  1.0000
  H   H459      1.0  0.23034  0.25498  0.67110  1.0000
  H   H460      1.0  0.21080  0.23900  0.62897  1.0000
  C   C287      1.0  0.31489  0.35814  0.62635  1.0000
  H   H461      1.0  0.35103  0.36805  0.58349  1.0000
  H   H462      1.0  0.33965  0.23966  0.56082  1.0000
  N   N20       1.0  0.41686  0.28945  0.82265  1.0000
  H   H463      1.0  0.05345  0.46508  0.78041  1.0000
  H   H464      1.0  0.05284  0.45676  0.82250  1.0000
  H   H465      1.0  0.33021  0.35179  0.61947  1.0000
  S   S88       1.0  0.44158  0.31862  0.92118  1.0000
  H   H466      1.0  0.00905  0.34485  0.53217  1.0000
  H   H467      1.0  0.43172  0.31890  0.82808  1.0000
  H   H468      1.0  0.37024  0.37227  0.67919  1.0000
  H   H469      1.0  0.20384  0.47785  0.53758  1.0000
  C   C288      1.0  0.29320  0.35280  0.60558  1.0000
  H   H470      1.0  0.42807  0.26994  0.83003  1.0000
  H   H471      1.0  0.34318  0.38620  0.64447  1.0000
  H   H472      1.0  0.19321  0.29522  0.64565  1.0000
  H   H473      1.0  0.46742  0.33767  0.96450  1.0000
  H   H474      1.0  0.46506  0.36124  0.96526  1.0000
  H   H475      1.0  0.28915  0.38007  0.59554  1.0000
  H   H476      1.0  0.04373  0.46104  0.60497  1.0000
  C   C289      1.0  0.32107  0.36856  0.54881  1.0000
  H   H477      1.0  0.28048  0.34868  0.62522  1.0000
  H   H478      1.0  0.05279  0.34445  0.52203  1.0000
  H   H479      1.0  0.02514  0.32432  0.59860  1.0000
  N   N21       1.0  0.18553  0.26237  0.65397  1.0000
  C   C290      1.0  0.15919  0.26176  0.64749  1.0000
  C   C291      1.0  0.19775  0.25852  0.61880  1.0000
  C   C292      1.0  0.19295  0.27562  0.66419  1.0000
  C   C293      1.0  0.19213  0.25362  0.68495  1.0000
  C   C294      1.0  0.14326  0.26641  0.67929  1.0000
  H   H480      1.0  0.99380  0.45935  0.57227  1.0000
  H   H481      1.0  0.45963  0.45977  0.87571  1.0000
  H   H482      1.0  0.00126  0.46135  0.61900  1.0000
  H   H483      1.0  0.15392  0.26729  0.62276  1.0000
  H   H484      1.0  0.15390  0.25184  0.64120  1.0000
  H   H485      1.0  0.09890  0.46333  0.53217  1.0000
  H   H486      1.0  0.18888  0.26311  0.59500  1.0000
  H   H487      1.0  0.18671  0.27829  0.69211  1.0000
  H   H488      1.0  0.21263  0.27616  0.66574  1.0000
  H   H489      1.0  0.18322  0.25673  0.71068  1.0000
  C   C295      1.0  0.32285  0.23647  0.57285  1.0000
  H   H490      1.0  0.14466  0.26010  0.70338  1.0000
  H   H491      1.0  0.14684  0.27634  0.68749  1.0000
  H   H492      1.0  0.12450  0.26619  0.67010  1.0000
  H   H493      1.0  0.03796  0.46178  0.55602  1.0000
  S   S89       1.0  0.25892  0.28891  0.51236  1.0000
  H   H494      1.0  0.14093  0.46089  0.51618  1.0000
  C   C296      1.0  0.04223  0.47637  0.86694  1.0000
  C   C297      1.0  0.09257  0.46807  0.84557  1.0000
  H   H495      1.0  0.18544  0.24385  0.68028  1.0000
  H   H496      1.0  0.18088  0.23988  0.61079  1.0000
  H   H497      1.0  0.18609  0.47771  0.57798  1.0000
  C   C298      1.0  0.02858  0.32344  0.48679  1.0000
  N   N22       1.0  0.32116  0.37180  0.61953  1.0000
  H   H498      1.0  0.31163  0.35664  0.65610  1.0000
  H   H499      1.0  0.09221  0.32531  0.58664  1.0000
  H   H500      1.0  0.27459  0.36982  0.65347  1.0000
  H   H501      1.0  0.05804  0.34534  0.56938  1.0000
  H   H502      1.0  0.30592  0.39080  0.62040  1.0000
  H   H503      1.0  0.37586  0.29851  0.86764  1.0000
  C   C299      1.0  0.48932  0.46630  0.90859  1.0000
  H   H504      1.0  0.39532  0.30563  0.90006  1.0000
  Fe  Fe46      1.0  0.29181  0.41808  0.49987  1.0000
  N   N23       1.0  0.05135  0.47734  0.82832  1.0000
  C   C300      1.0  0.45951  0.28094  0.83599  1.0000
  H   H505      1.0  0.31576  0.24490  0.58797  1.0000
  H   H506      1.0  0.20585  0.24273  0.58206  1.0000
  H   H507      1.0  0.46944  0.28843  0.82177  1.0000
  H   H508      1.0  0.46132  0.47655  0.87529  1.0000
  C   C301      1.0  0.39392  0.27863  0.76964  1.0000
  S   S90       1.0  0.43558  0.28667  0.96419  1.0000
  H   H509      1.0  0.29149  0.38109  0.67991  1.0000
  C   C302      1.0  0.39356  0.28446  0.80851  1.0000
  C   C303      1.0  0.33776  0.37622  0.64940  1.0000
  H   H510      1.0  0.33121  0.37161  0.52443  1.0000
  H   H511      1.0  0.32069  0.35804  0.54762  1.0000
  H   H512      1.0  0.16538  0.28773  0.63828  1.0000
  H   H513      1.0  0.00915  0.47027  0.78872  1.0000
  H   H514      1.0  0.02289  0.35753  0.55625  1.0000
  H   H515      1.0  0.45231  0.30644  0.84028  1.0000
  H   H516      1.0  0.27047  0.36875  0.49271  1.0000
  H   H517      1.0  0.41587  0.23522  0.81393  1.0000
  C   C304      1.0  0.28295  0.37926  0.65315  1.0000
  S   S91       1.0  0.21487  0.27039  0.53200  1.0000
  C   C305      1.0  0.23478  0.35445  0.55428  1.0000
  C   C306      1.0  0.02812  0.32072  0.52830  1.0000
  H   H518      1.0  0.22454  0.35655  0.57865  1.0000
  H   H519      1.0  0.09517  0.33743  0.55209  1.0000
  H   H520      1.0  0.17840  0.46913  0.65241  1.0000
  C   C307      1.0  0.07098  0.32212  0.53633  1.0000
  C   C308      1.0  0.04397  0.32289  0.59027  1.0000
  C   C309      1.0  0.04608  0.34099  0.54870  1.0000
  C   C310      1.0  0.05060  0.30901  0.59973  1.0000
  S   S92       1.0  0.24805  0.32367  0.48733  1.0000
  C   C311      1.0  0.03099  0.45873  0.58284  1.0000
  H   H521      1.0  0.02890  0.31025  0.53077  1.0000
  H   H522      1.0  0.00987  0.46064  0.82977  1.0000
  H   H523      1.0  0.07002  0.30731  0.59926  1.0000
  H   H524      1.0  0.04448  0.30694  0.62791  1.0000
  H   H525      1.0  0.04213  0.30207  0.58125  1.0000
  S   S93       1.0  0.25289  0.41533  0.51243  1.0000
  H   H526      1.0  0.19038  0.28396  0.60928  1.0000
  C   C312      1.0  0.01869  0.46254  0.80333  1.0000
  C   C313      1.0  0.02134  0.34703  0.55500  1.0000
  C   C314      1.0  0.07787  0.47865  0.82688  1.0000
  H   H527      1.0  0.08377  0.47916  0.79792  1.0000
  H   H528      1.0  0.36822  0.31125  0.95534  1.0000
  C   C315      1.0  0.00616  0.46440  0.59091  1.0000
  H   H529      1.0  0.09144  0.45890  0.83063  1.0000
  H   H530      1.0  0.39435  0.23409  0.61497  1.0000
  H   H531      1.0  0.11153  0.47075  0.84503  1.0000
  S   S94       1.0  0.99550  0.29064  0.58392  1.0000
  C   C316      1.0  0.04534  0.46521  0.80826  1.0000
  C   C317      1.0  0.44121  0.31025  0.81792  1.0000
  H   H532      1.0  0.26625  0.23215  0.61746  1.0000
  C   C318      1.0  0.26074  0.34889  0.49131  1.0000
  H   H533      1.0  0.18642  0.46431  0.54662  1.0000
  N   N24       1.0  0.04737  0.32669  0.55085  1.0000
  H   H534      1.0  0.07323  0.32488  0.50721  1.0000
  H   H535      1.0  0.48619  0.45296  0.79361  1.0000
  H   H536      1.0  0.10601  0.46624  0.58000  1.0000
  H   H537      1.0  0.45072  0.46835  0.91521  1.0000
  H   H538      1.0  0.37972  0.29210  0.80813  1.0000
  H   H539      1.0  0.05425  0.32906  0.60915  1.0000
  C   C319      1.0  0.13713  0.46542  0.54325  1.0000
  H   H540      1.0  0.01678  0.45386  0.78612  1.0000
  H   H541      1.0  0.29873  0.34498  0.58675  1.0000
  H   H542      1.0  0.02985  0.44819  0.58213  1.0000
  S   S95       1.0  0.38159  0.43533  0.95677  1.0000
  C   C320      1.0  0.33386  0.37330  0.58353  1.0000
  C   C321      1.0  0.18657  0.47483  0.54882  1.0000
  C   C322      1.0  0.41334  0.29263  0.86262  1.0000
  C   C323      1.0  0.43504  0.27888  0.81857  1.0000
  H   H543      1.0  0.35741  0.35826  0.66086  1.0000
  H   H544      1.0  0.42964  0.29611  0.87581  1.0000
  H   H545      1.0  0.40902  0.28393  0.87816  1.0000
  H   H546      1.0  0.37321  0.36922  0.63165  1.0000
  H   H547      1.0  0.37541  0.27684  0.76082  1.0000
  H   H548      1.0  0.26830  0.38636  0.65035  1.0000
  H   H549      1.0  0.45359  0.31363  0.79660  1.0000
  C   C324      1.0  0.23499  0.34198  0.53970  1.0000
  N   N25       1.0  0.29161  0.44571  0.68399  1.0000
  C   C325      1.0  0.31699  0.44744  0.67240  1.0000
  C   C326      1.0  0.29099  0.44547  0.72528  1.0000
  C   C327      1.0  0.27583  0.45637  0.67061  1.0000
  C   C328      1.0  0.28275  0.43353  0.66752  1.0000
  C   C329      1.0  0.32120  0.44947  0.63121  1.0000
  C   C330      1.0  0.30137  0.43336  0.74316  1.0000
  C   C331      1.0  0.28321  0.46984  0.68226  1.0000
  C   C332      1.0  0.25757  0.42954  0.67899  1.0000
  H   H550      1.0  0.32517  0.45553  0.68725  1.0000
  H   H551      1.0  0.32798  0.43898  0.67991  1.0000
  H   H552      1.0  0.27271  0.44696  0.73593  1.0000
  H   H553      1.0  0.30107  0.45355  0.73696  1.0000
  H   H554      1.0  0.27431  0.45619  0.64023  1.0000
  H   H555      1.0  0.25733  0.45512  0.68037  1.0000
  H   H556      1.0  0.28225  0.43422  0.63716  1.0000
  H   H557      1.0  0.29525  0.42549  0.67238  1.0000
  H   H558      1.0  0.31636  0.44098  0.61507  1.0000
  H   H559      1.0  0.31184  0.45798  0.62048  1.0000
  H   H560      1.0  0.34043  0.45085  0.62657  1.0000
  H   H561      1.0  0.32011  0.43161  0.73537  1.0000
  H   H562      1.0  0.30102  0.43451  0.77340  1.0000
  H   H563      1.0  0.29082  0.42485  0.73657  1.0000
  Fe  Fe47      1.0  0.46018  0.30301  0.95517  1.0000
  H   H564      1.0  0.40311  0.26923  0.76930  1.0000
  H   H565      1.0  0.12475  0.48067  0.48917  1.0000
  H   H566      1.0  0.24421  0.43292  0.65883  1.0000
  H   H567      1.0  0.25208  0.43302  0.70629  1.0000
  C   C333      1.0  0.26067  0.36135  0.50605  1.0000
  H   H568      1.0  0.99823  0.47471  0.52953  1.0000
  H   H569      1.0  0.01019  0.32311  0.53906  1.0000
  H   H570      1.0  0.38074  0.29573  0.96031  1.0000
  C   C334      1.0  0.30003  0.38074  0.62051  1.0000
  S   S96       1.0  0.45574  0.43468  0.82545  1.0000
  H   H571      1.0  0.25686  0.41902  0.68028  1.0000
  C   C335      1.0  0.19867  0.24416  0.61013  1.0000
  H   H572      1.0  0.22495  0.33463  0.55281  1.0000
  H   H573      1.0  0.28321  0.35984  0.58931  1.0000
  H   H574      1.0  0.31018  0.23405  0.55069  1.0000
  H   H575      1.0  0.08768  0.46690  0.87470  1.0000
  H   H576      1.0  0.28290  0.47107  0.71241  1.0000
  C   C336      1.0  0.46404  0.46818  0.89287  1.0000
  H   H577      1.0  0.16722  0.47701  0.49841  1.0000
  S   S97       1.0  0.48974  0.29022  0.93387  1.0000
  H   H578      1.0  0.48694  0.46227  0.93644  1.0000
  H   H579      1.0  0.14590  0.47791  0.60090  1.0000
  H   H580      1.0  0.22319  0.25949  0.71705  1.0000
  N   N26       1.0  0.00344  0.47865  0.58718  1.0000
  H   H581      1.0  0.27029  0.47681  0.67073  1.0000
  H   H582      1.0  0.47014  0.27203  0.83276  1.0000
  H   H583      1.0  0.12896  0.29000  0.47875  1.0000
  H   H584      1.0  0.02182  0.48072  0.63874  1.0000
  C   C337      1.0  0.48595  0.43810  0.83387  1.0000
  H   H585      1.0  0.46958  0.48096  0.96371  1.0000
  Fe  Fe48      1.0  0.23315  0.27701  0.48072  1.0000
  H   H586      1.0  0.45861  0.28278  0.86582  1.0000
  C   C338      1.0  0.16629  0.48106  0.52667  1.0000
  H   H587      1.0  0.03644  0.33266  0.47986  1.0000
  C   C339      1.0  0.37460  0.30428  0.97581  1.0000
  C   C340      1.0  0.31441  0.48241  0.05824  1.0000
  S   S98       1.0  0.03678  0.51640  0.35929  1.0000
  Fe  Fe49      1.0  0.00674  0.54871  0.38291  1.0000
  S   S99       1.0  0.04573  0.54475  0.39205  1.0000
  C   C341      1.0  0.06635  0.56982  0.24209  1.0000
  Fe  Fe50      1.0  0.04501  0.53546  0.33581  1.0000
  S   S100      1.0  0.07503  0.54028  0.29557  1.0000
  Fe  Fe51      1.0  0.03438  0.52579  0.41486  1.0000
  C   C342      1.0  0.99502  0.58265  0.28465  1.0000
  S   S101      1.0  0.00666  0.54022  0.32572  1.0000
  Fe  Fe52      1.0  0.47336  0.64025  0.06530  1.0000
  Fe  Fe53      1.0  0.12624  0.53001  0.08743  1.0000
  S   S102      1.0  0.16228  0.53648  0.10423  1.0000
  S   S103      1.0  0.09576  0.52589  0.12728  1.0000
  Fe  Fe54      1.0  0.16069  0.54924  0.05451  1.0000
  S   S104      1.0  0.16379  0.57090  0.06099  1.0000
  Fe  Fe55      1.0  0.17641  0.52143  0.06540  1.0000
  S   S105      1.0  0.19974  0.50462  0.08421  1.0000
  S   S106      1.0  0.12366  0.54340  0.03995  1.0000
  S   S107      1.0  0.14005  0.51434  0.05030  1.0000
  S   S108      1.0  0.46274  0.52565  0.18913  1.0000
  Fe  Fe56      1.0  0.11657  0.72107  0.22168  1.0000
  S   S109      1.0  0.07799  0.71717  0.21177  1.0000
  S   S110      1.0  0.14748  0.71683  0.18292  1.0000
  Fe  Fe57      1.0  0.07645  0.71266  0.27230  1.0000
  S   S111      1.0  0.06347  0.69420  0.29741  1.0000
  S   S112      1.0  0.11561  0.71512  0.28041  1.0000
  H   H588      1.0  0.03330  0.69303  0.46550  1.0000
  S   S113      1.0  0.44618  0.65491  0.08398  1.0000
  C   C343      1.0  0.16904  0.59604  0.04341  1.0000
  S   S114      1.0  0.46317  0.67282  0.01600  1.0000
  S   S115      1.0  0.48196  0.68592  0.11229  1.0000
  Fe  Fe58      1.0  0.43654  0.65724  0.02461  1.0000
  S   S116      1.0  0.39994  0.65712  0.99604  1.0000
  S   S117      1.0  0.46235  0.64179  0.00628  1.0000
  Fe  Fe59      1.0  0.21705  0.63925  0.00457  1.0000
  Fe  Fe60      1.0  0.20152  0.66101  0.05614  1.0000
  S   S118      1.0  0.17685  0.66429  0.10511  1.0000
  Fe  Fe61      1.0  0.25325  0.65967  0.02634  1.0000
  C   C344      1.0  0.09793  0.70024  0.38065  1.0000
  S   S119      1.0  0.23084  0.64626  0.05863  1.0000
  C   C345      1.0  0.26839  0.51012  0.11604  1.0000
  H   H589      1.0  0.17742  0.61423  0.15351  1.0000
  C   C346      1.0  0.36986  0.65851  0.01151  1.0000
  H   H590      1.0  0.47653  0.49967  0.16705  1.0000
  C   C347      1.0  0.32732  0.65640  0.99792  1.0000
  C   C348      1.0  0.32126  0.66125  0.03252  1.0000
  C   C349      1.0  0.33973  0.66464  0.05651  1.0000
  C   C350      1.0  0.36380  0.66319  0.04628  1.0000
  C   C351      1.0  0.00334  0.69833  0.35916  1.0000
  H   H591      1.0  0.05392  0.60126  0.23670  1.0000
  H   H592      1.0  0.23872  0.60592  0.17106  1.0000
  H   H593      1.0  0.37764  0.66585  0.06518  1.0000
  C   C352      1.0  0.03960  0.69162  0.32808  1.0000
  C   C353      1.0  0.03842  0.67994  0.34651  1.0000
  C   C354      1.0  0.01994  0.67750  0.37138  1.0000
  H   H594      1.0  0.08615  0.69210  0.37510  1.0000
  H   H595      1.0  0.14939  0.70050  0.03215  1.0000
  C   C355      1.0  0.02198  0.70083  0.33464  1.0000
  H   H596      1.0  0.05190  0.67273  0.34156  1.0000
  H   H597      1.0  0.01928  0.66847  0.38530  1.0000
  N   N27       1.0  0.21219  0.61030  0.12996  1.0000
  H   H598      1.0  0.02251  0.70981  0.32048  1.0000
  C   C356      1.0  0.15491  0.70217  0.16102  1.0000
  C   C357      1.0  0.14329  0.69090  0.16912  1.0000
  C   C358      1.0  0.15009  0.67944  0.15150  1.0000
  C   C359      1.0  0.16835  0.67912  0.12529  1.0000
  C   C360      1.0  0.17963  0.69045  0.11666  1.0000
  C   C361      1.0  0.17304  0.70188  0.13462  1.0000
  H   H599      1.0  0.12929  0.69095  0.18931  1.0000
  H   H600      1.0  0.14124  0.67074  0.15840  1.0000
  H   H601      1.0  0.19372  0.69037  0.09661  1.0000
  H   H602      1.0  0.18211  0.71055  0.12803  1.0000
  H   H603      1.0  0.16283  0.49896  0.13339  1.0000
  C   C362      1.0  0.20353  0.72150  0.24353  1.0000
  H   H604      1.0  0.20857  0.59546  0.08906  1.0000
  C   C363      1.0  0.17778  0.58358  0.03785  1.0000
  C   C364      1.0  0.19818  0.58178  0.01666  1.0000
  H   H605      1.0  0.30075  0.69083  0.02942  1.0000
  C   C365      1.0  0.20168  0.60485  0.00874  1.0000
  H   H606      1.0  0.20537  0.57230  0.01259  1.0000
  H   H607      1.0  0.02710  0.59249  0.23598  1.0000
  H   H608      1.0  0.13545  0.50698  0.12968  1.0000
  H   H609      1.0  0.07504  0.72998  0.00986  1.0000
  C   C366      1.0  0.42643  0.51022  0.20954  1.0000
  C   C367      1.0  0.44891  0.51070  0.19316  1.0000
  C   C368      1.0  0.45915  0.49946  0.17946  1.0000
  C   C369      1.0  0.21140  0.73081  0.30409  1.0000
  C   C370      1.0  0.00602  0.58381  0.43958  1.0000
  H   H610      1.0  0.41866  0.51882  0.22097  1.0000
  H   H611      1.0  0.09439  0.50008  0.24350  1.0000
  C   C371      1.0  0.24545  0.51236  0.10185  1.0000
  C   C372      1.0  0.22813  0.50308  0.10496  1.0000
  C   C373      1.0  0.23387  0.49172  0.12327  1.0000
  C   C374      1.0  0.17722  0.51744  0.18420  1.0000
  H   H612      1.0  0.24134  0.52112  0.08773  1.0000
  H   H613      1.0  0.01067  0.56794  0.31747  1.0000
  H   H614      1.0  0.11007  0.70079  0.35683  1.0000
  C   C375      1.0  0.07994  0.53643  0.24843  1.0000
  C   C376      1.0  0.09996  0.54133  0.23071  1.0000
  C   C377      1.0  0.10470  0.53858  0.19349  1.0000
  C   C378      1.0  0.08967  0.53066  0.17348  1.0000
  C   C379      1.0  0.06959  0.52582  0.19116  1.0000
  C   C380      1.0  0.06469  0.52870  0.22827  1.0000
  H   H615      1.0  0.11191  0.54732  0.24592  1.0000
  H   H616      1.0  0.12009  0.54249  0.18039  1.0000
  H   H617      1.0  0.05780  0.51969  0.17609  1.0000
  H   H618      1.0  0.04923  0.52484  0.24136  1.0000
  H   H619      1.0  0.26844  0.68056  0.99063  1.0000
  H   H620      1.0  0.19475  0.57832  0.12794  1.0000
  H   H621      1.0  0.07132  0.57941  0.23285  1.0000
  C   C381      1.0  0.25359  0.61151  0.09955  1.0000
  H   H622      1.0  0.09397  0.68974  0.10976  1.0000
  H   H623      1.0  0.26318  0.61128  0.12600  1.0000
  H   H624      1.0  0.14946  0.51651  0.22286  1.0000
  H   H625      1.0  0.28566  0.48273  0.01942  1.0000
  H   H626      1.0  0.03699  0.72009  0.38524  1.0000
  S   S120      1.0  0.17791  0.53469  0.01660  1.0000
  N   N28       1.0  0.04004  0.57817  0.29516  1.0000
  C   C382      1.0  0.05602  0.57230  0.32391  1.0000
  C   C383      1.0  0.04210  0.56982  0.26151  1.0000
  C   C384      1.0  0.01511  0.57782  0.30971  1.0000
  C   C385      1.0  0.04770  0.59164  0.28885  1.0000
  C   C386      1.0  0.05525  0.57843  0.36244  1.0000
  H   H627      1.0  0.06991  0.72383  0.47047  1.0000
  C   C387      1.0  0.17044  0.71452  0.33379  1.0000
  C   C388      1.0  0.03868  0.59825  0.25360  1.0000
  H   H628      1.0  0.05182  0.56209  0.32763  1.0000
  H   H629      1.0  0.07488  0.57246  0.31531  1.0000
  H   H630      1.0  0.16367  0.49512  0.23270  1.0000
  C   C389      1.0  0.20997  0.59235  0.00210  1.0000
  H   H631      1.0  0.27712  0.48394  0.06607  1.0000
  H   H632      1.0  0.01339  0.58369  0.33499  1.0000
  H   H633      1.0  0.04220  0.59782  0.31230  1.0000
  H   H634      1.0  0.06741  0.59211  0.28844  1.0000
  H   H635      1.0  0.03850  0.57631  0.37683  1.0000
  H   H636      1.0  0.12490  0.49826  0.25615  1.0000
  H   H637      1.0  0.05808  0.58881  0.36205  1.0000
  H   H638      1.0  0.35451  0.49774  0.11740  1.0000
  C   C390      1.0  0.05617  0.70237  0.42659  1.0000
  H   H639      1.0  0.08064  0.56578  0.25939  1.0000
  C   C391      1.0  0.09269  0.71062  0.11828  1.0000
  H   H640      1.0  0.11171  0.48995  0.19234  1.0000
  H   H641      1.0  0.11813  0.71245  0.45163  1.0000
  H   H642      1.0  0.27596  0.70081  0.01898  1.0000
  H   H643      1.0  0.07871  0.71732  0.12839  1.0000
  H   H644      1.0  0.10890  0.69829  0.40505  1.0000
  C   C392      1.0  0.22819  0.61693  0.10342  1.0000
  N   N29       1.0  0.06799  0.71466  0.41691  1.0000
  H   H645      1.0  0.28176  0.51727  0.11290  1.0000
  C   C393      1.0  0.11264  0.50312  0.23692  1.0000
  C   C394      1.0  0.18726  0.61578  0.12756  1.0000
  H   H646      1.0  0.23007  0.62706  0.11080  1.0000
  H   H647      1.0  0.26368  0.61780  0.08108  1.0000
  H   H648      1.0  0.20765  0.62969  0.18717  1.0000
  H   H649      1.0  0.16247  0.56542  0.98190  1.0000
  H   H650      1.0  0.17463  0.59135  0.13238  1.0000
  H   H651      1.0  0.23203  0.62362  0.21282  1.0000
  H   H652      1.0  0.36291  0.49631  0.31371  1.0000
  C   C395      1.0  0.04864  0.72409  0.40697  1.0000
  S   S121      1.0  0.21813  0.61782  0.99152  1.0000
  H   H653      1.0  0.23759  0.63011  0.16890  1.0000
  C   C396      1.0  0.21165  0.59644  0.11901  1.0000
  H   H654      1.0  0.16268  0.70523  0.34105  1.0000
  H   H655      1.0  0.04584  0.69887  0.40284  1.0000
  H   H656      1.0  0.47084  0.60026  0.14592  1.0000
  H   H657      1.0  0.25383  0.60197  0.08641  1.0000
  H   H658      1.0  0.23191  0.71070  0.21712  1.0000
  H   H659      1.0  0.17009  0.70867  0.27711  1.0000
  H   H660      1.0  0.06964  0.57416  0.37934  1.0000
  H   H661      1.0  0.20934  0.60621  0.18779  1.0000
  H   H662      1.0  0.17954  0.52784  0.18763  1.0000
  C   C397      1.0  0.27421  0.49866  0.13379  1.0000
  H   H663      1.0  0.16581  0.63311  0.12207  1.0000
  H   H664      1.0  0.18815  0.63147  0.08801  1.0000
  H   H665      1.0  0.19583  0.58783  0.16840  1.0000
  S   S122      1.0  0.22473  0.67500  0.02821  1.0000
  C   C398      1.0  0.22475  0.62448  0.18466  1.0000
  S   S123      1.0  0.29114  0.66371  0.04689  1.0000
  H   H666      1.0  0.17409  0.61614  0.03392  1.0000
  N   N30       1.0  0.37120  0.51603  0.12200  1.0000
  C   C399      1.0  0.34735  0.52159  0.13252  1.0000
  C   C400      1.0  0.37571  0.51889  0.08227  1.0000
  C   C401      1.0  0.39060  0.52171  0.14490  1.0000
  C   C402      1.0  0.37103  0.50190  0.12866  1.0000
  C   C403      1.0  0.34132  0.52141  0.17372  1.0000
  C   C404      1.0  0.35864  0.51267  0.05467  1.0000
  C   C405      1.0  0.39311  0.53625  0.14274  1.0000
  H   H667      1.0  0.46524  0.62977  0.25371  1.0000
  H   H668      1.0  0.34538  0.53157  0.12304  1.0000
  H   H669      1.0  0.33288  0.51638  0.11855  1.0000
  H   H670      1.0  0.39414  0.51620  0.07431  1.0000
  H   H671      1.0  0.37429  0.52929  0.07729  1.0000
  H   H672      1.0  0.38820  0.51928  0.17414  1.0000
  H   H673      1.0  0.40822  0.51763  0.13745  1.0000
  H   H674      1.0  0.37068  0.49987  0.15853  1.0000
  C   C406      1.0  0.25669  0.48954  0.13784  1.0000
  H   H675      1.0  0.34278  0.51175  0.18542  1.0000
  H   H676      1.0  0.35239  0.52805  0.18973  1.0000
  H   H677      1.0  0.32260  0.52458  0.17740  1.0000
  H   H678      1.0  0.09653  0.72063  0.38134  1.0000
  C   C407      1.0  0.29141  0.69575  0.00663  1.0000
  H   H679      1.0  0.47663  0.64197  0.15716  1.0000
  H   H680      1.0  0.40697  0.53922  0.16258  1.0000
  H   H681      1.0  0.37659  0.54144  0.15022  1.0000
  H   H682      1.0  0.39926  0.53927  0.11537  1.0000
  H   H683      1.0  0.39316  0.49259  0.32408  1.0000
  C   C408      1.0  0.42405  0.48754  0.19717  1.0000
  H   H684      1.0  0.06910  0.69461  0.43210  1.0000
  N   N31       1.0  0.14365  0.50088  0.18479  1.0000
  H   H685      1.0  0.34018  0.51618  0.05831  1.0000
  H   H686      1.0  0.47858  0.62072  0.21777  1.0000
  C   C409      1.0  0.11811  0.49980  0.19654  1.0000
  Fe  Fe62      1.0  0.99820  0.52170  0.35310  1.0000
  C   C410      1.0  0.47673  0.66067  0.18071  1.0000
  C   C411      1.0  0.10094  0.71156  0.46609  1.0000
  H   H687      1.0  0.15317  0.59755  0.05954  1.0000
  H   H688      1.0  0.36407  0.51526  0.02651  1.0000
  C   C412      1.0  0.18446  0.62998  0.11751  1.0000
  H   H689      1.0  0.15870  0.72945  0.25498  1.0000
  H   H690      1.0  0.18969  0.51281  0.20361  1.0000
  H   H691      1.0  0.17690  0.61079  0.10611  1.0000
  H   H692      1.0  0.22023  0.61684  0.07549  1.0000
  C   C413      1.0  0.41383  0.49877  0.21093  1.0000
  Fe  Fe63      1.0  0.14071  0.52830  0.00379  1.0000
  C   C414      1.0  0.22307  0.71109  0.24428  1.0000
  H   H693      1.0  0.30378  0.70271  0.99503  1.0000
  H   H694      1.0  0.06619  0.69727  0.09616  1.0000
  C   C415      1.0  0.08361  0.71280  0.38359  1.0000
  H   H695      1.0  0.13195  0.72455  0.11297  1.0000
  H   H696      1.0  0.21173  0.72987  0.23045  1.0000
  S   S124      1.0  0.18615  0.65313  0.00379  1.0000
  C   C416      1.0  0.13296  0.48665  0.12953  1.0000
  C   C417      1.0  0.08099  0.69746  0.11606  1.0000
  H   H697      1.0  0.10616  0.71002  0.14051  1.0000
  C   C418      1.0  0.19306  0.58823  0.13842  1.0000
  C   C419      1.0  0.09062  0.72453  0.02031  1.0000
  H   H698      1.0  0.03814  0.55976  0.26849  1.0000
  C   C420      1.0  0.15141  0.51423  0.19328  1.0000
  H   H699      1.0  0.18320  0.71685  0.35582  1.0000
  C   C421      1.0  0.48476  0.59841  0.12620  1.0000
  H   H700      1.0  0.06957  0.72411  0.06972  1.0000
  C   C422      1.0  0.18284  0.71317  0.29643  1.0000
  H   H701      1.0  0.21552  0.70154  0.24857  1.0000
  H   H702      1.0  0.11281  0.51354  0.24184  1.0000
  C   C423      1.0  0.15842  0.49122  0.20551  1.0000
  C   C424      1.0  0.14046  0.70915  0.04349  1.0000
  C   C425      1.0  0.18092  0.60662  0.02908  1.0000
  C   C426      1.0  0.22144  0.61106  0.16864  1.0000
  C   C427      1.0  0.14447  0.49891  0.14388  1.0000
  S   S125      1.0  0.30379  0.49601  0.14896  1.0000
  C   C428      1.0  0.37707  0.48895  0.31043  1.0000
  H   H703      1.0  0.38023  0.48795  0.28058  1.0000
  H   H704      1.0  0.19577  0.63640  0.13371  1.0000
  H   H705      1.0  0.22906  0.59168  0.12417  1.0000
  C   C429      1.0  0.35138  0.65519  0.98741  1.0000
  H   H706      1.0  0.10640  0.50589  0.17928  1.0000
  H   H707      1.0  0.35913  0.50217  0.05602  1.0000
  H   H708      1.0  0.03688  0.72615  0.43074  1.0000
  H   H709      1.0  0.13992  0.52118  0.17849  1.0000
  H   H710      1.0  0.22060  0.48449  0.12590  1.0000
  H   H711      1.0  0.06538  0.56365  0.21735  1.0000
  C   C430      1.0  0.00218  0.68666  0.37770  1.0000
  H   H712      1.0  0.40844  0.49965  0.10800  1.0000
  C   C431      1.0  0.08182  0.72015  0.44842  1.0000
  H   H713      1.0  0.01535  0.57550  0.44978  1.0000
  H   H714      1.0  0.46572  0.65876  0.20505  1.0000
  H   H715      1.0  0.18215  0.51514  0.15560  1.0000
  N   N32       1.0  0.19255  0.72511  0.27995  1.0000
  H   H716      1.0  0.15416  0.71437  0.05911  1.0000
  H   H717      1.0  0.22599  0.59087  0.98633  1.0000
  H   H718      1.0  0.10992  0.69771  0.05364  1.0000
  S   S126      1.0  0.04782  0.51215  0.45973  1.0000
  H   H719      1.0  0.39648  0.49859  0.22334  1.0000
  H   H720      1.0  0.46437  0.66397  0.15898  1.0000
  H   H721      1.0  0.02879  0.57224  0.24042  1.0000
  Fe  Fe64      1.0  0.47485  0.66917  0.07419  1.0000
  H   H722      1.0  0.07285  0.71323  0.35799  1.0000
  H   H723      1.0  0.45963  0.63431  0.20755  1.0000
  S   S127      1.0  0.47414  0.62249  0.10142  1.0000
  C   C432      1.0  0.12011  0.70507  0.06873  1.0000
  H   H724      1.0  0.18975  0.71820  0.22398  1.0000
  H   H725      1.0  0.99371  0.57727  0.25862  1.0000
  H   H726      1.0  0.02291  0.70845  0.45387  1.0000
  C   C433      1.0  0.44687  0.48793  0.18189  1.0000
  H   H727      1.0  0.19717  0.70600  0.30102  1.0000
  H   H728      1.0  0.07338  0.69525  0.14328  1.0000
  H   H729      1.0  0.15557  0.72147  0.33362  1.0000
  H   H730      1.0  0.33539  0.66840  0.08334  1.0000
  C   C434      1.0  0.00798  0.59560  0.45794  1.0000
  H   H731      1.0  0.23691  0.71302  0.26501  1.0000
  H   H732      1.0  0.12248  0.56990  0.00597  1.0000
  H   H733      1.0  0.11338  0.48781  0.12847  1.0000
  H   H734      1.0  0.07480  0.70938  0.04894  1.0000
  H   H735      1.0  0.12903  0.69994  0.09165  1.0000
  H   H736      1.0  0.38690  0.48934  0.08653  1.0000
  H   H737      1.0  0.13438  0.71489  0.02002  1.0000
  H   H738      1.0  0.31349  0.65355  0.97931  1.0000
  C   C435      1.0  0.03925  0.70284  0.45971  1.0000
  N   N33       1.0  0.10372  0.71540  0.08342  1.0000
  C   C436      1.0  0.39212  0.49418  0.11231  1.0000
  H   H739      1.0  0.31493  0.49289  0.06186  1.0000
  H   H740      1.0  0.09139  0.72877  0.43951  1.0000
  C   C437      1.0  0.08394  0.71826  0.05682  1.0000
  H   H741      1.0  0.02859  0.60705  0.26095  1.0000
  H   H742      1.0  0.39694  0.48636  0.13127  1.0000
  H   H743      1.0  0.09611  0.70146  0.46764  1.0000
  C   C438      1.0  0.47347  0.63052  0.22623  1.0000
  H   H744      1.0  0.22271  0.72318  0.31626  1.0000
  S   S128      1.0  0.99532  0.53036  0.40935  1.0000
  S   S129      1.0  0.99775  0.62088  0.47157  1.0000
  C   C439      1.0  0.99555  0.60649  0.44577  1.0000
  C   C440      1.0  0.99146  0.58272  0.40877  1.0000
  H   H745      1.0  0.13902  0.48478  0.10104  1.0000
  H   H746      1.0  0.99613  0.59299  0.27975  1.0000
  C   C441      1.0  0.28334  0.68580  0.97821  1.0000
  H   H747      1.0  0.19308  0.49373  0.17750  1.0000
  H   H748      1.0  0.14794  0.48263  0.21189  1.0000
  H   H749      1.0  0.10469  0.73164  0.02271  1.0000
  H   H750      1.0  0.48883  0.64801  0.24352  1.0000
  H   H751      1.0  0.09572  0.71725  0.99949  1.0000
  C   C442      1.0  0.18122  0.48615  0.18669  1.0000
  C   C443      1.0  0.11760  0.72707  0.09330  1.0000
  Fe  Fe65      1.0  0.48932  0.65735  0.00174  1.0000
  H   H752      1.0  0.48877  0.66864  0.18605  1.0000
  C   C444      1.0  0.49011  0.60774  0.10015  1.0000
  H   H753      1.0  0.12710  0.73097  0.06950  1.0000
  C   C445      1.0  0.49019  0.64878  0.16678  1.0000
  C   C446      1.0  0.12672  0.57187  0.97689  1.0000
  H   H754      1.0  0.46753  0.67126  0.88266  1.0000
  S   S130      1.0  0.07650  0.49722  0.71614  1.0000
  Fe  Fe66      1.0  0.09489  0.49696  0.66132  1.0000
  S   S131      1.0  0.09088  0.51353  0.62173  1.0000
  H   H755      1.0  0.09076  0.67480  0.75829  1.0000
  H   H756      1.0  0.47373  0.64307  0.92202  1.0000
  C   C447      1.0  0.06448  0.52446  0.52251  1.0000
  S   S132      1.0  0.00018  0.65848  0.48222  1.0000
  S   S133      1.0  0.12507  0.52704  0.94493  1.0000
  H   H757      1.0  0.11847  0.65471  0.72036  1.0000
  H   H758      1.0  0.15346  0.49152  0.86453  1.0000
  H   H759      1.0  0.00895  0.49954  0.51594  1.0000
  H   H760      1.0  0.01896  0.59625  0.48215  1.0000
  S   S134      1.0  0.20157  0.68209  0.93410  1.0000
  H   H761      1.0  0.43842  0.64510  0.83819  1.0000
  C   C448      1.0  0.47971  0.48973  0.95916  1.0000
  Fe  Fe67      1.0  0.11651  0.70424  0.76887  1.0000
  S   S135      1.0  0.07735  0.70275  0.75815  1.0000
  S   S136      1.0  0.13394  0.68641  0.79349  1.0000
  S   S137      1.0  0.12777  0.49318  0.79637  1.0000
  Fe  Fe68      1.0  0.11802  0.73049  0.73232  1.0000
  Fe  Fe69      1.0  0.07490  0.72318  0.77724  1.0000
  Fe  Fe70      1.0  0.08442  0.71045  0.70229  1.0000
  S   S138      1.0  0.07227  0.70265  0.64673  1.0000
  S   S139      1.0  0.12987  0.49040  0.68550  1.0000
  S   S140      1.0  0.12397  0.71064  0.71122  1.0000
  C   C449      1.0  0.00987  0.67890  0.60375  1.0000
  C   C450      1.0  0.02694  0.68359  0.57988  1.0000
  C   C451      1.0  0.04568  0.69097  0.59356  1.0000
  C   C452      1.0  0.04760  0.69378  0.63115  1.0000
  C   C453      1.0  0.03051  0.68911  0.65503  1.0000
  C   C454      1.0  0.01178  0.68173  0.64138  1.0000
  C   C455      1.0  0.01937  0.72411  0.68855  1.0000
  H   H762      1.0  0.05884  0.69448  0.57483  1.0000
  H   H763      1.0  0.03194  0.69098  0.68400  1.0000
  H   H764      1.0  0.46255  0.63470  0.88351  1.0000
  C   C456      1.0  0.18154  0.68302  0.89637  1.0000
  C   C457      1.0  0.17159  0.67225  0.88024  1.0000
  C   C458      1.0  0.15693  0.67348  0.84903  1.0000
  C   C459      1.0  0.15169  0.68547  0.83388  1.0000
  C   C460      1.0  0.16133  0.69625  0.85040  1.0000
  C   C461      1.0  0.17631  0.69501  0.88120  1.0000
  H   H765      1.0  0.17549  0.66296  0.89140  1.0000
  H   H766      1.0  0.14964  0.66506  0.83649  1.0000
  H   H767      1.0  0.15757  0.70554  0.83908  1.0000
  H   H768      1.0  0.18389  0.70341  0.89333  1.0000
  H   H769      1.0  0.14688  0.55741  0.84728  1.0000
  S   S141      1.0  0.24103  0.65208  0.97192  1.0000
  H   H770      1.0  0.15704  0.57713  0.85595  1.0000
  H   H771      1.0  0.10341  0.71455  0.49506  1.0000
  C   C462      1.0  0.12641  0.50269  0.83755  1.0000
  C   C463      1.0  0.11096  0.51315  0.84176  1.0000
  C   C464      1.0  0.11066  0.52031  0.87480  1.0000
  C   C465      1.0  0.12577  0.51721  0.90435  1.0000
  C   C466      1.0  0.14110  0.50671  0.90024  1.0000
  C   C467      1.0  0.14140  0.49955  0.86719  1.0000
  H   H772      1.0  0.09950  0.51588  0.81936  1.0000
  H   H773      1.0  0.09870  0.52838  0.87737  1.0000
  H   H774      1.0  0.15288  0.50413  0.92242  1.0000
  H   H775      1.0  0.01797  0.70746  0.72131  1.0000
  C   C468      1.0  0.07406  0.52447  0.55825  1.0000
  C   C469      1.0  0.07807  0.51305  0.57724  1.0000
  C   C470      1.0  0.07243  0.50158  0.56003  1.0000
  C   C471      1.0  0.06313  0.50156  0.52418  1.0000
  H   H776      1.0  0.07842  0.53340  0.57123  1.0000
  H   H777      1.0  0.07561  0.49273  0.57409  1.0000
  C   C472      1.0  0.02230  0.48467  0.61055  1.0000
  H   H778      1.0  0.00492  0.50287  0.62697  1.0000
  H   H779      1.0  0.03834  0.50872  0.80025  1.0000
  H   H780      1.0  0.46932  0.66492  0.92754  1.0000
  N   N34       1.0  0.15334  0.56322  0.92444  1.0000
  C   C473      1.0  0.45700  0.66643  0.90409  1.0000
  C   C474      1.0  0.17274  0.55343  0.91797  1.0000
  C   C475      1.0  0.13127  0.55987  0.90292  1.0000
  H   H781      1.0  0.43489  0.64835  0.94320  1.0000
  H   H782      1.0  0.03580  0.49510  0.89241  1.0000
  C   C476      1.0  0.19642  0.55569  0.93796  1.0000
  C   C477      1.0  0.13465  0.55269  0.86623  1.0000
  C   C478      1.0  0.17095  0.57849  0.87690  1.0000
  H   H783      1.0  0.06970  0.64994  0.63557  1.0000
  H   H784      1.0  0.42422  0.67824  0.89851  1.0000
  H   H785      1.0  0.17735  0.55260  0.88855  1.0000
  C   C479      1.0  0.46808  0.64426  0.89293  1.0000
  C   C480      1.0  0.07555  0.66877  0.70505  1.0000
  C   C481      1.0  0.99177  0.71433  0.78211  1.0000
  H   H786      1.0  0.48744  0.64595  0.84071  1.0000
  H   H787      1.0  0.02574  0.68147  0.55092  1.0000
  H   H788      1.0  0.29217  0.69824  0.89211  1.0000
  H   H789      1.0  0.41014  0.63659  0.87548  1.0000
  C   C482      1.0  0.13906  0.48489  0.58049  1.0000
  C   C483      1.0  0.99608  0.49497  0.53454  1.0000
  C   C484      1.0  0.14712  0.56288  0.96455  1.0000
  H   H790      1.0  0.99973  0.72030  0.80401  1.0000
  H   H791      1.0  0.17686  0.58848  0.87456  1.0000
  H   H792      1.0  0.14643  0.58344  0.91905  1.0000
  H   H793      1.0  0.33117  0.69298  0.90024  1.0000
  H   H794      1.0  0.13199  0.58197  0.97596  1.0000
  H   H795      1.0  0.03607  0.50210  0.63333  1.0000
  H   H796      1.0  0.02435  0.70272  0.78593  1.0000
  H   H797      1.0  0.23410  0.69954  0.89789  1.0000
  H   H798      1.0  0.11023  0.57048  0.96102  1.0000
  H   H799      1.0  0.07637  0.64340  0.69684  1.0000
  C   C485      1.0  0.05030  0.50153  0.81303  1.0000
  H   H800      1.0  0.00528  0.72169  0.66868  1.0000
  H   H801      1.0  0.45503  0.65888  0.83414  1.0000
  H   H802      1.0  0.10741  0.66305  0.62613  1.0000
  C   C486      1.0  0.43856  0.67625  0.91827  1.0000
  H   H803      1.0  0.06813  0.67840  0.69909  1.0000
  H   H804      1.0  0.06099  0.66965  0.76009  1.0000
  H   H805      1.0  0.13280  0.67997  0.63903  1.0000
  C   C487      1.0  0.41703  0.63655  0.90387  1.0000
  H   H806      1.0  0.43084  0.67323  0.94472  1.0000
  C   C488      1.0  0.03942  0.48826  0.80841  1.0000
  H   H807      1.0  0.99875  0.67806  0.66006  1.0000
  H   H808      1.0  0.42303  0.67284  0.83716  1.0000
  H   H809      1.0  0.09749  0.63706  0.66422  1.0000
  H   H810      1.0  0.08997  0.67699  0.63349  1.0000
  H   H811      1.0  0.14780  0.68586  0.67833  1.0000
  H   H812      1.0  0.14231  0.55306  0.97251  1.0000
  N   N35       1.0  0.09774  0.66641  0.68290  1.0000
  H   H813      1.0  0.32194  0.68126  0.93161  1.0000
  C   C489      1.0  0.11435  0.67713  0.69169  1.0000
  H   H814      1.0  0.23231  0.71413  0.92220  1.0000
  H   H815      1.0  0.16750  0.49576  0.60661  1.0000
  H   H816      1.0  0.40998  0.65901  0.81654  1.0000
  C   C490      1.0  0.24485  0.70645  0.91349  1.0000
  H   H817      1.0  0.03099  0.72047  0.74380  1.0000
  H   H818      1.0  0.05349  0.66488  0.63851  1.0000
  S   S142      1.0  0.04640  0.72690  0.82043  1.0000
  H   H819      1.0  0.17508  0.57959  0.93551  1.0000
  C   C491      1.0  0.02157  0.49924  0.61453  1.0000
  H   H820      1.0  0.35573  0.65151  0.96051  1.0000
  H   H821      1.0  0.02042  0.48915  0.81626  1.0000
  C   C492      1.0  0.13694  0.67787  0.66807  1.0000
  H   H822      1.0  0.99201  0.50198  0.55626  1.0000
  H   H823      1.0  0.03945  0.48647  0.77830  1.0000
  H   H824      1.0  0.15671  0.50324  0.56534  1.0000
  H   H825      1.0  0.42935  0.62839  0.90800  1.0000
  H   H826      1.0  0.17098  0.49114  0.52327  1.0000
  C   C493      1.0  0.44059  0.65470  0.85068  1.0000
  H   H827      1.0  0.06118  0.66221  0.69754  1.0000
  C   C494      1.0  0.06993  0.66012  0.62865  1.0000
  H   H828      1.0  0.02519  0.50400  0.58824  1.0000
  C   C495      1.0  0.28317  0.66919  0.90900  1.0000
  H   H829      1.0  0.10175  0.63528  0.71275  1.0000
  H   H830      1.0  0.11956  0.55359  0.91914  1.0000
  H   H831      1.0  0.08381  0.48769  0.83921  1.0000
  C   C496      1.0  0.09541  0.64190  0.69117  1.0000
  H   H832      1.0  0.11195  0.50271  0.48967  1.0000
  C   C497      1.0  0.41832  0.66277  0.84186  1.0000
  C   C498      1.0  0.09227  0.66694  0.64240  1.0000
  H   H833      1.0  0.14816  0.66918  0.67005  1.0000
  H   H834      1.0  0.06747  0.50206  0.79838  1.0000
  H   H835      1.0  0.11724  0.55198  0.85223  1.0000
  H   H836      1.0  0.25991  0.68390  0.89140  1.0000
  H   H837      1.0  0.06928  0.66071  0.59830  1.0000
  C   C499      1.0  0.42832  0.64928  0.91464  1.0000
  S   S143      1.0  0.11366  0.72417  0.79107  1.0000
  H   H838      1.0  0.20928  0.54812  0.92958  1.0000
  H   H839      1.0  0.41348  0.65625  0.91674  1.0000
  C   C500      1.0  0.11015  0.65411  0.69272  1.0000
  H   H840      1.0  0.40431  0.66233  0.86284  1.0000
  H   H841      1.0  0.16650  0.54382  0.92592  1.0000
  H   H842      1.0  0.47786  0.49249  0.90120  1.0000
  H   H843      1.0  0.12029  0.56852  0.89730  1.0000
  C   C501      1.0  0.05907  0.51299  0.50518  1.0000
  C   C502      1.0  0.29608  0.69750  0.92193  1.0000
  H   H844      1.0  0.13970  0.50366  0.60598  1.0000
  H   H845      1.0  0.46712  0.49792  0.96130  1.0000
  H   H846      1.0  0.05281  0.50437  0.84190  1.0000
  H   H847      1.0  0.00031  0.69713  0.81249  1.0000
  H   H848      1.0  0.10499  0.68646  0.68899  1.0000
  H   H849      1.0  0.14100  0.54279  0.87095  1.0000
  H   H850      1.0  0.29749  0.70746  0.93215  1.0000
  C   C503      1.0  0.25621  0.70047  0.94794  1.0000
  H   H851      1.0  0.18656  0.57234  0.87085  1.0000
  H   H852      1.0  0.08420  0.65806  0.75532  1.0000
  H   H853      1.0  0.27301  0.66184  0.89399  1.0000
  H   H854      1.0  0.06155  0.53332  0.50824  1.0000
  C   C504      1.0  0.12389  0.48545  0.51648  1.0000
  H   H855      1.0  0.44759  0.68537  0.92380  1.0000
  H   H856      1.0  0.33140  0.69666  0.94750  1.0000
  C   C505      1.0  0.12569  0.49984  0.50995  1.0000
  C   C506      1.0  0.16128  0.57647  0.91571  1.0000
  H   H857      1.0  0.12056  0.67669  0.72055  1.0000
  H   H858      1.0  0.20437  0.56489  0.93066  1.0000
  N   N36       1.0  0.44794  0.65383  0.89025  1.0000
  H   H859      1.0  0.03624  0.72049  0.67656  1.0000
  C   C507      1.0  0.01575  0.71780  0.72610  1.0000
  H   H860      1.0  0.12548  0.65232  0.67424  1.0000
  C   C508      1.0  0.07841  0.66772  0.74695  1.0000
  C   C509      1.0  0.26628  0.68035  0.91828  1.0000
  H   H861      1.0  0.22201  0.72868  0.64035  1.0000
  H   H862      1.0  0.29040  0.66448  0.93366  1.0000
  H   H863      1.0  0.05927  0.49264  0.51080  1.0000
  C   C510      1.0  0.15168  0.49752  0.58918  1.0000
  S   S144      1.0  0.07887  0.73085  0.72017  1.0000
  H   H864      1.0  0.40170  0.63494  0.92226  1.0000
  H   H865      1.0  0.11999  0.48632  0.58730  1.0000
  H   H866      1.0  0.04798  0.70641  0.48485  1.0000
  H   H867      1.0  0.25056  0.67625  0.93192  1.0000
  H   H868      1.0  0.24171  0.69609  0.96402  1.0000
  H   H869      1.0  0.25810  0.71079  0.89527  1.0000
  N   N37       1.0  0.27613  0.69096  0.94137  1.0000
  C   C511      1.0  0.32122  0.69156  0.92608  1.0000
  H   H870      1.0  0.47736  0.72791  0.49308  1.0000
  H   H871      1.0  0.26236  0.70862  0.96475  1.0000
  H   H872      1.0  0.29752  0.67215  0.89041  1.0000
  Fe  Fe71      1.0  0.11034  0.48911  0.73975  1.0000
  H   H873      1.0  0.10559  0.48409  0.52662  1.0000
  H   H874      1.0  0.12168  0.50538  0.53515  1.0000
  C   C512      1.0  0.00487  0.70140  0.78573  1.0000
  H   H875      1.0  0.04864  0.48329  0.92225  1.0000
  H   H876      1.0  0.14291  0.50260  0.49824  1.0000
  H   H877      1.0  0.00030  0.69448  0.76409  1.0000
  N   N38       1.0  0.99276  0.72093  0.74539  1.0000
  H   H878      1.0  0.06688  0.49072  0.89045  1.0000
  C   C513      1.0  0.04878  0.48709  0.89395  1.0000
  H   H879      1.0  0.04020  0.48236  0.59962  1.0000
  C   C514      1.0  0.00652  0.48204  0.54736  1.0000
  H   H880      1.0  0.02561  0.48181  0.53988  1.0000
  Fe  Fe72      1.0  0.21090  0.66649  0.97550  1.0000
  H   H881      1.0  0.19474  0.55499  0.96804  1.0000
  H   H882      1.0  0.14646  0.73166  0.65340  1.0000
  H   H883      1.0  0.29772  0.67859  0.97618  1.0000
  Fe  Fe73      1.0  0.21384  0.78409  0.46220  1.0000
  H   H884      1.0  0.05810  0.90440  0.04873  1.0000
  H   H885      1.0  0.00354  0.90746  0.98980  1.0000
  S   S145      1.0  0.08150  0.96997  0.13926  1.0000
  S   S146      1.0  0.04722  0.75249  0.20321  1.0000
  C   C515      1.0  0.13727  0.97483  0.30508  1.0000
  C   C516      1.0  0.99274  0.90058  0.00493  1.0000
  S   S147      1.0  0.06767  0.73271  0.28925  1.0000
  S   S148      1.0  0.20228  0.78097  0.40257  1.0000
  H   H886      1.0  0.03470  0.74211  0.07205  1.0000
  H   H887      1.0  0.15775  0.96506  0.07207  1.0000
  S   S149      1.0  0.12599  0.95523  0.17983  1.0000
  H   H888      1.0  0.19514  0.82614  0.39636  1.0000
  Fe  Fe74      1.0  0.06172  0.96765  0.19198  1.0000
  S   S150      1.0  0.07189  0.94685  0.19811  1.0000
  C   C517      1.0  0.01745  0.86160  0.02890  1.0000
  Fe  Fe75      1.0  0.10326  0.95377  0.23072  1.0000
  S   S151      1.0  0.12202  0.94353  0.27925  1.0000
  Fe  Fe76      1.0  0.09358  0.94977  0.14724  1.0000
  S   S152      1.0  0.09839  0.93567  0.09958  1.0000
  H   H889      1.0  0.04925  0.73743  0.13502  1.0000
  H   H890      1.0  0.18072  0.80334  0.43718  1.0000
  H   H891      1.0  0.02569  0.85194  0.02879  1.0000
  S   S153      1.0  0.11239  0.92931  0.45049  1.0000
  C   C518      1.0  0.16345  0.84274  0.43206  1.0000
  H   H892      1.0  0.12351  0.95522  0.03384  1.0000
  C   C519      1.0  0.11868  0.93963  0.32686  1.0000
  C   C520      1.0  0.09924  0.94371  0.34790  1.0000
  C   C521      1.0  0.09773  0.94048  0.38545  1.0000
  C   C522      1.0  0.11565  0.93323  0.40287  1.0000
  C   C523      1.0  0.13517  0.92924  0.38189  1.0000
  C   C524      1.0  0.13658  0.93237  0.34428  1.0000
  H   H893      1.0  0.08526  0.94927  0.33520  1.0000
  H   H894      1.0  0.08248  0.94363  0.40112  1.0000
  H   H895      1.0  0.14909  0.92362  0.39452  1.0000
  H   H896      1.0  0.15167  0.92906  0.32850  1.0000
  C   C525      1.0  0.12032  0.96287  0.05453  1.0000
  C   C526      1.0  0.08685  0.92621  0.03136  1.0000
  C   C527      1.0  0.07956  0.93406  0.06075  1.0000
  C   C528      1.0  0.05766  0.94039  0.05841  1.0000
  C   C529      1.0  0.04317  0.93875  0.02730  1.0000
  H   H897      1.0  0.10382  0.92133  0.03275  1.0000
  H   H898      1.0  0.05177  0.94647  0.08072  1.0000
  Fe  Fe77      1.0  0.11249  0.97528  0.17479  1.0000
  C   C530      1.0  0.15393  0.80597  0.37061  1.0000
  S   S154      1.0  0.11082  0.74181  0.23604  1.0000
  H   H899      1.0  0.04126  0.74280  0.38428  1.0000
  H   H900      1.0  0.31771  0.78924  0.47229  1.0000
  C   C531      1.0  0.17900  0.74649  0.25190  1.0000
  H   H901      1.0  0.15933  0.84444  0.40286  1.0000
  H   H902      1.0  0.18292  0.74456  0.22261  1.0000
  N   N39       1.0  0.16138  0.97801  0.29008  1.0000
  H   H903      1.0  0.04724  0.88279  0.06375  1.0000
  C   C532      1.0  0.14394  0.75351  0.36346  1.0000
  C   C533      1.0  0.15098  0.75382  0.40043  1.0000
  C   C534      1.0  0.16857  0.76222  0.41283  1.0000
  C   C535      1.0  0.17947  0.77045  0.38837  1.0000
  C   C536      1.0  0.17228  0.77025  0.35142  1.0000
  C   C537      1.0  0.15460  0.76187  0.33903  1.0000
  H   H904      1.0  0.36066  0.78964  0.45730  1.0000
  H   H905      1.0  0.17384  0.76223  0.44133  1.0000
  H   H906      1.0  0.18046  0.77662  0.33225  1.0000
  H   H907      1.0  0.14913  0.76194  0.31069  1.0000
  C   C538      1.0  0.03788  0.75544  0.15730  1.0000
  C   C539      1.0  0.04086  0.74648  0.12915  1.0000
  C   C540      1.0  0.03249  0.74915  0.09350  1.0000
  C   C541      1.0  0.02110  0.76081  0.08539  1.0000
  C   C542      1.0  0.01837  0.76982  0.11345  1.0000
  C   C543      1.0  0.02649  0.76709  0.14918  1.0000
  H   H908      1.0  0.21265  0.82419  0.43650  1.0000
  H   H909      1.0  0.03993  0.90454  0.08835  1.0000
  H   H910      1.0  0.01020  0.77893  0.10764  1.0000
  H   H911      1.0  0.02416  0.77412  0.17066  1.0000
  H   H912      1.0  0.18833  0.96743  0.25897  1.0000
  H   H913      1.0  0.12672  0.96975  0.28406  1.0000
  H   H914      1.0  0.07687  0.88862  0.01508  1.0000
  H   H915      1.0  0.21459  0.73809  0.35996  1.0000
  C   C544      1.0  0.17927  0.95578  0.30394  1.0000
  H   H916      1.0  0.07833  0.91868  0.97763  1.0000
  H   H917      1.0  0.14161  0.79850  0.37955  1.0000
  Fe  Fe78      1.0  0.10707  0.73550  0.29448  1.0000
  H   H918      1.0  0.06913  0.73645  0.36986  1.0000
  C   C545      1.0  0.09083  0.97601  0.02315  1.0000
  H   H919      1.0  0.18353  0.81558  0.46965  1.0000
  H   H920      1.0  0.19409  0.75137  0.26495  1.0000
  H   H921      1.0  0.11908  0.81114  0.43768  1.0000
  S   S155      1.0  0.09169  0.97443  0.22760  1.0000
  S   S156      1.0  0.02258  0.97326  0.19603  1.0000
  H   H922      1.0  0.30120  0.96460  0.18396  1.0000
  H   H923      1.0  0.16436  0.95304  0.32159  1.0000
  N   N40       1.0  0.02808  0.88476  0.01223  1.0000
  S   S157      1.0  0.01042  0.76340  0.04000  1.0000
  H   H924      1.0  0.13863  0.96823  0.32865  1.0000
  Fe  Fe79      1.0  0.07200  0.73757  0.22922  1.0000
  C   C546      1.0  0.03276  0.88868  0.05146  1.0000
  H   H925      1.0  0.21024  0.81143  0.40443  1.0000
  H   H926      1.0  0.17148  0.97530  0.13916  1.0000
  C   C547      1.0  0.00237  0.88684  0.00231  1.0000
  N   N41       1.0  0.15468  0.81850  0.43155  1.0000
  H   H927      1.0  0.49010  0.76254  0.42215  1.0000
  H   H928      1.0  0.19412  0.95902  0.32133  1.0000
  C   C548      1.0  0.08342  0.96514  0.99705  1.0000
  H   H929      1.0  0.22352  0.73667  0.28731  1.0000
  C   C549      1.0  0.31020  0.97382  0.18807  1.0000
  H   H930      1.0  0.16798  0.96900  0.01206  1.0000
  C   C550      1.0  0.13216  0.97695  0.00361  1.0000
  C   C551      1.0  0.20296  0.73961  0.33579  1.0000
  C   C552      1.0  0.03364  0.87074  0.00801  1.0000
  H   H931      1.0  0.18276  0.84182  0.43653  1.0000
  C   C553      1.0  0.05694  0.73718  0.39352  1.0000
  H   H932      1.0  0.07839  0.97590  0.04688  1.0000
  H   H933      1.0  0.03311  0.86789  0.97871  1.0000
  C   C554      1.0  0.06995  0.88860  0.98670  1.0000
  H   H934      1.0  0.18470  0.73815  0.34535  1.0000
  H   H935      1.0  0.15789  0.85152  0.44706  1.0000
  H   H936      1.0  0.14186  0.79936  0.44063  1.0000
  H   H937      1.0  0.16270  0.73719  0.29708  1.0000
  H   H938      1.0  0.13070  0.83393  0.44617  1.0000
  C   C555      1.0  0.03989  0.90261  0.05841  1.0000
  H   H939      1.0  0.31129  0.97541  0.21797  1.0000
  H   H940      1.0  0.15971  0.96127  0.25537  1.0000
  H   H941      1.0  0.01698  0.88685  0.06879  1.0000
  H   H942      1.0  0.13091  0.82170  0.38592  1.0000
  C   C556      1.0  0.13734  0.80937  0.44831  1.0000
  H   H943      1.0  0.02618  0.94363  0.02597  1.0000
  H   H944      1.0  0.47443  0.74150  0.46463  1.0000
  H   H945      1.0  0.15079  0.80737  0.34089  1.0000
  H   H946      1.0  0.10417  0.96002  0.06965  1.0000
  C   C557      1.0  0.17232  0.73422  0.27204  1.0000
  H   H947      1.0  0.29285  0.98131  0.14025  1.0000
  C   C558      1.0  0.07237  0.92461  0.00016  1.0000
  C   C559      1.0  0.10322  0.73823  0.11018  1.0000
  C   C560      1.0  0.17942  0.81385  0.44033  1.0000
  C   C561      1.0  0.04318  0.89169  0.98503  1.0000
  S   S158      1.0  0.12214  0.74235  0.34957  1.0000
  H   H948      1.0  0.14288  0.74746  0.41969  1.0000
  H   H949      1.0  0.32813  0.97270  0.17608  1.0000
  H   H950      1.0  0.45686  0.97887  0.43122  1.0000
  H   H951      1.0  0.14290  0.95179  0.09085  1.0000
  C   C562      1.0  0.20011  0.81932  0.41786  1.0000
  H   H952      1.0  0.06541  0.74273  0.41572  1.0000
  H   H953      1.0  0.21042  0.97909  0.29430  1.0000
  H   H954      1.0  0.01484  0.86455  0.05782  1.0000
  C   C563      1.0  0.17212  0.96581  0.27516  1.0000
  H   H955      1.0  0.18532  0.94698  0.28957  1.0000
  H   H956      1.0  0.05200  0.86849  0.01729  1.0000
  H   H957      1.0  0.02773  0.90967  0.04591  1.0000
  C   C564      1.0  0.14993  0.83147  0.44810  1.0000
  H   H958      1.0  0.16360  0.75318  0.25235  1.0000
  H   H959      1.0  0.99068  0.90364  0.03387  1.0000
  C   C565      1.0  0.14058  0.96188  0.08270  1.0000
  H   H960      1.0  0.00006  0.86064  0.01498  1.0000
  H   H961      1.0  0.11510  0.74643  0.11417  1.0000
  H   H962      1.0  0.20975  0.97873  0.10757  1.0000
  H   H963      1.0  0.16009  0.82585  0.37641  1.0000
  H   H964      1.0  0.08862  0.74147  0.09202  1.0000
  N   N42       1.0  0.11621  0.97557  0.03634  1.0000
  H   H965      1.0  0.17243  0.80247  0.37365  1.0000
  C   C566      1.0  0.05030  0.93078  0.99810  1.0000
  H   H966      1.0  0.20514  0.74975  0.32850  1.0000
  H   H967      1.0  0.09624  0.73591  0.13768  1.0000
  C   C567      1.0  0.14964  0.81870  0.39099  1.0000
  H   H968      1.0  0.13079  0.96850  0.98534  1.0000
  H   H969      1.0  0.17459  0.97765  0.34605  1.0000
  H   H970      1.0  0.43160  0.98074  0.37738  1.0000
  H   H971      1.0  0.13601  0.96726  0.10799  1.0000
  H   H972      1.0  0.08614  0.95561  0.00916  1.0000
  H   H973      1.0  0.04104  0.90214  0.98758  1.0000
  H   H974      1.0  0.99060  0.88133  0.02044  1.0000
  H   H975      1.0  0.17783  0.98053  0.21200  1.0000
  C   C568      1.0  0.15890  0.97842  0.01108  1.0000
  H   H976      1.0  0.06415  0.96609  0.99127  1.0000
  H   H977      1.0  0.25397  0.92323  0.53748  1.0000
  C   C569      1.0  0.26824  0.76134  0.59693  1.0000
  S   S159      1.0  0.14064  0.74759  0.71872  1.0000
  H   H978      1.0  0.41652  0.96967  0.77377  1.0000
  Fe  Fe80      1.0  0.44087  0.78572  0.52563  1.0000
  S   S160      1.0  0.46766  0.80002  0.50630  1.0000
  S   S161      1.0  0.40333  0.78749  0.50021  1.0000
  Fe  Fe81      1.0  0.13449  0.91985  0.49696  1.0000
  H   H979      1.0  0.02434  0.92381  0.60583  1.0000
  H   H980      1.0  0.04816  0.92554  0.63773  1.0000
  H   H981      1.0  0.08838  0.92827  0.51677  1.0000
  S   S162      1.0  0.45165  0.78745  0.58477  1.0000
  S   S163      1.0  0.46610  0.76918  0.51544  1.0000
  H   H982      1.0  0.44429  0.95399  0.61007  1.0000
  Fe  Fe82      1.0  0.25429  0.78710  0.51930  1.0000
  S   S164      1.0  0.22744  0.79053  0.56447  1.0000
  S   S165      1.0  0.29251  0.78584  0.54259  1.0000
  Fe  Fe83      1.0  0.20683  0.77452  0.53993  1.0000
  S   S166      1.0  0.19059  0.75689  0.56492  1.0000
  Fe  Fe84      1.0  0.20820  0.80340  0.52481  1.0000
  C   C570      1.0  0.99214  0.73511  0.75214  1.0000
  C   C571      1.0  0.39526  0.83996  0.55687  1.0000
  Fe  Fe85      1.0  0.04317  0.90949  0.82918  1.0000
  S   S167      1.0  0.01516  0.89456  0.82415  1.0000
  S   S168      1.0  0.06864  0.91678  0.78466  1.0000
  Fe  Fe86      1.0  0.02894  0.91585  0.90967  1.0000
  H   H983      1.0  0.29389  0.75755  0.55411  1.0000
  C   C572      1.0  0.03106  0.79916  0.79037  1.0000
  Fe  Fe87      1.0  0.02581  0.88840  0.88106  1.0000
  S   S169      1.0  0.03415  0.86788  0.89865  1.0000
  H   H984      1.0  0.43819  0.93793  0.60305  1.0000
  S   S170      1.0  0.05580  0.90243  0.88451  1.0000
  S   S171      1.0  0.01834  0.92404  0.85497  1.0000
  Fe  Fe88      1.0  0.17284  0.92478  0.55610  1.0000
  S   S172      1.0  0.13370  0.92935  0.55283  1.0000
  S   S173      1.0  0.19900  0.94080  0.56716  1.0000
  Fe  Fe89      1.0  0.16605  0.89771  0.52687  1.0000
  S   S174      1.0  0.12660  0.90062  0.52112  1.0000
  H   H985      1.0  0.39949  0.83152  0.62877  1.0000
  Fe  Fe90      1.0  0.12842  0.90998  0.57727  1.0000
  S   S175      1.0  0.09903  0.90440  0.61802  1.0000
  S   S176      1.0  0.16762  0.90597  0.58403  1.0000
  S   S177      1.0  0.33610  0.96916  0.72099  1.0000
  S   S178      1.0  0.18889  0.82149  0.54520  1.0000
  S   S179      1.0  0.28990  0.95000  0.66812  1.0000
  H   H986      1.0  0.42867  0.81311  0.57931  1.0000
  S   S180      1.0  0.40543  0.96973  0.69538  1.0000
  S   S181      1.0  0.45903  0.91699  0.66469  1.0000
  C   C573      1.0  0.44446  0.93159  0.67528  1.0000
  C   C574      1.0  0.45684  0.94238  0.68618  1.0000
  C   C575      1.0  0.44459  0.95395  0.69257  1.0000
  C   C576      1.0  0.41991  0.95489  0.68775  1.0000
  C   C577      1.0  0.40751  0.94409  0.67706  1.0000
  C   C578      1.0  0.41972  0.93248  0.67123  1.0000
  H   H987      1.0  0.44751  0.82808  0.48455  1.0000
  H   H988      1.0  0.45431  0.96223  0.70113  1.0000
  H   H989      1.0  0.38851  0.94466  0.67344  1.0000
  H   H990      1.0  0.40997  0.92417  0.66294  1.0000
  C   C579      1.0  0.22427  0.94300  0.59556  1.0000
  C   C580      1.0  0.23886  0.95346  0.58904  1.0000
  C   C581      1.0  0.25903  0.95572  0.61080  1.0000
  C   C582      1.0  0.26484  0.94754  0.63953  1.0000
  C   C583      1.0  0.25022  0.93709  0.64620  1.0000
  C   C584      1.0  0.22999  0.93486  0.62449  1.0000
  H   H991      1.0  0.23455  0.95987  0.56689  1.0000
  H   H992      1.0  0.27008  0.96379  0.60526  1.0000
  H   H993      1.0  0.25443  0.93077  0.66857  1.0000
  H   H994      1.0  0.21858  0.92703  0.63063  1.0000
  C   C585      1.0  0.07693  0.91297  0.73844  1.0000
  C   C586      1.0  0.06551  0.90369  0.71755  1.0000
  C   C587      1.0  0.07256  0.90123  0.68097  1.0000
  C   C588      1.0  0.09124  0.90790  0.66465  1.0000
  C   C589      1.0  0.10251  0.91725  0.68542  1.0000
  C   C590      1.0  0.09533  0.91978  0.72190  1.0000
  H   H995      1.0  0.05138  0.89833  0.72966  1.0000
  H   H996      1.0  0.06367  0.89395  0.66534  1.0000
  H   H997      1.0  0.11681  0.92253  0.67346  1.0000
  H   H998      1.0  0.10431  0.92701  0.73761  1.0000
  H   H999      1.0  0.01689  0.77110  0.80801  1.0000
  H   H1000     1.0  0.05265  0.81749  0.87014  1.0000
  H   H1001     1.0  0.27654  0.90833  0.56465  1.0000
  C   C591      1.0  0.18945  0.83795  0.53395  1.0000
  C   C592      1.0  0.18865  0.86437  0.51786  1.0000
  C   C593      1.0  0.17252  0.85940  0.54277  1.0000
  C   C594      1.0  0.17295  0.84629  0.55071  1.0000
  H   H1002     1.0  0.15976  0.86565  0.55606  1.0000
  H   H1003     1.0  0.16043  0.84258  0.57017  1.0000
  H   H1004     1.0  0.39896  0.81428  0.62712  1.0000
  H   H1005     1.0  0.37267  0.81468  0.49776  1.0000
  C   C595      1.0  0.23353  0.97200  0.78421  1.0000
  C   C596      1.0  0.37264  0.78628  0.51249  1.0000
  S   S182      1.0  0.23449  0.77023  0.49699  1.0000
  H   H1006     1.0  0.05419  0.94191  0.73894  1.0000
  C   C597      1.0  0.32320  0.78589  0.52969  1.0000
  C   C598      1.0  0.34064  0.78408  0.55693  1.0000
  C   C599      1.0  0.36511  0.78422  0.54847  1.0000
  C   C600      1.0  0.25859  0.87558  0.53778  1.0000
  H   H1007     1.0  0.33518  0.78257  0.58490  1.0000
  H   H1008     1.0  0.37813  0.78285  0.56985  1.0000
  C   C601      1.0  0.15328  0.75029  0.67505  1.0000
  C   C602      1.0  0.15412  0.74081  0.64807  1.0000
  C   C603      1.0  0.16524  0.74311  0.61431  1.0000
  C   C604      1.0  0.17535  0.75495  0.60690  1.0000
  C   C605      1.0  0.17413  0.76452  0.63360  1.0000
  C   C606      1.0  0.16336  0.76214  0.66764  1.0000
  H   H1009     1.0  0.05006  0.83799  0.85687  1.0000
  H   H1010     1.0  0.22621  0.76262  0.66420  1.0000
  H   H1011     1.0  0.18162  0.77371  0.62820  1.0000
  H   H1012     1.0  0.16271  0.76954  0.68832  1.0000
  H   H1013     1.0  0.22238  0.91424  0.57474  1.0000
  H   H1014     1.0  0.40853  0.85929  0.55830  1.0000
  C   C607      1.0  0.01595  0.85617  0.91897  1.0000
  C   C608      1.0  0.02652  0.84468  0.93060  1.0000
  C   C609      1.0  0.22882  0.90818  0.55182  1.0000
  S   S183      1.0  0.00086  0.78977  0.96223  1.0000
  C   C610      1.0  0.03524  0.94446  0.73434  1.0000
  H   H1015     1.0  0.23721  0.73719  0.67566  1.0000
  C   C611      1.0  0.01761  0.76276  0.82505  1.0000
  C   C612      1.0  0.03193  0.75227  0.81447  1.0000
  H   H1016     1.0  0.21290  0.88663  0.57666  1.0000
  C   C613      1.0  0.28740  0.75278  0.57916  1.0000
  H   H1017     1.0  0.04314  0.79786  0.76661  1.0000
  H   H1018     1.0  0.22486  0.96503  0.71322  1.0000
  H   H1019     1.0  0.04223  0.75261  0.78956  1.0000
  H   H1020     1.0  0.21266  0.90436  0.53852  1.0000
  C   C614      1.0  0.01996  0.93348  0.74838  1.0000
  C   C615      1.0  0.36547  0.81872  0.52368  1.0000
  H   H1021     1.0  0.03096  0.84908  0.83476  1.0000
  H   H1022     1.0  0.05749  0.95221  0.52961  1.0000
  N   N43       1.0  0.40437  0.82643  0.55367  1.0000
  H   H1023     1.0  0.00203  0.83317  0.81866  1.0000
  C   C616      1.0  0.42093  0.82277  0.58434  1.0000
  C   C617      1.0  0.48567  0.94289  0.59716  1.0000
  C   C618      1.0  0.07415  0.94670  0.52650  1.0000
  H   H1024     1.0  0.02148  0.82654  0.95706  1.0000
  H   H1025     1.0  0.22637  0.92408  0.51431  1.0000
  S   S184      1.0  0.18928  0.88087  0.50717  1.0000
  H   H1026     1.0  0.26054  0.95721  0.73672  1.0000
  C   C619      1.0  0.25210  0.88971  0.53200  1.0000
  H   H1027     1.0  0.00930  0.90751  0.75198  1.0000
  H   H1028     1.0  0.47583  0.94178  0.68988  1.0000
  S   S185      1.0  0.03095  0.92900  0.95994  1.0000
  H   H1029     1.0  0.07393  0.87925  0.97361  1.0000
  H   H1030     1.0  0.19594  0.97104  0.76854  1.0000
  C   C620      1.0  0.22756  0.73828  0.64947  1.0000
  C   C621      1.0  0.03498  0.81306  0.87243  1.0000
  H   H1031     1.0  0.48514  0.93503  0.49751  1.0000
  C   C622      1.0  0.04009  0.79889  0.87993  1.0000
  C   C623      1.0  0.44316  0.94669  0.58818  1.0000
  H   H1032     1.0  0.04930  0.90502  0.55355  1.0000
  H   H1033     1.0  0.37994  0.84040  0.57606  1.0000
  H   H1034     1.0  0.25511  0.78426  0.63110  1.0000
  N   N44       1.0  0.99384  0.93407  0.73927  1.0000
  C   C624      1.0  0.24282  0.74426  0.61927  1.0000
  N   N45       1.0  0.01989  0.81630  0.83964  1.0000
  H   H1035     1.0  0.08524  0.94775  0.55142  1.0000
  N   N46       1.0  0.46648  0.94456  0.56876  1.0000
  C   C625      1.0  0.48757  0.73485  0.47708  1.0000
  C   C626      1.0  0.22282  0.89578  0.62755  1.0000
  H   H1036     1.0  0.23073  0.78512  0.66162  1.0000
  N   N47       1.0  0.24442  0.89740  0.56524  1.0000
  C   C627      1.0  0.01299  0.83516  0.94731  1.0000
  C   C628      1.0  0.20512  0.85603  0.50096  1.0000
  H   H1037     1.0  0.48044  0.93566  0.61759  1.0000
  C   C629      1.0  0.26546  0.90305  0.58437  1.0000
  H   H1038     1.0  0.30304  0.75165  0.59725  1.0000
  H   H1039     1.0  0.08423  0.95105  0.50379  1.0000
  C   C630      1.0  0.01522  0.83049  0.84010  1.0000
  H   H1040     1.0  0.37324  0.81905  0.58077  1.0000
  H   H1041     1.0  0.02276  0.93299  0.77855  1.0000
  H   H1042     1.0  0.30540  0.74379  0.67166  1.0000
  H   H1043     1.0  0.15287  0.80897  0.50392  1.0000
  H   H1044     1.0  0.27184  0.87408  0.55964  1.0000
  H   H1045     1.0  0.04707  0.91153  0.61063  1.0000
  C   C631      1.0  0.28715  0.74173  0.66219  1.0000
  H   H1046     1.0  0.34970  0.81301  0.53049  1.0000
  H   H1047     1.0  0.25997  0.91054  0.60450  1.0000
  H   H1048     1.0  0.45677  0.97394  0.53488  1.0000
  H   H1049     1.0  0.12511  0.80128  0.49956  1.0000
  C   C632      1.0  0.07029  0.93258  0.51711  1.0000
  C   C633      1.0  0.33073  0.78783  0.49367  1.0000
  H   H1050     1.0  0.42457  0.82221  0.64352  1.0000
  C   C634      1.0  0.28415  0.96506  0.77707  1.0000
  H   H1051     1.0  0.21174  0.88909  0.64324  1.0000
  C   C635      1.0  0.02886  0.92662  0.53107  1.0000
  S   S186      1.0  0.48710  0.75430  0.60757  1.0000
  H   H1052     1.0  0.23860  0.89779  0.64457  1.0000
  H   H1053     1.0  0.23787  0.88966  0.51079  1.0000
  S   S187      1.0  0.48100  0.81943  0.60004  1.0000
  H   H1054     1.0  0.25500  0.73669  0.60939  1.0000
  C   C636      1.0  0.41281  0.85002  0.57125  1.0000
  H   H1055     1.0  0.99792  0.93870  0.54111  1.0000
  Fe  Fe91      1.0  0.47920  0.77210  0.57338  1.0000
  S   S188      1.0  0.17374  0.91638  0.49920  1.0000
  C   C637      1.0  0.13539  0.80960  0.49045  1.0000
  H   H1056     1.0  0.00437  0.92693  0.68602  1.0000
  H   H1057     1.0  0.46317  0.92402  0.56803  1.0000
  H   H1058     1.0  0.38995  0.80749  0.55588  1.0000
  C   C638      1.0  0.42174  0.95034  0.56390  1.0000
  H   H1059     1.0  0.99773  0.79952  0.83813  1.0000
  C   C639      1.0  0.22957  0.88951  0.59060  1.0000
  C   C640      1.0  0.37074  0.96946  0.80475  1.0000
  H   H1060     1.0  0.25521  0.76383  0.57503  1.0000
  S   S189      1.0  0.18543  0.78744  0.50391  1.0000
  H   H1061     1.0  0.07778  0.92691  0.58863  1.0000
  C   C641      1.0  0.03198  0.74115  0.83527  1.0000
  H   H1062     1.0  0.21096  0.74380  0.65424  1.0000
  H   H1063     1.0  0.43635  0.82906  0.58583  1.0000
  H   H1064     1.0  0.01758  0.91942  0.54445  1.0000
  H   H1065     1.0  0.35923  0.82862  0.51942  1.0000
  H   H1066     1.0  0.25679  0.97322  0.67214  1.0000
  H   H1067     1.0  0.03305  0.94609  0.70462  1.0000
  C   C642      1.0  0.99612  0.80998  0.84066  1.0000
  H   H1068     1.0  0.21211  0.90457  0.62433  1.0000
  H   H1069     1.0  0.43172  0.84805  0.56550  1.0000
  H   H1070     1.0  0.42453  0.95915  0.54823  1.0000
  S   S190      1.0  0.34640  0.97002  0.63162  1.0000
  H   H1071     1.0  0.29158  0.89866  0.62635  1.0000
  H   H1072     1.0  0.03647  0.79207  0.81097  1.0000
  H   H1073     1.0  0.04570  0.83730  0.80763  1.0000
  S   S191      1.0  0.23583  0.80091  0.48079  1.0000
  H   H1074     1.0  0.41667  0.94258  0.54500  1.0000
  H   H1075     1.0  0.37987  0.98059  0.75807  1.0000
  H   H1076     1.0  0.41177  0.97783  0.83899  1.0000
  C   C643      1.0  0.00488  0.75155  0.87885  1.0000
  H   H1077     1.0  0.99520  0.94310  0.68641  1.0000
  H   H1078     1.0  0.23104  0.74611  0.59542  1.0000
  H   H1079     1.0  0.05619  0.79551  0.86515  1.0000
  H   H1080     1.0  0.04537  0.84319  0.92706  1.0000
  H   H1081     1.0  0.03740  0.88947  0.95656  1.0000
  H   H1082     1.0  0.24251  0.86997  0.54355  1.0000
  N   N48       1.0  0.25564  0.75621  0.62996  1.0000
  H   H1083     1.0  0.27747  0.77029  0.60380  1.0000
  H   H1084     1.0  0.29629  0.89007  0.58394  1.0000
  H   H1085     1.0  0.22436  0.76764  0.61800  1.0000
  H   H1086     1.0  0.37991  0.96781  0.83097  1.0000
  H   H1087     1.0  0.99446  0.75116  0.90364  1.0000
  C   C644      1.0  0.23704  0.76599  0.64091  1.0000
  H   H1088     1.0  0.47839  0.95996  0.63178  1.0000
  H   H1089     1.0  0.00724  0.83362  0.86651  1.0000
  H   H1090     1.0  0.26620  0.87162  0.51202  1.0000
  H   H1091     1.0  0.28900  0.73675  0.63567  1.0000
  C   C645      1.0  0.43966  0.83144  0.51081  1.0000
  H   H1092     1.0  0.07972  0.89578  0.97082  1.0000
  H   H1093     1.0  0.35155  0.96812  0.80978  1.0000
  C   C646      1.0  0.01726  0.93983  0.53692  1.0000
  C   C647      1.0  0.03697  0.83898  0.83442  1.0000
  H   H1094     1.0  0.26246  0.75462  0.68786  1.0000
  H   H1095     1.0  0.02582  0.81895  0.78153  1.0000
  C   C648      1.0  0.35520  0.78803  0.48523  1.0000
  C   C649      1.0  0.24617  0.77910  0.65334  1.0000
  H   H1096     1.0  0.21844  0.83666  0.49596  1.0000
  C   C650      1.0  0.41666  0.82415  0.51751  1.0000
  C   C651      1.0  0.00405  0.76247  0.85733  1.0000
  H   H1097     1.0  0.25801  0.77839  0.67747  1.0000
  C   C652      1.0  0.41003  0.82277  0.62300  1.0000
  Fe  Fe92      1.0  0.31496  0.96693  0.66869  1.0000
  C   C653      1.0  0.05883  0.92868  0.58146  1.0000
  H   H1098     1.0  0.44339  0.97211  0.79821  1.0000
  H   H1099     1.0  0.27373  0.88557  0.61625  1.0000
  H   H1100     1.0  0.15437  0.83152  0.47782  1.0000
  C   C654      1.0  0.20555  0.84290  0.50892  1.0000
  C   C655      1.0  0.26706  0.96682  0.74439  1.0000
  H   H1101     1.0  0.41037  0.85163  0.60110  1.0000
  H   H1102     1.0  0.21769  0.85975  0.48163  1.0000
  H   H1103     1.0  0.38836  0.84332  0.52999  1.0000
  H   H1104     1.0  0.47502  0.84289  0.63949  1.0000
  H   H1105     1.0  0.02343  0.94484  0.56170  1.0000
  H   H1106     1.0  0.02666  0.92452  0.50139  1.0000
  H   H1107     1.0  0.27518  0.96161  0.80197  1.0000
  H   H1108     1.0  0.43611  0.84175  0.50753  1.0000
  N   N49       1.0  0.05446  0.92508  0.54199  1.0000
  H   H1109     1.0  0.29767  0.95773  0.76957  1.0000
  H   H1110     1.0  0.20113  0.97391  0.81595  1.0000
  H   H1111     1.0  0.23842  0.88043  0.59794  1.0000
  H   H1112     1.0  0.05188  0.81516  0.80682  1.0000
  H   H1113     1.0  0.09265  0.96558  0.97034  1.0000
  H   H1114     1.0  0.00905  0.73817  0.76475  1.0000
  C   C656      1.0  0.03269  0.81298  0.80444  1.0000
  C   C657      1.0  0.28263  0.89368  0.60340  1.0000
  H   H1115     1.0  0.46014  0.96999  0.58189  1.0000
  H   H1116     1.0  0.40620  0.95218  0.58196  1.0000
  H   H1117     1.0  0.28518  0.76228  0.66309  1.0000
  C   C658      1.0  0.04350  0.92190  0.61004  1.0000
  H   H1118     1.0  0.04307  0.79757  0.90975  1.0000
  C   C659      1.0  0.27249  0.75429  0.66158  1.0000
  Fe  Fe93      1.0  0.36642  0.97392  0.68378  1.0000
  H   H1119     1.0  0.05615  0.93898  0.58654  1.0000
  H   H1120     1.0  0.42096  0.81384  0.51400  1.0000
  C   C660      1.0  0.06126  0.91120  0.53764  1.0000
  H   H1121     1.0  0.40486  0.82669  0.49423  1.0000
  H   H1122     1.0  0.02518  0.79261  0.87346  1.0000
  H   H1123     1.0  0.27832  0.96983  0.72122  1.0000
  H   H1124     1.0  0.02832  0.92469  0.73696  1.0000
  C   C661      1.0  0.24021  0.91734  0.52430  1.0000
  H   H1125     1.0  0.23332  0.96143  0.78613  1.0000
  C   C662      1.0  0.01846  0.74089  0.86753  1.0000
  C   C663      1.0  0.47228  0.95487  0.54193  1.0000
  C   C664      1.0  0.46474  0.93204  0.54836  1.0000
  C   C665      1.0  0.46839  0.96883  0.55465  1.0000
  H   H1126     1.0  0.45331  0.82968  0.53205  1.0000
  H   H1127     1.0  0.37628  0.96175  0.78547  1.0000
  H   H1128     1.0  0.21414  0.98067  0.72018  1.0000
  C   C666      1.0  0.38361  0.81757  0.55518  1.0000
  H   H1129     1.0  0.07933  0.90939  0.54876  1.0000
  H   H1130     1.0  0.06394  0.93214  0.48824  1.0000
  Fe  Fe94      1.0  0.47929  0.80121  0.56515  1.0000
  H   H1131     1.0  0.24749  0.91238  0.49986  1.0000
  H   H1132     1.0  0.29383  0.97389  0.78335  1.0000
  H   H1133     1.0  0.48268  0.91887  0.51104  1.0000
  H   H1134     1.0  0.02760  0.81734  0.89785  1.0000
  H   H1135     1.0  0.01835  0.73235  0.88383  1.0000
  C   C667      1.0  0.06133  0.90585  0.49812  1.0000
  H   H1136     1.0  0.26756  0.89413  0.51848  1.0000
  C   C668      1.0  0.23074  0.97503  0.71701  1.0000
  S   S192      1.0  0.99970  0.90148  0.90905  1.0000
  C   C669      1.0  0.99169  0.85810  0.92481  1.0000
  H   H1137     1.0  0.02116  0.73456  0.69096  1.0000
  H   H1138     1.0  0.03191  0.95337  0.75000  1.0000
  H   H1139     1.0  0.01295  0.79704  0.78041  1.0000
  H   H1140     1.0  0.28064  0.74348  0.57000  1.0000
  H   H1141     1.0  0.27981  0.73510  0.68265  1.0000
  H   H1142     1.0  0.01992  0.94592  0.51260  1.0000
  C   C670      1.0  0.42778  0.97708  0.78616  1.0000
  H   H1143     1.0  0.99029  0.80940  0.90047  1.0000
  H   H1144     1.0  0.12579  0.81823  0.50040  1.0000
  H   H1145     1.0  0.46174  0.95363  0.51637  1.0000
  H   H1146     1.0  0.44846  0.93171  0.53142  1.0000
  C   C671      1.0  0.20740  0.97627  0.78803  1.0000
  H   H1147     1.0  0.07429  0.91067  0.48031  1.0000
  C   C672      1.0  0.48519  0.92868  0.52161  1.0000
  C   C673      1.0  0.48771  0.84457  0.61796  1.0000
  H   H1148     1.0  0.06693  0.89569  0.49892  1.0000
  H   H1149     1.0  0.16610  0.73565  0.59385  1.0000
  H   H1150     1.0  0.22812  0.97837  0.65847  1.0000
  N   N50       1.0  0.24658  0.97602  0.75019  1.0000
  H   H1151     1.0  0.48552  0.97388  0.55519  1.0000
  H   H1152     1.0  0.99062  0.74042  0.72600  1.0000
  C   C674      1.0  0.24158  0.97931  0.68049  1.0000
  H   H1153     1.0  0.24287  0.97536  0.80929  1.0000
  H   H1154     1.0  0.99317  0.95464  0.74442  1.0000
  H   H1155     1.0  0.99895  0.88327  0.97398  1.0000
  H   H1156     1.0  0.04354  0.90620  0.48538  1.0000
  C   C675      1.0  0.99064  0.90968  0.74457  1.0000
  C   C676      1.0  0.99107  0.93366  0.69820  1.0000
  Fe  Fe95      1.0  0.99108  0.90881  0.85287  1.0000
  Fe  Fe96      1.0  0.96246  0.16315  0.08299  1.0000
  S   S193      1.0  0.93490  0.15155  0.05432  1.0000
  S   S194      1.0  0.95892  0.17369  0.13767  1.0000
  Fe  Fe97      1.0  0.94690  0.16146  0.00287  1.0000
  Fe  Fe98      1.0  0.96426  0.13735  0.04343  1.0000
  S   S195      1.0  0.96180  0.11558  0.04077  1.0000
  C   C677      1.0  0.98748  0.01190  0.16964  1.0000
  Fe  Fe99      1.0  0.83032  0.22019  0.31597  1.0000
  S   S196      1.0  0.86815  0.21423  0.30582  1.0000
  S   S197      1.0  0.81682  0.21040  0.36755  1.0000
  Fe  Fe100     1.0  0.85915  0.21471  0.24604  1.0000
  S   S198      1.0  0.86430  0.19881  0.20386  1.0000
  H   H1157     1.0  0.90804  0.11985  0.02135  1.0000
  H   H1158     1.0  0.82780  0.06569  0.41384  1.0000
  H   H1159     1.0  0.82374  0.06884  0.36693  1.0000
  C   C678      1.0  0.74634  0.01788  0.33209  1.0000
  H   H1160     1.0  0.90908  0.17251  0.11550  1.0000
  H   H1161     1.0  0.87271  0.18236  0.14227  1.0000
  S   S199      1.0  0.73316  0.17281  0.40542  1.0000
  C   C679      1.0  0.69454  0.00923  0.40346  1.0000
  Fe  Fe101     1.0  0.80145  0.03351  0.42619  1.0000
  S   S200      1.0  0.82873  0.04042  0.38417  1.0000
  S   S201      1.0  0.76246  0.03572  0.41549  1.0000
  Fe  Fe102     1.0  0.93508  0.03056  0.14766  1.0000
  S   S202      1.0  0.90559  0.01669  0.14517  1.0000
  H   H1162     1.0  0.69982  0.01852  0.41295  1.0000
  Fe  Fe103     1.0  0.90224  0.05288  0.12814  1.0000
  S   S203      1.0  0.86994  0.04032  0.12464  1.0000
  S   S204      1.0  0.90008  0.07467  0.12580  1.0000
  Fe  Fe104     1.0  0.88369  0.03118  0.17651  1.0000
  S   S205      1.0  0.86098  0.02290  0.22283  1.0000
  Fe  Fe105     1.0  0.89397  0.02670  0.09357  1.0000
  S   S206      1.0  0.88531  0.01244  0.04780  1.0000
  S   S207      1.0  0.91409  0.04455  0.18202  1.0000
  S   S208      1.0  0.92535  0.03979  0.09412  1.0000
  C   C680      1.0  0.87521  0.01346  0.00169  1.0000
  H   H1163     1.0  0.88688  0.99762  0.20787  1.0000
  H   H1164     1.0  0.92407  0.98496  0.28382  1.0000
  Fe  Fe106     1.0  0.72661  0.16289  0.46008  1.0000
  H   H1165     1.0  0.75127  0.99861  0.25486  1.0000
  Fe  Fe107     1.0  0.76055  0.04600  0.46991  1.0000
  H   H1166     1.0  0.86202  0.03271  0.00480  1.0000
  H   H1167     1.0  0.77067  0.20840  0.44161  1.0000
  S   S209      1.0  0.73820  0.00016  0.42840  1.0000
  H   H1168     1.0  0.93363  0.00393  0.20811  1.0000
  C   C681      1.0  0.70959  0.99873  0.40882  1.0000
  C   C682      1.0  0.95682  0.07019  0.18474  1.0000
  H   H1169     1.0  0.74050  0.03829  0.33535  1.0000
  H   H1170     1.0  0.79195  0.00011  0.32712  1.0000
  H   H1171     1.0  0.71564  0.99003  0.25994  1.0000
  C   C683      1.0  0.83725  0.03542  0.33921  1.0000
  C   C684      1.0  0.85213  0.04322  0.31845  1.0000
  C   C685      1.0  0.85949  0.03964  0.28280  1.0000
  C   C686      1.0  0.85216  0.02813  0.26747  1.0000
  C   C687      1.0  0.83754  0.02027  0.28844  1.0000
  C   C688      1.0  0.83005  0.02389  0.32396  1.0000
  H   H1172     1.0  0.85800  0.05212  0.33000  1.0000
  H   H1173     1.0  0.87080  0.04579  0.26720  1.0000
  H   H1174     1.0  0.83213  0.01125  0.27716  1.0000
  H   H1175     1.0  0.81901  0.01770  0.33980  1.0000
  C   C689      1.0  0.89347  0.00407  0.30516  1.0000
  C   C690      1.0  0.51496  0.01239  0.32465  1.0000
  C   C691      1.0  0.52689  0.00069  0.31888  1.0000
  C   C692      1.0  0.51436  0.99008  0.30694  1.0000
  H   H1176     1.0  0.77695  0.00258  0.37047  1.0000
  H   H1177     1.0  0.52485  0.02058  0.33353  1.0000
  H   H1178     1.0  0.54579  0.99991  0.32341  1.0000
  H   H1179     1.0  0.95720  0.00089  0.15437  1.0000
  C   C693      1.0  0.87740  0.00264  0.97903  1.0000
  H   H1180     1.0  0.91050  0.01353  0.22629  1.0000
  H   H1181     1.0  0.91143  0.02035  0.28718  1.0000
  H   H1182     1.0  0.87880  0.11595  0.00773  1.0000
  C   C694      1.0  0.79445  0.19899  0.37385  1.0000
  C   C695      1.0  0.79777  0.18967  0.40083  1.0000
  C   C696      1.0  0.77941  0.18137  0.41013  1.0000
  C   C697      1.0  0.75736  0.18244  0.39291  1.0000
  C   C698      1.0  0.75434  0.19143  0.36490  1.0000
  C   C699      1.0  0.77274  0.19971  0.35548  1.0000
  H   H1183     1.0  0.81453  0.18901  0.41510  1.0000
  H   H1184     1.0  0.78215  0.17428  0.43106  1.0000
  H   H1185     1.0  0.73740  0.19227  0.35119  1.0000
  H   H1186     1.0  0.76979  0.20697  0.33506  1.0000
  C   C700      1.0  0.94445  0.10446  0.06507  1.0000
  C   C701      1.0  0.94619  0.09152  0.05526  1.0000
  C   C702      1.0  0.93267  0.08230  0.07328  1.0000
  C   C703      1.0  0.91733  0.08589  0.10167  1.0000
  C   C704      1.0  0.91543  0.09885  0.11126  1.0000
  C   C705      1.0  0.92890  0.10809  0.09313  1.0000
  H   H1187     1.0  0.75438  0.18953  0.46890  1.0000
  H   H1188     1.0  0.93394  0.07243  0.06499  1.0000
  H   H1189     1.0  0.90351  0.10176  0.13301  1.0000
  H   H1190     1.0  0.92727  0.11799  0.10094  1.0000
  C   C706      1.0  0.93253  0.18104  0.15468  1.0000
  C   C707      1.0  0.93381  0.18916  0.18539  1.0000
  C   C708      1.0  0.91322  0.19492  0.20033  1.0000
  C   C709      1.0  0.89103  0.19247  0.18498  1.0000
  C   C710      1.0  0.88976  0.18434  0.15434  1.0000
  C   C711      1.0  0.91038  0.17874  0.13906  1.0000
  H   H1191     1.0  0.95083  0.19097  0.19780  1.0000
  H   H1192     1.0  0.91448  0.20109  0.22402  1.0000
  C   C712      1.0  0.95656  0.98377  0.25390  1.0000
  H   H1193     1.0  0.96684  0.07848  0.19429  1.0000
  C   C713      1.0  0.81433  0.07997  0.47185  1.0000
  H   H1194     1.0  0.96928  0.03014  0.24982  1.0000
  C   C714      1.0  0.84917  0.08085  0.39268  1.0000
  C   C715      1.0  0.78310  0.07288  0.40464  1.0000
  H   H1195     1.0  0.74225  0.99131  0.34929  1.0000
  H   H1196     1.0  0.86380  0.07389  0.38745  1.0000
  S   S210      1.0  0.97286  0.17386  0.03248  1.0000
  C   C716      1.0  0.77710  0.06554  0.36913  1.0000
  H   H1197     1.0  0.70826  0.00467  0.33273  1.0000
  H   H1198     1.0  0.64922  0.10580  0.43609  1.0000
  S   S211      1.0  0.97355  0.02701  0.16433  1.0000
  S   S212      1.0  0.71021  0.14346  0.46250  1.0000
  N   N51       1.0  0.80401  0.08156  0.40286  1.0000
  C   C717      1.0  0.70239  0.98671  0.39630  1.0000
  H   H1199     1.0  0.76186  0.09209  0.36592  1.0000
  H   H1200     1.0  0.81430  0.09898  0.37638  1.0000
  H   H1201     1.0  0.82051  0.00622  0.04871  1.0000
  N   N52       1.0  0.74308  0.00618  0.30860  1.0000
  H   H1202     1.0  0.66610  0.11938  0.42408  1.0000
  H   H1203     1.0  0.51173  0.99889  0.41313  1.0000
  C   C718      1.0  0.75406  0.99472  0.32714  1.0000
  H   H1204     1.0  0.88117  0.00414  0.28153  1.0000
  H   H1205     1.0  0.75599  0.98664  0.30750  1.0000
  H   H1206     1.0  0.79221  0.15134  0.28307  1.0000
  H   H1207     1.0  0.76985  0.18590  0.27185  1.0000
  H   H1208     1.0  0.77259  0.98712  0.00283  1.0000
  C   C719      1.0  0.80066  0.09151  0.37370  1.0000
  H   H1209     1.0  0.75779  0.06367  0.36849  1.0000
  H   H1210     1.0  0.96623  0.05577  0.07723  1.0000
  H   H1211     1.0  0.78691  0.05633  0.36795  1.0000
  H   H1212     1.0  0.56249  0.23018  0.98541  1.0000
  H   H1213     1.0  0.74273  0.03255  0.28938  1.0000
  C   C720      1.0  0.91687  0.01061  0.29585  1.0000
  H   H1214     1.0  0.82620  0.00272  0.98118  1.0000
  C   C721      1.0  0.77644  0.09851  0.37378  1.0000
  H   H1215     1.0  0.96648  0.00798  0.24231  1.0000
  H   H1216     1.0  0.66758  0.08817  0.45289  1.0000
  H   H1217     1.0  0.98771  0.09925  0.11956  1.0000
  H   H1218     1.0  0.94036  0.02775  0.23184  1.0000
  H   H1219     1.0  0.77670  0.10622  0.35319  1.0000
  H   H1220     1.0  0.66146  0.01594  0.38030  1.0000
  H   H1221     1.0  0.49913  0.02147  0.40113  1.0000
  H   H1222     1.0  0.89608  0.99433  0.31581  1.0000
  C   C722      1.0  0.75264  0.00769  0.27037  1.0000
  H   H1223     1.0  0.64399  0.98634  0.44477  1.0000
  H   H1224     1.0  0.77177  0.16409  0.27201  1.0000
  H   H1225     1.0  0.78073  0.01708  0.24062  1.0000
  H   H1226     1.0  0.95795  0.08862  0.03329  1.0000
  H   H1227     1.0  0.91060  0.98664  0.20219  1.0000
  C   C723      1.0  0.96553  0.06392  0.14857  1.0000
  S   S213      1.0  0.82054  0.21941  0.25604  1.0000
  C   C724      1.0  0.90268  0.99354  0.22198  1.0000
  H   H1228     1.0  0.72921  0.20917  0.45523  1.0000
  C   C725      1.0  0.68075  0.98524  0.37762  1.0000
  C   C726      1.0  0.77462  0.21339  0.46788  1.0000
  C   C727      1.0  0.79941  0.21903  0.46249  1.0000
  H   H1229     1.0  0.89594  0.98839  0.24588  1.0000
  H   H1230     1.0  0.83925  0.99305  0.03808  1.0000
  N   N53       1.0  0.81835  0.17498  0.27892  1.0000
  C   C728      1.0  0.83347  0.18500  0.29651  1.0000
  C   C729      1.0  0.80488  0.18099  0.24765  1.0000
  C   C730      1.0  0.83340  0.16417  0.26408  1.0000
  C   C731      1.0  0.80175  0.16987  0.30737  1.0000
  C   C732      1.0  0.85022  0.18040  0.32727  1.0000
  C   C733      1.0  0.78499  0.19055  0.25845  1.0000
  C   C734      1.0  0.85350  0.16791  0.23788  1.0000
  C   C735      1.0  0.78355  0.16016  0.29351  1.0000
  H   H1231     1.0  0.84432  0.18995  0.27575  1.0000
  H   H1232     1.0  0.82226  0.19262  0.30885  1.0000
  H   H1233     1.0  0.79682  0.17364  0.22973  1.0000
  H   H1234     1.0  0.81713  0.18625  0.22949  1.0000
  H   H1235     1.0  0.84138  0.15851  0.28669  1.0000
  H   H1236     1.0  0.82236  0.15738  0.24839  1.0000
  H   H1237     1.0  0.81176  0.16502  0.32959  1.0000
  H   H1238     1.0  0.79181  0.17775  0.32107  1.0000
  H   H1239     1.0  0.86068  0.18858  0.33718  1.0000
  H   H1240     1.0  0.84033  0.17696  0.35134  1.0000
  H   H1241     1.0  0.86310  0.17308  0.31770  1.0000
  H   H1242     1.0  0.78486  0.98702  0.35550  1.0000
  H   H1243     1.0  0.77801  0.19515  0.23330  1.0000
  H   H1244     1.0  0.86677  0.17408  0.25118  1.0000
  H   H1245     1.0  0.84657  0.17261  0.21290  1.0000
  H   H1246     1.0  0.86315  0.15920  0.22866  1.0000
  H   H1247     1.0  0.49865  0.01838  0.44943  1.0000
  H   H1248     1.0  0.77202  0.15745  0.31676  1.0000
  N   N54       1.0  0.93234  0.00428  0.26718  1.0000
  C   C736      1.0  0.95482  0.01184  0.26443  1.0000
  S   S214      1.0  0.73789  0.06433  0.46698  1.0000
  C   C737      1.0  0.90448  0.10184  0.99332  1.0000
  C   C738      1.0  0.92021  0.00437  0.23035  1.0000
  N   N55       1.0  0.80683  0.98512  0.97689  1.0000
  H   H1249     1.0  0.94811  0.99161  0.30705  1.0000
  C   C739      1.0  0.97528  0.00059  0.16410  1.0000
  H   H1250     1.0  0.98186  0.19974  0.12850  1.0000
  H   H1251     1.0  0.68911  0.10931  0.47069  1.0000
  C   C740      1.0  0.70911  0.99131  0.28832  1.0000
  S   S215      1.0  0.97459  0.14647  0.99004  1.0000
  H   H1252     1.0  0.74152  0.01441  0.25402  1.0000
  H   H1253     1.0  0.83241  0.07591  0.46831  1.0000
  H   H1254     1.0  0.97475  0.98761  0.25495  1.0000
  H   H1255     1.0  0.98134  0.07868  0.09176  1.0000
  C   C741      1.0  0.49623  0.99293  0.40611  1.0000
  H   H1256     1.0  0.57788  0.98255  0.19513  1.0000
  H   H1257     1.0  0.96291  0.05354  0.15192  1.0000
  S   S216      1.0  0.49156  0.14920  0.43657  1.0000
  H   H1258     1.0  0.95027  0.98368  0.22520  1.0000
  H   H1259     1.0  0.73849  0.01639  0.35970  1.0000
  H   H1260     1.0  0.79110  0.22620  0.01614  1.0000
  H   H1261     1.0  0.84934  0.08777  0.36994  1.0000
  H   H1262     1.0  0.49319  0.99465  0.37662  1.0000
  H   H1263     1.0  0.76187  0.22156  0.46927  1.0000
  H   H1264     1.0  0.81982  0.23114  0.00611  1.0000
  H   H1265     1.0  0.96520  0.09097  0.14275  1.0000
  S   S217      1.0  0.79743  0.01488  0.45528  1.0000
  H   H1266     1.0  0.81913  0.09624  0.43759  1.0000
  H   H1267     1.0  0.93825  0.07358  0.18103  1.0000
  H   H1268     1.0  0.88618  0.99420  0.98945  1.0000
  C   C742      1.0  0.89746  0.11598  0.99809  1.0000
  C   C743      1.0  0.82062  0.99655  0.03629  1.0000
  H   H1269     1.0  0.77240  0.10300  0.40065  1.0000
  C   C744      1.0  0.73293  0.09035  0.46318  1.0000
  C   C745      1.0  0.73719  0.10304  0.47366  1.0000
  H   H1270     1.0  0.49869  0.99946  0.47438  1.0000
  H   H1271     1.0  0.92689  0.01176  0.32194  1.0000
  H   H1272     1.0  0.72904  0.11082  0.45889  1.0000
  H   H1273     1.0  0.61344  0.98518  0.43377  1.0000
  H   H1274     1.0  0.78934  0.09283  0.44751  1.0000
  H   H1275     1.0  0.76523  0.01978  0.33773  1.0000
  C   C746      1.0  0.98453  0.09092  0.13739  1.0000
  H   H1276     1.0  0.72100  0.08843  0.44069  1.0000
  H   H1277     1.0  0.79135  0.19822  0.27657  1.0000
  Fe  Fe108     1.0  0.75796  0.01783  0.44782  1.0000
  C   C747      1.0  0.77864  0.01170  0.26645  1.0000
  C   C748      1.0  0.98651  0.98881  0.17132  1.0000
  H   H1278     1.0  0.86736  0.13618  0.02052  1.0000
  H   H1279     1.0  0.88439  0.00964  0.32713  1.0000
  H   H1280     1.0  0.79064  0.00325  0.26523  1.0000
  H   H1281     1.0  0.89974  0.09669  0.01870  1.0000
  H   H1282     1.0  0.76688  0.07799  0.41418  1.0000
  H   H1283     1.0  0.79845  0.22618  0.44026  1.0000
  C   C749      1.0  0.95168  0.02611  0.25612  1.0000
  C   C750      1.0  0.77836  0.99642  0.34574  1.0000
  H   H1284     1.0  0.90570  0.14134  0.99613  1.0000
  C   C751      1.0  0.66589  0.99577  0.37164  1.0000
  C   C752      1.0  0.67281  0.00774  0.38490  1.0000
  C   C753      1.0  0.80645  0.08828  0.43929  1.0000
  C   C754      1.0  0.98569  0.05508  0.07418  1.0000
  C   C755      1.0  0.82567  0.07362  0.39404  1.0000
  H   H1285     1.0  0.80359  0.08745  0.34584  1.0000
  C   C756      1.0  0.71674  0.00407  0.30541  1.0000
  H   H1286     1.0  0.79515  0.22742  0.07541  1.0000
  C   C757      1.0  0.93947  0.99113  0.27963  1.0000
  H   H1287     1.0  0.64072  0.12148  0.45244  1.0000
  H   H1288     1.0  0.78467  0.01827  0.28803  1.0000
  H   H1289     1.0  0.79659  0.00399  0.99628  1.0000
  H   H1290     1.0  0.70797  0.01163  0.28886  1.0000
  H   H1291     1.0  0.96540  0.01108  0.29013  1.0000
  H   H1292     1.0  0.92384  0.10050  0.98976  1.0000
  S   S218      1.0  0.63940  0.99460  0.34574  1.0000
  H   H1293     1.0  0.95295  0.06680  0.12665  1.0000
  C   C758      1.0  0.65590  0.11495  0.44651  1.0000
  H   H1294     1.0  0.80893  0.99054  0.05298  1.0000
  C   C759      1.0  0.86395  0.02433  0.98770  1.0000
  H   H1295     1.0  0.78597  0.06548  0.42578  1.0000
  H   H1296     1.0  0.85320  0.08572  0.41887  1.0000
  H   H1297     1.0  0.71602  0.03014  0.31617  1.0000
  C   C760      1.0  0.73564  0.03032  0.31683  1.0000
  H   H1298     1.0  0.68943  0.99117  0.28710  1.0000
  H   H1299     1.0  0.78090  0.07084  0.34387  1.0000
  H   H1300     1.0  0.94456  0.03149  0.28000  1.0000
  H   H1301     1.0  0.81234  0.21165  0.45308  1.0000
  H   H1302     1.0  0.71343  0.19630  0.47349  1.0000
  H   H1303     1.0  0.95607  0.06304  0.20690  1.0000
  H   H1304     1.0  0.86326  0.14965  0.99181  1.0000
  H   H1305     1.0  0.71459  0.98307  0.30531  1.0000
  C   C761      1.0  0.86796  0.13935  0.99161  1.0000
  C   C762      1.0  0.81233  0.99750  0.99613  1.0000
  C   C763      1.0  0.49035  0.01357  0.31928  1.0000
  H   H1306     1.0  0.93696  0.12670  0.97795  1.0000
  H   H1307     1.0  0.98976  0.04573  0.06115  1.0000
  H   H1308     1.0  0.79694  0.18224  0.80464  1.0000
  Fe  Fe109     1.0  0.83304  0.20625  0.73430  1.0000
  S   S219      1.0  0.87119  0.21245  0.73520  1.0000
  S   S220      1.0  0.82137  0.19019  0.69557  1.0000
  H   H1309     1.0  0.88523  0.01790  0.73403  1.0000
  H   H1310     1.0  0.81901  0.02955  0.67363  1.0000
  N   N56       1.0  0.77117  0.20459  0.49996  1.0000
  Fe  Fe110     1.0  0.86896  0.21123  0.79688  1.0000
  S   S221      1.0  0.90200  0.20446  0.82828  1.0000
  C   C764      1.0  0.52178  0.16418  0.59125  1.0000
  S   S222      1.0  0.83211  0.20350  0.79559  1.0000
  H   H1311     1.0  0.75027  0.18557  0.81092  1.0000
  Fe  Fe111     1.0  0.72675  0.16607  0.54347  1.0000
  S   S223      1.0  0.75385  0.15858  0.50324  1.0000
  S   S224      1.0  0.73409  0.18178  0.58611  1.0000
  H   H1312     1.0  0.49950  0.17817  0.67055  1.0000
  H   H1313     1.0  0.70435  0.11833  0.57521  1.0000
  Fe  Fe112     1.0  0.73555  0.13968  0.50870  1.0000
  S   S225      1.0  0.75780  0.12151  0.51784  1.0000
  H   H1314     1.0  0.85447  0.04812  0.71250  1.0000
  S   S226      1.0  0.71017  0.14693  0.55213  1.0000
  C   C765      1.0  0.49937  0.18845  0.57426  1.0000
  H   H1315     1.0  0.72658  0.17172  0.71996  1.0000
  S   S227      1.0  0.70005  0.17139  0.49965  1.0000
  H   H1316     1.0  0.69079  0.09202  0.50917  1.0000
  H   H1317     1.0  0.85437  0.13435  0.97536  1.0000
  C   C766      1.0  0.72722  0.20410  0.78056  1.0000
  Fe  Fe113     1.0  0.79272  0.02599  0.50809  1.0000
  S   S228      1.0  0.81528  0.02018  0.55862  1.0000
  H   H1318     1.0  0.54867  0.15724  0.63076  1.0000
  S   S229      1.0  0.85845  0.99235  0.79604  1.0000
  S   S230      1.0  0.53988  0.16634  0.50202  1.0000
  S   S231      1.0  0.80442  0.99220  0.82305  1.0000
  H   H1319     1.0  0.81971  0.99187  0.92491  1.0000
  S   S232      1.0  0.80428  0.99580  0.71939  1.0000
  Fe  Fe114     1.0  0.83957  0.99550  0.84956  1.0000
  S   S233      1.0  0.84302  0.01331  0.88529  1.0000
  C   C767      1.0  0.81157  0.01281  0.60248  1.0000
  C   C768      1.0  0.83182  0.00875  0.62211  1.0000
  C   C769      1.0  0.83001  0.00324  0.65728  1.0000
  C   C770      1.0  0.80783  0.00188  0.67386  1.0000
  C   C771      1.0  0.78759  0.00595  0.65425  1.0000
  C   C772      1.0  0.78938  0.01130  0.61887  1.0000
  H   H1320     1.0  0.84910  0.00981  0.60988  1.0000
  H   H1321     1.0  0.93989  0.21405  0.77325  1.0000
  H   H1322     1.0  0.77031  0.00498  0.66655  1.0000
  H   H1323     1.0  0.77360  0.01437  0.60444  1.0000
  C   C773      1.0  0.75231  0.10568  0.50298  1.0000
  C   C774      1.0  0.76374  0.09548  0.52078  1.0000
  C   C775      1.0  0.75973  0.08278  0.51001  1.0000
  H   H1324     1.0  0.78088  0.20427  0.73540  1.0000
  S   S234      1.0  0.75297  0.02808  0.50186  1.0000
  H   H1325     1.0  0.81471  0.08597  0.49697  1.0000
  H   H1326     1.0  0.76835  0.07505  0.52442  1.0000
  C   C776      1.0  0.53222  0.18457  0.64934  1.0000
  H   H1327     1.0  0.79711  0.22208  0.95298  1.0000
  H   H1328     1.0  0.96748  0.21855  0.79446  1.0000
  C   C777      1.0  0.74421  0.08013  0.48120  1.0000
  C   C778      1.0  0.58861  0.16825  0.50765  1.0000
  C   C779      1.0  0.61234  0.16370  0.50821  1.0000
  H   H1329     1.0  0.83402  0.06024  0.72805  1.0000
  H   H1330     1.0  0.58503  0.17828  0.51179  1.0000
  H   H1331     1.0  0.62667  0.17021  0.51288  1.0000
  S   S235      1.0  0.81833  0.22617  0.73732  1.0000
  C   C780      1.0  0.79740  0.18824  0.66429  1.0000
  C   C781      1.0  0.78143  0.19811  0.65602  1.0000
  C   C782      1.0  0.76203  0.19590  0.63251  1.0000
  C   C783      1.0  0.75874  0.18393  0.61593  1.0000
  C   C784      1.0  0.77509  0.17417  0.62336  1.0000
  C   C785      1.0  0.79416  0.17630  0.64757  1.0000
  H   H1332     1.0  0.78415  0.20744  0.66761  1.0000
  H   H1333     1.0  0.74963  0.20356  0.62677  1.0000
  H   H1334     1.0  0.77291  0.16492  0.61080  1.0000
  H   H1335     1.0  0.80648  0.16861  0.65348  1.0000
  C   C786      1.0  0.91264  0.17792  0.92770  1.0000
  C   C787      1.0  0.93172  0.18430  0.91230  1.0000
  C   C788      1.0  0.92808  0.19238  0.88200  1.0000
  C   C789      1.0  0.90537  0.19425  0.86678  1.0000
  C   C790      1.0  0.88627  0.18792  0.88230  1.0000
  C   C791      1.0  0.88993  0.17978  0.91245  1.0000
  H   H1336     1.0  0.94929  0.18295  0.92356  1.0000
  H   H1337     1.0  0.94301  0.19718  0.87021  1.0000
  H   H1338     1.0  0.86872  0.18923  0.87094  1.0000
  H   H1339     1.0  0.87503  0.17492  0.92409  1.0000
  H   H1340     1.0  0.71015  0.18093  0.75251  1.0000
  H   H1341     1.0  0.86255  0.05818  0.74909  1.0000
  C   C792      1.0  0.78338  0.99802  0.92871  1.0000
  H   H1342     1.0  0.81597  0.04601  0.68824  1.0000
  H   H1343     1.0  0.62833  0.09053  0.54831  1.0000
  H   H1344     1.0  0.78931  0.00779  0.93514  1.0000
  H   H1345     1.0  0.53083  0.14480  0.61019  1.0000
  H   H1346     1.0  0.79077  0.03671  0.67867  1.0000
  C   C793      1.0  0.75367  0.21813  0.72362  1.0000
  C   C794      1.0  0.85463  0.02424  0.95176  1.0000
  C   C795      1.0  0.72834  0.17797  0.74443  1.0000
  H   H1347     1.0  0.74603  0.21346  0.69919  1.0000
  H   H1348     1.0  0.70824  0.10358  0.55181  1.0000
  H   H1349     1.0  0.92597  0.12862  0.89551  1.0000
  C   C796      1.0  0.79245  0.19588  0.50447  1.0000
  C   C797      1.0  0.53940  0.15406  0.60567  1.0000
  H   H1350     1.0  0.78522  0.22971  0.53997  1.0000
  C   C798      1.0  0.56954  0.16000  0.50161  1.0000
  H   H1351     1.0  0.87251  0.01883  0.77845  1.0000
  N   N57       1.0  0.90002  0.12420  0.96459  1.0000
  C   C799      1.0  0.74347  0.18947  0.73401  1.0000
  H   H1352     1.0  0.52350  0.19411  0.64898  1.0000
  H   H1353     1.0  0.96610  0.21529  0.74651  1.0000
  C   C800      1.0  0.67234  0.11224  0.54737  1.0000
  C   C801      1.0  0.86832  0.00259  0.94303  1.0000
  C   C802      1.0  0.87680  0.12829  0.90386  1.0000
  H   H1354     1.0  0.73334  0.19454  0.71233  1.0000
  H   H1355     1.0  0.80618  0.22388  0.48715  1.0000
  H   H1356     1.0  0.87026  0.99419  0.92602  1.0000
  C   C803      1.0  0.76277  0.19149  0.79512  1.0000
  C   C804      1.0  0.95628  0.21965  0.76986  1.0000
  H   H1357     1.0  0.86808  0.11519  0.94603  1.0000
  H   H1358     1.0  0.66690  0.10691  0.57204  1.0000
  H   H1359     1.0  0.79238  0.19261  0.56399  1.0000
  H   H1360     1.0  0.55319  0.15232  0.58442  1.0000
  H   H1361     1.0  0.73971  0.21054  0.83498  1.0000
  H   H1362     1.0  0.77733  0.17269  0.77934  1.0000
  C   C805      1.0  0.80310  0.98816  0.93699  1.0000
  H   H1363     1.0  0.66697  0.08766  0.53743  1.0000
  C   C806      1.0  0.78333  0.18262  0.78269  1.0000
  H   H1364     1.0  0.73650  0.17213  0.76627  1.0000
  Fe  Fe115     1.0  0.68533  0.15175  0.50535  1.0000
  S   S236      1.0  0.79981  0.04460  0.47934  1.0000
  H   H1365     1.0  0.51415  0.19348  0.58740  1.0000
  H   H1366     1.0  0.71589  0.20820  0.75854  1.0000
  H   H1367     1.0  0.54435  0.18413  0.67327  1.0000
  H   H1368     1.0  0.51313  0.16016  0.56652  1.0000
  H   H1369     1.0  0.76675  0.99606  0.94350  1.0000
  H   H1370     1.0  0.70714  0.11836  0.52673  1.0000
  H   H1371     1.0  0.93182  0.22578  0.82614  1.0000
  C   C807      1.0  0.76548  0.21197  0.53441  1.0000
  H   H1372     1.0  0.75054  0.21875  0.52959  1.0000
  N   N58       1.0  0.82915  0.03120  0.75350  1.0000
  C   C808      1.0  0.82378  0.02345  0.78712  1.0000
  C   C809      1.0  0.84836  0.02407  0.73282  1.0000
  C   C810      1.0  0.80674  0.03197  0.73090  1.0000
  C   C811      1.0  0.83671  0.04419  0.76605  1.0000
  C   C812      1.0  0.80239  0.02795  0.81039  1.0000
  C   C813      1.0  0.87287  0.02357  0.75152  1.0000
  C   C814      1.0  0.80880  0.03637  0.69085  1.0000
  C   C815      1.0  0.84736  0.05304  0.73699  1.0000
  H   H1373     1.0  0.82039  0.01340  0.77930  1.0000
  H   H1374     1.0  0.83914  0.02310  0.80618  1.0000
  H   H1375     1.0  0.85139  0.02797  0.70522  1.0000
  H   H1376     1.0  0.84295  0.01410  0.72756  1.0000
  H   H1377     1.0  0.79817  0.02252  0.72961  1.0000
  H   H1378     1.0  0.79354  0.03848  0.74409  1.0000
  H   H1379     1.0  0.82147  0.04953  0.77821  1.0000
  H   H1380     1.0  0.84964  0.04346  0.78907  1.0000
  H   H1381     1.0  0.80130  0.02182  0.83498  1.0000
  H   H1382     1.0  0.80426  0.03781  0.82053  1.0000
  H   H1383     1.0  0.78542  0.02686  0.79547  1.0000
  H   H1384     1.0  0.88050  0.03316  0.75466  1.0000
  C   C816      1.0  0.59831  0.14249  0.49715  1.0000
  H   H1385     1.0  0.77033  0.19838  0.81511  1.0000
  C   C817      1.0  0.69955  0.11307  0.54988  1.0000
  H   H1386     1.0  0.80919  0.20117  0.50667  1.0000
  H   H1387     1.0  0.71629  0.19664  0.79334  1.0000
  H   H1388     1.0  0.95283  0.13165  0.91904  1.0000
  H   H1389     1.0  0.74027  0.22272  0.80049  1.0000
  H   H1390     1.0  0.88881  0.13626  0.89869  1.0000
  H   H1391     1.0  0.87541  0.12296  0.87760  1.0000
  H   H1392     1.0  0.80835  0.18099  0.53784  1.0000
  C   C818      1.0  0.93324  0.13221  0.92172  1.0000
  H   H1393     1.0  0.77936  0.99776  0.89894  1.0000
  H   H1394     1.0  0.71288  0.21791  0.81960  1.0000
  H   H1395     1.0  0.60445  0.10165  0.54336  1.0000
  H   H1396     1.0  0.54394  0.18352  0.62531  1.0000
  H   H1397     1.0  0.84561  0.03263  0.94148  1.0000
  C   C819      1.0  0.85654  0.01334  0.92935  1.0000
  H   H1398     1.0  0.53276  0.17195  0.58058  1.0000
  H   H1399     1.0  0.76732  0.22474  0.71358  1.0000
  H   H1400     1.0  0.66506  0.12210  0.55084  1.0000
  C   C820      1.0  0.73055  0.21437  0.81047  1.0000
  H   H1401     1.0  0.79239  0.18576  0.75765  1.0000
  H   H1402     1.0  0.77559  0.09740  0.54337  1.0000
  Fe  Fe116     1.0  0.81970  0.22398  0.79873  1.0000
  H   H1403     1.0  0.66917  0.07472  0.48198  1.0000
  H   H1404     1.0  0.62799  0.10553  0.57345  1.0000
  H   H1405     1.0  0.52140  0.16628  0.66983  1.0000
  C   C821      1.0  0.76549  0.20856  0.75014  1.0000
  H   H1406     1.0  0.75967  0.18576  0.71998  1.0000
  H   H1407     1.0  0.77353  0.21416  0.77269  1.0000
  Fe  Fe117     1.0  0.50293  0.15823  0.48947  1.0000
  Fe  Fe118     1.0  0.82340  0.98750  0.77042  1.0000
  H   H1408     1.0  0.73992  0.22411  0.73719  1.0000
  H   H1409     1.0  0.84580  0.00009  0.67153  1.0000
  N   N59       1.0  0.74971  0.19839  0.76495  1.0000
  H   H1410     1.0  0.85869  0.13206  0.90944  1.0000
  H   H1411     1.0  0.89385  0.11071  0.92072  1.0000
  C   C822      1.0  0.67117  0.09260  0.51148  1.0000
  H   H1412     1.0  0.90979  0.22587  0.55787  1.0000
  H   H1413     1.0  0.75851  0.20566  0.55615  1.0000
  C   C823      1.0  0.53581  0.22956  0.94296  1.0000
  C   C824      1.0  0.78548  0.21994  0.55125  1.0000
  C   C825      1.0  0.88476  0.11895  0.93426  1.0000
  C   C826      1.0  0.51370  0.17404  0.65278  1.0000
  H   H1414     1.0  0.95522  0.22998  0.54679  1.0000
  H   H1415     1.0  0.49845  0.15001  0.64014  1.0000
  S   S237      1.0  0.78747  0.22814  0.83516  1.0000
  H   H1416     1.0  0.93180  0.11409  0.94657  1.0000
  H   H1417     1.0  0.60178  0.13248  0.49289  1.0000
  H   H1418     1.0  0.50567  0.18381  0.54858  1.0000
  N   N60       1.0  0.66271  0.10626  0.51285  1.0000
  C   C827      1.0  0.62395  0.10081  0.54700  1.0000
  H   H1419     1.0  0.96462  0.23093  0.85029  1.0000
  S   S238      1.0  0.91601  0.16734  0.96537  1.0000
  H   H1420     1.0  0.92874  0.14240  0.92584  1.0000
  C   C828      1.0  0.79215  0.18711  0.53802  1.0000
  H   H1421     1.0  0.92754  0.22866  0.49582  1.0000
  C   C829      1.0  0.57461  0.14706  0.49629  1.0000
  H   H1422     1.0  0.53704  0.23080  0.91285  1.0000
  N   N61       1.0  0.50320  0.16894  0.61783  1.0000
  C   C830      1.0  0.61741  0.15075  0.50310  1.0000
  H   H1423     1.0  0.77692  0.18064  0.53777  1.0000
  H   H1424     1.0  0.74549  0.19034  0.51506  1.0000
  C   C831      1.0  0.89303  0.13757  0.97555  1.0000
  S   S239      1.0  0.64695  0.14423  0.50509  1.0000
  H   H1425     1.0  0.89416  0.14421  0.95237  1.0000
  C   C832      1.0  0.66169  0.08452  0.47965  1.0000
  C   C833      1.0  0.63606  0.10736  0.51451  1.0000
  H   H1426     1.0  0.62767  0.10345  0.48948  1.0000
  H   H1427     1.0  0.63058  0.11757  0.51558  1.0000
  C   C834      1.0  0.92586  0.12387  0.95410  1.0000
  H   H1428     1.0  0.80332  0.21567  0.54786  1.0000
  H   H1429     1.0  0.56026  0.14056  0.49157  1.0000
  H   H1430     1.0  0.67643  0.12345  0.48820  1.0000
  H   H1431     1.0  0.89491  0.09721  0.97049  1.0000
  H   H1432     1.0  0.78287  0.22056  0.58137  1.0000
  H   H1433     1.0  0.88671  0.23028  0.49999  1.0000
  H   H1434     1.0  0.71985  0.20934  0.50290  1.0000
  C   C835      1.0  0.75016  0.19634  0.49138  1.0000
  H   H1435     1.0  0.53700  0.21923  0.94884  1.0000
  C   C836      1.0  0.67212  0.11352  0.48038  1.0000
  H   H1436     1.0  0.80174  0.07226  0.47720  1.0000
  S   S240      1.0  0.85650  0.23160  0.80362  1.0000
  H   H1437     1.0  0.90888  0.23031  0.79625  1.0000
  H   H1438     1.0  0.79479  0.18978  0.47977  1.0000
  H   H1439     1.0  0.64216  0.08373  0.48031  1.0000
  C   C837      1.0  0.72708  0.20341  0.48026  1.0000
  H   H1440     1.0  0.79125  0.37452  0.16255  1.0000
  H   H1441     1.0  0.79302  0.38503  0.03549  1.0000
  C   C838      1.0  0.88307  0.39700  0.45145  1.0000
  H   H1442     1.0  0.74254  0.23829  0.99305  1.0000
  H   H1443     1.0  0.78472  0.45258  0.46842  1.0000
  Fe  Fe119     1.0  0.78302  0.41844  0.01491  1.0000
  S   S241      1.0  0.78080  0.42583  0.07502  1.0000
  S   S242      1.0  0.75235  0.40577  0.99923  1.0000
  H   H1444     1.0  0.81021  0.46194  0.47530  1.0000
  S   S243      1.0  0.86333  0.45737  0.30975  1.0000
  H   H1445     1.0  0.65974  0.32656  0.02738  1.0000
  Fe  Fe120     1.0  0.79982  0.46464  0.34340  1.0000
  S   S244      1.0  0.81252  0.44476  0.32789  1.0000
  S   S245      1.0  0.76228  0.46762  0.36582  1.0000
  Fe  Fe121     1.0  0.84535  0.44977  0.35996  1.0000
  S   S246      1.0  0.86716  0.43665  0.39737  1.0000
  Fe  Fe122     1.0  0.82934  0.45387  0.27845  1.0000
  S   S247      1.0  0.83557  0.44646  0.21894  1.0000
  S   S248      1.0  0.83172  0.46893  0.37804  1.0000
  Fe  Fe123     1.0  0.68802  0.28644  0.99950  1.0000
  N   N62       1.0  0.78468  0.38577  0.11424  1.0000
  S   S249      1.0  0.54024  0.28817  0.01583  1.0000
  H   H1446     1.0  0.67540  0.43638  0.99733  1.0000
  C   C839      1.0  0.86693  0.43707  0.44605  1.0000
  H   H1447     1.0  0.76516  0.36014  0.12831  1.0000
  Fe  Fe124     1.0  0.72593  0.27760  0.05626  1.0000
  S   S250      1.0  0.75405  0.28979  0.03222  1.0000
  S   S251      1.0  0.73356  0.26276  0.10083  1.0000
  Fe  Fe125     1.0  0.72585  0.30503  0.02694  1.0000
  S   S252      1.0  0.72792  0.32606  0.04384  1.0000
  H   H1448     1.0  0.73848  0.39589  0.13784  1.0000
  S   S253      1.0  0.69816  0.29341  0.05571  1.0000
  H   H1449     1.0  0.77684  0.24035  0.19890  1.0000
  Fe  Fe126     1.0  0.84756  0.47620  0.32601  1.0000
  H   H1450     1.0  0.88120  0.46829  0.23858  1.0000
  S   S254      1.0  0.81691  0.25657  0.21936  1.0000
  C   C840      1.0  0.79142  0.23741  0.08339  1.0000
  C   C841      1.0  0.75881  0.33646  0.99323  1.0000
  H   H1451     1.0  0.76608  0.47594  0.44979  1.0000
  H   H1452     1.0  0.85527  0.37185  0.44043  1.0000
  C   C842      1.0  0.91167  0.25335  0.36797  1.0000
  C   C843      1.0  0.93390  0.25449  0.38509  1.0000
  C   C844      1.0  0.93747  0.26336  0.41372  1.0000
  C   C845      1.0  0.91899  0.27150  0.42480  1.0000
  C   C846      1.0  0.89679  0.27041  0.40751  1.0000
  C   C847      1.0  0.89299  0.26121  0.37993  1.0000
  H   H1453     1.0  0.88699  0.25788  0.47160  1.0000
  H   H1454     1.0  0.88232  0.27660  0.41598  1.0000
  H   H1455     1.0  0.87568  0.26034  0.36761  1.0000
  C   C848      1.0  0.75729  0.26113  0.13292  1.0000
  C   C849      1.0  0.75820  0.25037  0.15565  1.0000
  C   C850      1.0  0.77660  0.24861  0.18147  1.0000
  C   C851      1.0  0.79419  0.25774  0.18540  1.0000
  C   C852      1.0  0.79335  0.26848  0.16256  1.0000
  C   C853      1.0  0.77517  0.27012  0.13630  1.0000
  H   H1456     1.0  0.74448  0.24335  0.15338  1.0000
  C   C854      1.0  0.88852  0.47173  0.16331  1.0000
  H   H1457     1.0  0.80673  0.27565  0.16543  1.0000
  H   H1458     1.0  0.77473  0.27847  0.11918  1.0000
  C   C855      1.0  0.57095  0.28895  0.00319  1.0000
  H   H1459     1.0  0.79334  0.27365  0.01643  1.0000
  C   C856      1.0  0.61286  0.28707  0.02183  1.0000
  C   C857      1.0  0.58841  0.28740  0.03052  1.0000
  H   H1460     1.0  0.62590  0.28574  0.04324  1.0000
  H   H1461     1.0  0.58299  0.28630  0.05869  1.0000
  H   H1462     1.0  0.94855  0.24853  0.37599  1.0000
  H   H1463     1.0  0.81641  0.40905  0.16360  1.0000
  H   H1464     1.0  0.80505  0.40277  0.10331  1.0000
  H   H1465     1.0  0.82174  0.39035  0.12353  1.0000
  H   H1466     1.0  0.76701  0.25482  0.98599  1.0000
  C   C858      1.0  0.79651  0.43163  0.11456  1.0000
  C   C859      1.0  0.78365  0.43504  0.14635  1.0000
  C   C860      1.0  0.79512  0.43954  0.17838  1.0000
  C   C861      1.0  0.81980  0.44073  0.17934  1.0000
  C   C862      1.0  0.83267  0.43723  0.14761  1.0000
  C   C863      1.0  0.82120  0.43273  0.11559  1.0000
  H   H1467     1.0  0.76458  0.43429  0.14617  1.0000
  H   H1468     1.0  0.78483  0.44216  0.20228  1.0000
  H   H1469     1.0  0.85173  0.43805  0.14776  1.0000
  H   H1470     1.0  0.83150  0.43016  0.09165  1.0000
  C   C864      1.0  0.75089  0.24082  0.01961  1.0000
  H   H1471     1.0  0.57611  0.24683  0.02116  1.0000
  C   C865      1.0  0.75048  0.36151  0.01759  1.0000
  C   C866      1.0  0.73925  0.35121  0.03461  1.0000
  C   C867      1.0  0.74326  0.33863  0.02242  1.0000
  H   H1472     1.0  0.62795  0.47231  0.98327  1.0000
  H   H1473     1.0  0.65433  0.42368  0.00029  1.0000
  H   H1474     1.0  0.76593  0.25905  0.03282  1.0000
  H   H1475     1.0  0.77214  0.23925  0.08608  1.0000
  H   H1476     1.0  0.87290  0.40135  0.39540  1.0000
  C   C868      1.0  0.91754  0.46383  0.24963  1.0000
  H   H1477     1.0  0.82257  0.24562  0.06029  1.0000
  H   H1478     1.0  0.53104  0.23209  0.02556  1.0000
  C   C869      1.0  0.75736  0.36874  0.14161  1.0000
  C   C870      1.0  0.76476  0.39234  0.09390  1.0000
  H   H1479     1.0  0.79473  0.46214  0.43220  1.0000
  H   H1480     1.0  0.95467  0.26410  0.42654  1.0000
  C   C871      1.0  0.81141  0.26970  0.01291  1.0000
  H   H1481     1.0  0.76214  0.32685  0.98360  1.0000
  H   H1482     1.0  0.78557  0.40633  0.16783  1.0000
  H   H1483     1.0  0.80683  0.39472  0.18425  1.0000
  C   C872      1.0  0.57257  0.25375  0.99887  1.0000
  N   N63       1.0  0.88666  0.27634  0.25780  1.0000
  C   C873      1.0  0.90882  0.26820  0.25418  1.0000
  C   C874      1.0  0.86985  0.27225  0.22802  1.0000
  C   C875      1.0  0.87609  0.27377  0.29499  1.0000
  C   C876      1.0  0.89359  0.29005  0.25451  1.0000
  C   C877      1.0  0.92845  0.27065  0.28277  1.0000
  C   C878      1.0  0.87792  0.27452  0.18833  1.0000
  C   C879      1.0  0.84942  0.27662  0.30021  1.0000
  C   C880      1.0  0.87341  0.30006  0.25277  1.0000
  H   H1484     1.0  0.90441  0.25791  0.25566  1.0000
  H   H1485     1.0  0.91738  0.26949  0.22715  1.0000
  H   H1486     1.0  0.85222  0.27693  0.23051  1.0000
  H   H1487     1.0  0.86618  0.26196  0.23065  1.0000
  H   H1488     1.0  0.87833  0.26354  0.30200  1.0000
  H   H1489     1.0  0.88554  0.27912  0.31682  1.0000
  H   H1490     1.0  0.90466  0.29290  0.27835  1.0000
  H   H1491     1.0  0.90553  0.29150  0.23070  1.0000
  H   H1492     1.0  0.92195  0.27028  0.31129  1.0000
  H   H1493     1.0  0.94230  0.26308  0.28011  1.0000
  H   H1494     1.0  0.93722  0.27985  0.27810  1.0000
  H   H1495     1.0  0.89312  0.26830  0.18050  1.0000
  H   H1496     1.0  0.86315  0.27198  0.16963  1.0000
  H   H1497     1.0  0.88200  0.28462  0.18328  1.0000
  H   H1498     1.0  0.84494  0.27558  0.32963  1.0000
  H   H1499     1.0  0.83850  0.26963  0.28513  1.0000
  H   H1500     1.0  0.84411  0.28633  0.29215  1.0000
  H   H1501     1.0  0.86833  0.30333  0.28069  1.0000
  H   H1502     1.0  0.85749  0.29685  0.23800  1.0000
  H   H1503     1.0  0.87954  0.30839  0.23706  1.0000
  C   C881      1.0  0.80662  0.38078  0.05369  1.0000
  S   S255      1.0  0.92247  0.28317  0.45989  1.0000
  H   H1504     1.0  0.85481  0.40923  0.42846  1.0000
  H   H1505     1.0  0.90051  0.24418  0.44903  1.0000
  H   H1506     1.0  0.90316  0.43054  0.45053  1.0000
  H   H1507     1.0  0.89321  0.47732  0.27427  1.0000
  H   H1508     1.0  0.73639  0.24497  0.03664  1.0000
  C   C882      1.0  0.52996  0.25102  0.99973  1.0000
  C   C883      1.0  0.74827  0.40109  0.11654  1.0000
  H   H1509     1.0  0.85097  0.39248  0.41889  1.0000
  C   C884      1.0  0.80273  0.40158  0.16210  1.0000
  H   H1510     1.0  0.74700  0.37113  0.02682  1.0000
  H   H1511     1.0  0.73482  0.40536  0.09791  1.0000
  H   H1512     1.0  0.81470  0.37267  0.03825  1.0000
  H   H1513     1.0  0.87986  0.46490  0.18160  1.0000
  C   C885      1.0  0.79536  0.37577  0.08910  1.0000
  H   H1514     1.0  0.93308  0.46783  0.26401  1.0000
  C   C886      1.0  0.80303  0.24706  0.05784  1.0000
  H   H1515     1.0  0.54319  0.24475  0.05373  1.0000
  H   H1516     1.0  0.83068  0.44315  0.45099  1.0000
  C   C887      1.0  0.86408  0.40007  0.42227  1.0000
  H   H1517     1.0  0.79893  0.25651  0.07039  1.0000
  H   H1518     1.0  0.92281  0.45981  0.22271  1.0000
  H   H1519     1.0  0.61020  0.42869  0.99343  1.0000
  C   C888      1.0  0.77527  0.47265  0.47496  1.0000
  S   S256      1.0  0.71364  0.26963  0.00182  1.0000
  C   C889      1.0  0.80395  0.39509  0.12406  1.0000
  H   H1520     1.0  0.82135  0.27035  0.03904  1.0000
  H   H1521     1.0  0.71995  0.47327  0.40641  1.0000
  C   C890      1.0  0.65640  0.43394  0.99436  1.0000
  H   H1522     1.0  0.65206  0.46114  0.98362  1.0000
  H   H1523     1.0  0.56877  0.26297  0.01297  1.0000
  H   H1524     1.0  0.91143  0.45580  0.26658  1.0000
  H   H1525     1.0  0.72718  0.35299  0.05709  1.0000
  H   H1526     1.0  0.76816  0.38595  0.16796  1.0000
  C   C891      1.0  0.77603  0.37910  0.14799  1.0000
  N   N64       1.0  0.79566  0.24677  0.01812  1.0000
  S   S257      1.0  0.81447  0.47338  0.29230  1.0000
  S   S258      1.0  0.81036  0.40545  0.98814  1.0000
  H   H1527     1.0  0.70956  0.47880  0.30498  1.0000
  S   S259      1.0  0.83811  0.24121  0.31464  1.0000
  Fe  Fe127     1.0  0.83155  0.23987  0.25338  1.0000
  H   H1528     1.0  0.75335  0.38529  0.07990  1.0000
  H   H1529     1.0  0.61005  0.25819  0.99853  1.0000
  H   H1530     1.0  0.75784  0.40914  0.12877  1.0000
  H   H1531     1.0  0.80919  0.37008  0.10373  1.0000
  H   H1532     1.0  0.69122  0.34086  0.00845  1.0000
  H   H1533     1.0  0.64690  0.43955  0.01557  1.0000
  C   C892      1.0  0.77010  0.25097  0.01392  1.0000
  C   C893      1.0  0.62034  0.28824  0.98549  1.0000
  H   H1534     1.0  0.89414  0.40567  0.45288  1.0000
  H   H1535     1.0  0.51209  0.24356  0.04732  1.0000
  H   H1536     1.0  0.82081  0.38771  0.05893  1.0000
  C   C894      1.0  0.76622  0.35931  0.98860  1.0000
  H   H1537     1.0  0.77187  0.39831  0.07161  1.0000
  H   H1538     1.0  0.92446  0.47557  0.18032  1.0000
  C   C895      1.0  0.52944  0.24226  0.03335  1.0000
  H   H1539     1.0  0.61469  0.45077  0.00201  1.0000
  H   H1540     1.0  0.75670  0.23205  0.03352  1.0000
  S   S260      1.0  0.90876  0.24275  0.32998  1.0000
  C   C896      1.0  0.89717  0.47368  0.24626  1.0000
  Fe  Fe128     1.0  0.87541  0.23513  0.30207  1.0000
  H   H1541     1.0  0.75045  0.36565  0.16853  1.0000
  H   H1542     1.0  0.52798  0.26098  0.00993  1.0000
  H   H1543     1.0  0.87475  0.47750  0.14906  1.0000
  H   H1544     1.0  0.78184  0.36888  0.07981  1.0000
  H   H1545     1.0  0.74199  0.37222  0.12548  1.0000
  S   S261      1.0  0.86977  0.23507  0.24079  1.0000
  H   H1546     1.0  0.67932  0.36512  0.98475  1.0000
  H   H1547     1.0  0.89481  0.38938  0.43987  1.0000
  C   C897      1.0  0.84648  0.44033  0.46571  1.0000
  C   C898      1.0  0.90677  0.48034  0.18233  1.0000
  H   H1548     1.0  0.89776  0.46566  0.14266  1.0000
  H   H1549     1.0  0.85239  0.48119  0.20075  1.0000
  H   H1550     1.0  0.86927  0.24521  0.45482  1.0000
  H   H1551     1.0  0.83360  0.38027  0.46830  1.0000
  H   H1552     1.0  0.79894  0.23865  0.11130  1.0000
  C   C899      1.0  0.81109  0.25599  0.99784  1.0000
  H   H1553     1.0  0.90601  0.47842  0.33957  1.0000
  H   H1554     1.0  0.82984  0.25252  0.99699  1.0000
  H   H1555     1.0  0.51339  0.24924  0.98443  1.0000
  Fe  Fe129     1.0  0.50198  0.28866  0.99261  1.0000
  C   C900      1.0  0.79257  0.46195  0.46240  1.0000
  C   C901      1.0  0.84950  0.37405  0.46885  1.0000
  C   C902      1.0  0.88719  0.43302  0.46546  1.0000
  C   C903      1.0  0.80080  0.23377  0.00206  1.0000
  C   C904      1.0  0.66618  0.32603  0.99868  1.0000
  C   C905      1.0  0.59634  0.25520  0.97852  1.0000
  C   C906      1.0  0.88642  0.24744  0.46816  1.0000
  H   H1556     1.0  0.82050  0.27586  0.99291  1.0000
  H   H1557     1.0  0.67957  0.31822  0.99796  1.0000
  C   C907      1.0  0.67683  0.33898  0.98834  1.0000
  H   H1558     1.0  0.65083  0.32346  0.98140  1.0000
  H   H1559     1.0  0.66279  0.34622  0.99421  1.0000
  Fe  Fe130     1.0  0.74101  0.28235  0.97783  1.0000
  H   H1560     1.0  0.71332  0.33322  0.88501  1.0000
  Fe  Fe131     1.0  0.80381  0.41650  0.93595  1.0000
  S   S262      1.0  0.83208  0.42395  0.89632  1.0000
  S   S263      1.0  0.77489  0.40378  0.91688  1.0000
  C   C908      1.0  0.89953  0.35845  0.68327  1.0000
  S   S264      1.0  0.56440  0.44777  0.85252  1.0000
  C   C909      1.0  0.70225  0.32895  0.94197  1.0000
  H   H1561     1.0  0.95760  0.44646  0.68945  1.0000
  S   S265      1.0  0.61606  0.46815  0.80302  1.0000
  Fe  Fe132     1.0  0.88896  0.42143  0.60937  1.0000
  S   S266      1.0  0.92289  0.41155  0.59351  1.0000
  S   S267      1.0  0.86417  0.43283  0.57170  1.0000
  Fe  Fe133     1.0  0.88970  0.41011  0.68810  1.0000
  S   S268      1.0  0.92410  0.39948  0.67679  1.0000
  S   S269      1.0  0.86523  0.40485  0.73631  1.0000
  Fe  Fe134     1.0  0.93574  0.41763  0.64952  1.0000
  S   S270      1.0  0.97465  0.42339  0.65123  1.0000
  Fe  Fe135     1.0  0.90918  0.39419  0.62179  1.0000
  S   S271      1.0  0.90502  0.37460  0.59437  1.0000
  S   S272      1.0  0.90227  0.42863  0.66411  1.0000
  S   S273      1.0  0.87426  0.40379  0.63423  1.0000
  C   C910      1.0  0.91840  0.39054  0.50864  1.0000
  S   S274      1.0  0.86803  0.24994  0.71123  1.0000
  H   H1562     1.0  0.51561  0.47386  0.96656  1.0000
  S   S275      1.0  0.66813  0.47478  0.87748  1.0000
  S   S276      1.0  0.77039  0.27709  0.93707  1.0000
  Fe  Fe136     1.0  0.96859  0.30485  0.56210  1.0000
  S   S277      1.0  0.97121  0.32455  0.58961  1.0000
  C   C911      1.0  0.63520  0.46363  0.96961  1.0000
  C   C912      1.0  0.97656  0.44706  0.68590  1.0000
  Fe  Fe137     1.0  0.96701  0.27601  0.57675  1.0000
  S   S278      1.0  0.96041  0.25929  0.61510  1.0000
  S   S279      1.0  0.93946  0.29039  0.55970  1.0000
  H   H1563     1.0  0.86384  0.36936  0.64032  1.0000
  H   H1564     1.0  0.87017  0.23614  0.57506  1.0000
  H   H1565     1.0  0.90923  0.36670  0.67218  1.0000
  H   H1566     1.0  0.92354  0.37579  0.72122  1.0000
  H   H1567     1.0  0.88813  0.27327  0.52554  1.0000
  H   H1568     1.0  0.71470  0.35204  0.96688  1.0000
  C   C913      1.0  0.89328  0.25207  0.68316  1.0000
  C   C914      1.0  0.91032  0.24246  0.67783  1.0000
  C   C915      1.0  0.93077  0.24482  0.65694  1.0000
  C   C916      1.0  0.93419  0.25673  0.64061  1.0000
  C   C917      1.0  0.91690  0.26624  0.64529  1.0000
  C   C918      1.0  0.89663  0.26393  0.66659  1.0000
  N   N65       1.0  0.90972  0.24349  0.52778  1.0000
  H   H1569     1.0  0.95232  0.25548  0.83185  1.0000
  H   H1570     1.0  0.91933  0.27546  0.63306  1.0000
  C   C919      1.0  0.78284  0.24191  0.86291  1.0000
  C   C920      1.0  0.76154  0.24332  0.88264  1.0000
  C   C921      1.0  0.75731  0.25402  0.90535  1.0000
  C   C922      1.0  0.77435  0.26348  0.90845  1.0000
  C   C923      1.0  0.79561  0.26206  0.88870  1.0000
  C   C924      1.0  0.79987  0.25136  0.86610  1.0000
  H   H1571     1.0  0.87463  0.26044  0.54918  1.0000
  H   H1572     1.0  0.74085  0.25499  0.92030  1.0000
  H   H1573     1.0  0.80890  0.26932  0.89084  1.0000
  H   H1574     1.0  0.81631  0.25043  0.85109  1.0000
  C   C925      1.0  0.92405  0.36093  0.59268  1.0000
  C   C926      1.0  0.91633  0.34999  0.57404  1.0000
  C   C927      1.0  0.93051  0.33882  0.57253  1.0000
  C   C928      1.0  0.95262  0.33842  0.58983  1.0000
  C   C929      1.0  0.96032  0.34937  0.60847  1.0000
  C   C930      1.0  0.94619  0.36056  0.60984  1.0000
  H   H1575     1.0  0.89923  0.35012  0.56071  1.0000
  H   H1576     1.0  0.92428  0.33049  0.55815  1.0000
  H   H1577     1.0  0.92693  0.25899  0.55587  1.0000
  H   H1578     1.0  0.95241  0.36887  0.62434  1.0000
  C   C931      1.0  0.86628  0.43505  0.52357  1.0000
  H   H1579     1.0  0.55316  0.26873  0.95342  1.0000
  H   H1580     1.0  0.94767  0.25546  0.72427  1.0000
  H   H1581     1.0  0.95264  0.26680  0.76094  1.0000
  C   C932      1.0  0.84616  0.43933  0.50421  1.0000
  H   H1582     1.0  0.90280  0.42922  0.51856  1.0000
  H   H1583     1.0  0.90439  0.38582  0.74872  1.0000
  H   H1584     1.0  0.83003  0.44153  0.51900  1.0000
  C   C933      1.0  0.70392  0.43636  0.90448  1.0000
  C   C934      1.0  0.71212  0.44764  0.92006  1.0000
  C   C935      1.0  0.70123  0.45935  0.91101  1.0000
  C   C936      1.0  0.68209  0.45991  0.88634  1.0000
  C   C937      1.0  0.67454  0.44868  0.86970  1.0000
  C   C938      1.0  0.68531  0.43697  0.87893  1.0000
  H   H1585     1.0  0.72643  0.44731  0.93976  1.0000
  H   H1586     1.0  0.70735  0.46801  0.92375  1.0000
  H   H1587     1.0  0.66029  0.44901  0.84989  1.0000
  C   C939      1.0  0.84129  0.41834  0.85208  1.0000
  C   C940      1.0  0.83184  0.40748  0.83564  1.0000
  C   C941      1.0  0.83941  0.40356  0.80037  1.0000
  C   C942      1.0  0.85650  0.41041  0.78083  1.0000
  C   C943      1.0  0.86589  0.42129  0.79721  1.0000
  C   C944      1.0  0.85834  0.42519  0.83253  1.0000
  H   H1588     1.0  0.81880  0.40205  0.85020  1.0000
  H   H1589     1.0  0.83197  0.39513  0.78815  1.0000
  H   H1590     1.0  0.87904  0.42667  0.78276  1.0000
  H   H1591     1.0  0.86584  0.43360  0.84484  1.0000
  H   H1592     1.0  0.67377  0.33322  0.86897  1.0000
  H   H1593     1.0  0.59551  0.26274  0.95749  1.0000
  C   C945      1.0  0.52357  0.43455  0.86506  1.0000
  C   C946      1.0  0.53411  0.44432  0.84497  1.0000
  C   C947      1.0  0.52044  0.45099  0.81941  1.0000
  C   C948      1.0  0.90882  0.23630  0.56332  1.0000
  H   H1594     1.0  0.53405  0.42926  0.88468  1.0000
  H   H1595     1.0  0.52838  0.45840  0.80338  1.0000
  N   N66       1.0  0.87447  0.39344  0.48919  1.0000
  H   H1596     1.0  0.65596  0.33067  0.92548  1.0000
  H   H1597     1.0  0.80542  0.25684  0.96877  1.0000
  H   H1598     1.0  0.66034  0.44410  0.94330  1.0000
  C   C949      1.0  0.64821  0.43698  0.95498  1.0000
  H   H1599     1.0  0.49167  0.42392  0.87515  1.0000
  Fe  Fe138     1.0  0.58310  0.46615  0.83768  1.0000
  H   H1600     1.0  0.85730  0.37838  0.72065  1.0000
  C   C950      1.0  0.88795  0.24068  0.50533  1.0000
  C   C951      1.0  0.57846  0.29038  0.96694  1.0000
  C   C952      1.0  0.84379  0.35467  0.74365  1.0000
  S   S280      1.0  0.97921  0.30151  0.50338  1.0000
  H   H1601     1.0  0.71271  0.32655  0.96691  1.0000
  H   H1602     1.0  0.91828  0.38005  0.51129  1.0000
  H   H1603     1.0  0.56544  0.29168  0.94551  1.0000
  H   H1604     1.0  0.77173  0.47822  0.54772  1.0000
  H   H1605     1.0  0.74823  0.23608  0.88038  1.0000
  H   H1606     1.0  0.92899  0.34556  0.67136  1.0000
  S   S281      1.0  0.59963  0.47462  0.88809  1.0000
  H   H1607     1.0  0.89043  0.35438  0.65891  1.0000
  H   H1608     1.0  0.51190  0.26431  0.94146  1.0000
  H   H1609     1.0  0.84938  0.35700  0.77198  1.0000
  H   H1610     1.0  0.69186  0.32033  0.93526  1.0000
  H   H1611     1.0  0.61224  0.42125  0.95008  1.0000
  H   H1612     1.0  0.93387  0.24433  0.48148  1.0000
  H   H1613     1.0  0.88890  0.39363  0.54435  1.0000
  H   H1614     1.0  0.93776  0.23313  0.73736  1.0000
  H   H1615     1.0  0.78249  0.34490  0.95431  1.0000
  H   H1616     1.0  0.97731  0.34919  0.62215  1.0000
  C   C953      1.0  0.91811  0.34843  0.69541  1.0000
  H   H1617     1.0  0.91823  0.25905  0.79488  1.0000
  H   H1618     1.0  0.80803  0.23748  0.94362  1.0000
  C   C954      1.0  0.88713  0.23870  0.58811  1.0000
  H   H1619     1.0  0.83882  0.36547  0.66891  1.0000
  C   C955      1.0  0.52565  0.25977  0.92394  1.0000
  H   H1620     1.0  0.68334  0.34929  0.87786  1.0000
  H   H1621     1.0  0.67915  0.42830  0.86625  1.0000
  S   S282      1.0  0.78148  0.37177  0.96654  1.0000
  H   H1622     1.0  0.92444  0.23853  0.58067  1.0000
  H   H1623     1.0  0.93106  0.39398  0.52960  1.0000
  H   H1624     1.0  0.84451  0.38155  0.65753  1.0000
  C   C956      1.0  0.91264  0.37620  0.74629  1.0000
  H   H1625     1.0  0.63659  0.42740  0.88427  1.0000
  C   C957      1.0  0.72095  0.33037  0.91157  1.0000
  H   H1626     1.0  0.88043  0.36942  0.76794  1.0000
  C   C958      1.0  0.89369  0.36580  0.74777  1.0000
  H   H1627     1.0  0.56328  0.25660  0.92288  1.0000
  H   H1628     1.0  0.88355  0.27143  0.67055  1.0000
  C   C959      1.0  0.66942  0.34231  0.88331  1.0000
  H   H1629     1.0  0.73005  0.32104  0.90727  1.0000
  H   H1630     1.0  0.84341  0.36514  0.48173  1.0000
  H   H1631     1.0  0.77705  0.23535  0.95416  1.0000
  H   H1632     1.0  0.90144  0.35724  0.76126  1.0000
  H   H1633     1.0  0.98953  0.23453  0.82122  1.0000
  H   H1634     1.0  0.57132  0.23611  0.94314  1.0000
  H   H1635     1.0  0.97915  0.46526  0.71316  1.0000
  C   C960      1.0  0.68518  0.36463  0.95582  1.0000
  C   C961      1.0  0.60727  0.43040  0.96372  1.0000
  H   H1636     1.0  0.61639  0.43592  0.85582  1.0000
  C   C962      1.0  0.86873  0.37421  0.69871  1.0000
  H   H1637     1.0  0.88600  0.37390  0.48239  1.0000
  H   H1638     1.0  0.70777  0.35372  0.92044  1.0000
  H   H1639     1.0  0.83274  0.34605  0.74542  1.0000
  H   H1640     1.0  0.88142  0.38184  0.69203  1.0000
  H   H1641     1.0  0.79970  0.46080  0.53583  1.0000
  C   C963      1.0  0.86513  0.35174  0.71840  1.0000
  C   C964      1.0  0.58035  0.43258  0.95874  1.0000
  H   H1642     1.0  0.94400  0.23738  0.65334  1.0000
  H   H1643     1.0  0.85500  0.40346  0.55912  1.0000
  C   C965      1.0  0.92310  0.23424  0.81401  1.0000
  N   N67       1.0  0.50490  0.47783  0.91058  1.0000
  H   H1644     1.0  0.89617  0.40704  0.51802  1.0000
  H   H1645     1.0  0.83219  0.36238  0.73300  1.0000
  S   S283      1.0  0.97868  0.27102  0.51921  1.0000
  H   H1646     1.0  0.52751  0.26602  0.89977  1.0000
  H   H1647     1.0  0.92562  0.39324  0.48165  1.0000
  H   H1648     1.0  0.63068  0.45089  0.90049  1.0000
  H   H1649     1.0  0.60492  0.42548  0.88921  1.0000
  H   H1650     1.0  0.89483  0.27047  0.57241  1.0000
  H   H1651     1.0  0.51925  0.25056  0.91368  1.0000
  H   H1652     1.0  0.97831  0.47983  0.63175  1.0000
  C   C966      1.0  0.79534  0.23226  0.96088  1.0000
  H   H1653     1.0  0.82296  0.48071  0.48126  1.0000
  H   H1654     1.0  0.73490  0.33714  0.91982  1.0000
  H   H1655     1.0  0.60834  0.29092  0.93002  1.0000
  Fe  Fe139     1.0  0.95214  0.28593  0.50218  1.0000
  H   H1656     1.0  0.63898  0.46617  0.94087  1.0000
  C   C967      1.0  0.87009  0.37939  0.49165  1.0000
  C   C968      1.0  0.66481  0.34002  0.92430  1.0000
  H   H1657     1.0  0.83796  0.39985  0.48016  1.0000
  Fe  Fe140     1.0  0.75013  0.41706  0.94711  1.0000
  H   H1658     1.0  0.60032  0.44830  0.90712  1.0000
  C   C969      1.0  0.80630  0.47016  0.54500  1.0000
  H   H1659     1.0  0.57521  0.43368  0.92960  1.0000
  C   C970      1.0  0.60289  0.28997  0.95823  1.0000
  H   H1660     1.0  0.66984  0.36581  0.93714  1.0000
  N   N68       1.0  0.62265  0.44098  0.95058  1.0000
  H   H1661     1.0  0.85807  0.34801  0.69202  1.0000
  H   H1662     1.0  0.82602  0.40479  0.54078  1.0000
  H   H1663     1.0  0.85684  0.41159  0.49649  1.0000
  S   S284      1.0  0.71537  0.42127  0.91724  1.0000
  C   C971      1.0  0.85290  0.40134  0.49926  1.0000
  C   C972      1.0  0.91320  0.25751  0.53455  1.0000
  C   C973      1.0  0.98885  0.45770  0.69935  1.0000
  C   C974      1.0  0.61804  0.44378  0.91078  1.0000
  C   C975      1.0  0.84304  0.39943  0.53811  1.0000
  H   H1664     1.0  0.53146  0.45528  0.92689  1.0000
  C   C976      1.0  0.93923  0.26094  0.74685  1.0000
  H   H1665     1.0  0.94148  0.48049  0.59214  1.0000
  Fe  Fe141     1.0  0.63132  0.47786  0.85267  1.0000
  N   N69       1.0  0.77365  0.44299  0.83233  1.0000
  C   C977      1.0  0.77303  0.45397  0.85928  1.0000
  C   C978      1.0  0.75514  0.44585  0.80361  1.0000
  C   C979      1.0  0.79791  0.44256  0.81505  1.0000
  C   C980      1.0  0.76892  0.43097  0.85323  1.0000
  C   C981      1.0  0.79344  0.45440  0.88741  1.0000
  C   C982      1.0  0.72936  0.44631  0.81739  1.0000
  C   C983      1.0  0.80174  0.43350  0.78220  1.0000
  C   C984      1.0  0.76257  0.41893  0.83098  1.0000
  H   H1666     1.0  0.77309  0.46325  0.84471  1.0000
  H   H1667     1.0  0.75638  0.45401  0.87559  1.0000
  H   H1668     1.0  0.75556  0.43895  0.78070  1.0000
  H   H1669     1.0  0.75875  0.45513  0.79035  1.0000
  H   H1670     1.0  0.80282  0.45221  0.80555  1.0000
  H   H1671     1.0  0.81156  0.43974  0.83554  1.0000
  H   H1672     1.0  0.78447  0.42835  0.87037  1.0000
  H   H1673     1.0  0.75446  0.43254  0.87355  1.0000
  H   H1674     1.0  0.78940  0.46184  0.90829  1.0000
  H   H1675     1.0  0.79580  0.44532  0.90213  1.0000
  H   H1676     1.0  0.81044  0.45698  0.87441  1.0000
  H   H1677     1.0  0.71725  0.44788  0.79381  1.0000
  H   H1678     1.0  0.72431  0.43723  0.83011  1.0000
  H   H1679     1.0  0.72606  0.45429  0.83677  1.0000
  H   H1680     1.0  0.82046  0.43419  0.77318  1.0000
  H   H1681     1.0  0.79081  0.43610  0.75814  1.0000
  H   H1682     1.0  0.79934  0.42344  0.78956  1.0000
  H   H1683     1.0  0.77712  0.41174  0.83306  1.0000
  H   H1684     1.0  0.75890  0.42040  0.80169  1.0000
  H   H1685     1.0  0.74647  0.41460  0.84280  1.0000
  H   H1686     1.0  0.87470  0.34353  0.73088  1.0000
  H   H1687     1.0  0.91017  0.24856  0.75895  1.0000
  H   H1688     1.0  0.90989  0.33969  0.70584  1.0000
  H   H1689     1.0  0.65068  0.34680  0.93353  1.0000
  C   C985      1.0  0.89128  0.26562  0.54590  1.0000
  H   H1690     1.0  0.87135  0.24315  0.51983  1.0000
  N   N70       1.0  0.88180  0.36256  0.71203  1.0000
  H   H1691     1.0  0.92537  0.37483  0.76917  1.0000
  C   C986      1.0  0.85318  0.37233  0.66442  1.0000
  H   H1692     1.0  0.93044  0.35232  0.71614  1.0000
  C   C987      1.0  0.92572  0.25246  0.77386  1.0000
  H   H1693     1.0  0.88885  0.23252  0.61252  1.0000
  N   N71       1.0  0.93997  0.24184  0.79126  1.0000
  C   C988      1.0  0.88699  0.43218  0.50401  1.0000
  H   H1694     1.0  0.57384  0.44093  0.97465  1.0000
  C   C989      1.0  0.89377  0.39660  0.51626  1.0000
  C   C990      1.0  0.61919  0.43235  0.88410  1.0000
  H   H1695     1.0  0.95858  0.24689  0.54121  1.0000
  C   C991      1.0  0.61703  0.45288  0.97245  1.0000
  H   H1696     1.0  0.86802  0.37627  0.52056  1.0000
  H   H1697     1.0  0.92641  0.26766  0.73395  1.0000
  C   C992      1.0  0.55623  0.23639  0.96268  1.0000
  H   H1698     1.0  0.83949  0.38934  0.54405  1.0000
  H   H1699     1.0  0.88646  0.24857  0.59874  1.0000
  H   H1700     1.0  0.55330  0.46624  0.91019  1.0000
  C   C993      1.0  0.49956  0.43149  0.85974  1.0000
  H   H1701     1.0  0.80781  0.46963  0.57528  1.0000
  H   H1702     1.0  0.69684  0.37291  0.95157  1.0000
  C   C994      1.0  0.95466  0.23789  0.52686  1.0000
  H   H1703     1.0  0.65222  0.42824  0.93875  1.0000
  C   C995      1.0  0.52373  0.47560  0.93937  1.0000
  C   C996      1.0  0.93078  0.23846  0.50625  1.0000
  H   H1704     1.0  0.92062  0.26207  0.50976  1.0000
  N   N72       1.0  0.68592  0.34015  0.94959  1.0000
  H   H1705     1.0  0.90061  0.23440  0.86204  1.0000
  S   S285      1.0  0.71495  0.29856  0.97081  1.0000
  H   H1706     1.0  0.55179  0.46275  0.95753  1.0000
  H   H1707     1.0  0.65317  0.34646  0.87070  1.0000
  H   H1708     1.0  0.60267  0.24615  0.96607  1.0000
  C   C997      1.0  0.95029  0.23365  0.76085  1.0000
  H   H1709     1.0  0.89833  0.24873  0.83677  1.0000
  H   H1710     1.0  0.82445  0.47169  0.53465  1.0000
  C   C998      1.0  0.69947  0.35236  0.94755  1.0000
  H   H1711     1.0  0.49814  0.45862  0.89226  1.0000
  H   H1712     1.0  0.76127  0.46818  0.49175  1.0000
  H   H1713     1.0  0.51792  0.23250  0.95215  1.0000
  Fe  Fe142     1.0  0.85642  0.23222  0.74186  1.0000
  H   H1714     1.0  0.98204  0.24407  0.86089  1.0000
  C   C999      1.0  0.54964  0.25886  0.94401  1.0000
  C   C1000     1.0  0.54082  0.46426  0.93266  1.0000
  C   C1001     1.0  0.91108  0.24134  0.84622  1.0000
  H   H1715     1.0  0.95904  0.47669  0.55270  1.0000
  S   S286      1.0  0.77868  0.43050  0.96401  1.0000
  H   H1716     1.0  0.49061  0.47465  0.83364  1.0000
  C   C1002     1.0  0.95931  0.24770  0.81391  1.0000
  H   H1717     1.0  0.97206  0.25263  0.79592  1.0000
  C   C1003     1.0  0.98891  0.43715  0.66831  1.0000
  C   C1004     1.0  0.51736  0.47991  0.87469  1.0000
  C   C1005     1.0  0.49653  0.44786  0.81387  1.0000
  H   H1718     1.0  0.95704  0.46566  0.59046  1.0000
  H   H1719     1.0  0.57089  0.42416  0.96910  1.0000
  H   H1720     1.0  0.52806  0.47142  0.86668  1.0000
  H   H1721     1.0  0.92411  0.24547  0.86540  1.0000
  H   H1722     1.0  0.59969  0.45708  0.96385  1.0000
  H   H1723     1.0  0.96919  0.23608  0.50693  1.0000
  C   C1006     1.0  0.78880  0.48099  0.53517  1.0000
  C   C1007     1.0  0.97463  0.23865  0.83744  1.0000
  C   C1008     1.0  0.95823  0.47583  0.58288  1.0000
  H   H1724     1.0  0.90776  0.23323  0.68993  1.0000
  Fe  Fe143     1.0  0.77935  0.39350  0.97031  1.0000
  S   S287      1.0  0.65091  0.28715  0.97217  1.0000
  H   H1725     1.0  0.96667  0.23791  0.74966  1.0000
  N   N73       1.0  0.55164  0.24981  0.97581  1.0000
  C   C1009     1.0  0.77030  0.34673  0.97664  1.0000
  C   C1010     1.0  0.53054  0.63120  0.14114  1.0000
  S   S288      1.0  0.53158  0.56945  0.10111  1.0000
  S   S289      1.0  0.53305  0.51709  0.17846  1.0000
  Fe  Fe144     1.0  0.52819  0.55098  0.13408  1.0000
  S   S290      1.0  0.56234  0.53983  0.14023  1.0000
  H   H1726     1.0  0.52521  0.69248  0.06912  1.0000
  Fe  Fe145     1.0  0.54236  0.52284  0.12060  1.0000
  S   S291      1.0  0.56111  0.50899  0.08082  1.0000
  Fe  Fe146     1.0  0.55091  0.53502  0.19760  1.0000
  S   S292      1.0  0.58046  0.53766  0.24094  1.0000
  C   C1011     1.0  0.73490  0.65908  0.34891  1.0000
  S   S293      1.0  0.51791  0.54733  0.19260  1.0000
  Fe  Fe147     1.0  0.63102  0.52463  0.44714  1.0000
  S   S294      1.0  0.65985  0.53797  0.43262  1.0000
  S   S295      1.0  0.60083  0.52055  0.40676  1.0000
  H   H1727     1.0  0.76052  0.67620  0.31244  1.0000
  H   H1728     1.0  0.70189  0.51308  0.35340  1.0000
  H   H1729     1.0  0.93233  0.50329  0.18747  1.0000
  H   H1730     1.0  0.84226  0.49585  0.22045  1.0000
  Fe  Fe148     1.0  0.58528  0.71190  0.24157  1.0000
  S   S296      1.0  0.62275  0.71911  0.23877  1.0000
  S   S297      1.0  0.57596  0.69479  0.20557  1.0000
  Fe  Fe149     1.0  0.62073  0.72009  0.30051  1.0000
  S   S298      1.0  0.65150  0.71553  0.33930  1.0000
  S   S299      1.0  0.58463  0.71147  0.30336  1.0000
  H   H1731     1.0  0.66762  0.52987  0.30734  1.0000
  S   S300      1.0  0.95184  0.64949  0.43676  1.0000
  C   C1012     1.0  0.71947  0.69372  0.32622  1.0000
  C   C1013     1.0  0.57986  0.55271  0.44507  1.0000
  S   S301      1.0  0.98664  0.56793  0.38600  1.0000
  H   H1732     1.0  0.64863  0.51458  0.36974  1.0000
  C   C1014     1.0  0.49508  0.63930  0.22898  1.0000
  C   C1015     1.0  0.49709  0.58663  0.12683  1.0000
  H   H1733     1.0  0.67839  0.51079  0.25846  1.0000
  H   H1734     1.0  0.55778  0.56182  0.33734  1.0000
  H   H1735     1.0  0.49289  0.49095  0.98144  1.0000
  H   H1736     1.0  0.57380  0.67681  0.05341  1.0000
  C   C1016     1.0  0.65464  0.70135  0.36508  1.0000
  C   C1017     1.0  0.64181  0.69046  0.35660  1.0000
  C   C1018     1.0  0.64578  0.67916  0.37634  1.0000
  C   C1019     1.0  0.66238  0.67864  0.40503  1.0000
  C   C1020     1.0  0.67481  0.68961  0.41416  1.0000
  C   C1021     1.0  0.67115  0.70085  0.39396  1.0000
  H   H1737     1.0  0.62911  0.69068  0.33442  1.0000
  H   H1738     1.0  0.63603  0.67074  0.36912  1.0000
  H   H1739     1.0  0.68735  0.68939  0.43651  1.0000
  H   H1740     1.0  0.68110  0.70924  0.40079  1.0000
  C   C1022     1.0  0.50805  0.68816  0.13851  1.0000
  C   C1023     1.0  0.52665  0.67925  0.13825  1.0000
  C   C1024     1.0  0.54726  0.68145  0.15898  1.0000
  C   C1025     1.0  0.54955  0.69257  0.18015  1.0000
  C   C1026     1.0  0.53098  0.70152  0.18030  1.0000
  C   C1027     1.0  0.51034  0.69930  0.15958  1.0000
  H   H1741     1.0  0.52519  0.67069  0.12202  1.0000
  H   H1742     1.0  0.56161  0.67453  0.15854  1.0000
  H   H1743     1.0  0.53248  0.71011  0.19651  1.0000
  H   H1744     1.0  0.49605  0.70627  0.15996  1.0000
  C   C1028     1.0  0.73040  0.50505  0.41127  1.0000
  C   C1029     1.0  0.71900  0.49352  0.41662  1.0000
  C   C1030     1.0  0.70452  0.48905  0.30581  1.0000
  C   C1031     1.0  0.75151  0.50513  0.39090  1.0000
  C   C1032     1.0  0.60153  0.55708  0.42305  1.0000
  H   H1745     1.0  0.64753  0.48535  0.37608  1.0000
  C   C1033     1.0  0.58585  0.53253  0.28681  1.0000
  C   C1034     1.0  0.60690  0.53622  0.30449  1.0000
  C   C1035     1.0  0.61182  0.53267  0.34101  1.0000
  C   C1036     1.0  0.59582  0.52523  0.36039  1.0000
  C   C1037     1.0  0.57491  0.52145  0.34264  1.0000
  C   C1038     1.0  0.56990  0.52508  0.30620  1.0000
  H   H1746     1.0  0.61937  0.54200  0.28985  1.0000
  H   H1747     1.0  0.62788  0.53576  0.35418  1.0000
  H   H1748     1.0  0.56235  0.51571  0.35723  1.0000
  H   H1749     1.0  0.55366  0.52214  0.29314  1.0000
  H   H1750     1.0  0.62434  0.49575  0.35810  1.0000
  C   C1039     1.0  0.71093  0.65287  0.35736  1.0000
  C   C1040     1.0  0.75979  0.67763  0.34268  1.0000
  H   H1751     1.0  0.62346  0.53325  0.97910  1.0000
  H   H1752     1.0  0.94921  0.48257  0.34167  1.0000
  C   C1041     1.0  0.56220  0.54571  0.04054  1.0000
  C   C1042     1.0  0.85660  0.66326  0.46970  1.0000
  C   C1043     1.0  0.55996  0.50757  0.03228  1.0000
  C   C1044     1.0  0.57736  0.50012  0.01427  1.0000
  H   H1753     1.0  0.53911  0.55823  0.00679  1.0000
  H   H1754     1.0  0.53459  0.59160  0.05603  1.0000
  C   C1045     1.0  0.73978  0.68815  0.41357  1.0000
  C   C1046     1.0  0.54284  0.51391  0.01120  1.0000
  H   H1755     1.0  0.59062  0.49513  0.03029  1.0000
  H   H1756     1.0  0.89235  0.51831  0.32506  1.0000
  H   H1757     1.0  0.52912  0.51948  0.02468  1.0000
  C   C1047     1.0  0.59778  0.59384  0.42200  1.0000
  H   H1758     1.0  0.67145  0.50540  0.39067  1.0000
  C   C1048     1.0  0.94535  0.50286  0.33578  1.0000
  C   C1049     1.0  0.93678  0.49042  0.33874  1.0000
  Fe  Fe150     1.0  0.97157  0.66777  0.44812  1.0000
  C   C1050     1.0  0.89616  0.49805  0.33169  1.0000
  C   C1051     1.0  0.90469  0.51051  0.32940  1.0000
  C   C1052     1.0  0.92913  0.51292  0.33176  1.0000
  C   C1053     1.0  0.83258  0.66663  0.46330  1.0000
  C   C1054     1.0  0.65836  0.50535  0.36779  1.0000
  H   H1759     1.0  0.93549  0.52251  0.32901  1.0000
  C   C1055     1.0  0.60967  0.55386  0.07678  1.0000
  H   H1760     1.0  0.49964  0.65175  0.14170  1.0000
  H   H1761     1.0  0.97796  0.58123  0.29912  1.0000
  H   H1762     1.0  0.51152  0.66633  0.23237  1.0000
  H   H1763     1.0  0.72603  0.69994  0.34828  1.0000
  H   H1764     1.0  0.59619  0.60021  0.44630  1.0000
  H   H1765     1.0  0.70283  0.49330  0.43244  1.0000
  H   H1766     1.0  0.93653  0.58463  0.43537  1.0000
  H   H1767     1.0  0.94459  0.50828  0.23015  1.0000
  S   S302      1.0  0.97630  0.50510  0.33183  1.0000
  C   C1056     1.0  0.92846  0.50436  0.21705  1.0000
  C   C1057     1.0  0.76132  0.49379  0.37635  1.0000
  H   H1768     1.0  0.77769  0.49399  0.36098  1.0000
  S   S303      1.0  0.50877  0.53410  0.11121  1.0000
  C   C1058     1.0  0.65264  0.50533  0.30155  1.0000
  H   H1769     1.0  0.94168  0.61644  0.45002  1.0000
  C   C1059     1.0  0.92395  0.61765  0.46293  1.0000
  H   H1770     1.0  0.88108  0.50038  0.19817  1.0000
  C   C1060     1.0  0.66180  0.50551  0.26185  1.0000
  H   H1771     1.0  0.76186  0.68799  0.34697  1.0000
  S   S304      1.0  0.71938  0.51957  0.42988  1.0000
  H   H1772     1.0  0.87057  0.66859  0.45699  1.0000
  C   C1061     1.0  0.98157  0.60548  0.41425  1.0000
  H   H1773     1.0  0.74687  0.66809  0.41246  1.0000
  H   H1774     1.0  0.56698  0.68408  0.99123  1.0000
  H   H1775     1.0  0.58347  0.54296  0.45535  1.0000
  C   C1062     1.0  0.52311  0.69799  0.04376  1.0000
  H   H1776     1.0  0.52405  0.54846  0.03843  1.0000
  H   H1777     1.0  0.91497  0.62041  0.40489  1.0000
  C   C1063     1.0  0.52064  0.59344  0.07567  1.0000
  H   H1778     1.0  0.57686  0.57983  0.36619  1.0000
  C   C1064     1.0  0.55123  0.68448  0.00942  1.0000
  C   C1065     1.0  0.68007  0.52794  0.33020  1.0000
  H   H1779     1.0  0.71188  0.64268  0.34928  1.0000
  H   H1780     1.0  0.61574  0.56315  0.06652  1.0000
  C   C1066     1.0  0.90722  0.62249  0.43224  1.0000
  C   C1067     1.0  0.51341  0.71121  0.05519  1.0000
  C   C1068     1.0  0.52852  0.65054  0.20024  1.0000
  H   H1781     1.0  0.52856  0.65515  0.25913  1.0000
  H   H1782     1.0  0.73880  0.65718  0.31945  1.0000
  H   H1783     1.0  0.62407  0.55005  0.09452  1.0000
  C   C1069     1.0  0.51513  0.58406  0.10152  1.0000
  H   H1784     1.0  0.50865  0.69308  0.02869  1.0000
  Fe  Fe151     1.0  0.69496  0.65887  0.47123  1.0000
  N   N74       1.0  0.67090  0.50394  0.33144  1.0000
  H   H1785     1.0  0.55027  0.72678  0.43668  1.0000
  H   H1786     1.0  0.59406  0.55524  0.09471  1.0000
  H   H1787     1.0  0.66414  0.49571  0.25089  1.0000
  H   H1788     1.0  0.69527  0.53440  0.32682  1.0000
  S   S305      1.0  0.50248  0.65452  0.05953  1.0000
  H   H1789     1.0  0.50458  0.71606  0.03188  1.0000
  H   H1790     1.0  0.85249  0.48354  0.24971  1.0000
  N   N75       1.0  0.73642  0.67312  0.35730  1.0000
  H   H1791     1.0  0.60590  0.56170  0.99399  1.0000
  H   H1792     1.0  0.69966  0.67949  0.35466  1.0000
  C   C1070     1.0  0.63992  0.49511  0.37654  1.0000
  H   H1793     1.0  0.73905  0.68785  0.44388  1.0000
  C   C1071     1.0  0.91230  0.48804  0.33739  1.0000
  H   H1794     1.0  0.49966  0.71004  0.07662  1.0000
  H   H1795     1.0  0.57541  0.57005  0.05446  1.0000
  H   H1796     1.0  0.58744  0.70068  0.09022  1.0000
  N   N76       1.0  0.54551  0.69793  0.02130  1.0000
  S   S306      1.0  0.97821  0.68408  0.40821  1.0000
  H   H1797     1.0  0.54441  0.64448  0.20627  1.0000
  C   C1072     1.0  0.59745  0.57992  0.43494  1.0000
  H   H1798     1.0  0.61461  0.59623  0.40831  1.0000
  H   H1799     1.0  0.62254  0.54410  0.03000  1.0000
  H   H1800     1.0  0.60353  0.53479  0.05748  1.0000
  H   H1801     1.0  0.61194  0.57868  0.45530  1.0000
  H   H1802     1.0  0.60581  0.54956  0.40250  1.0000
  H   H1803     1.0  0.69589  0.65721  0.34213  1.0000
  C   C1073     1.0  0.56840  0.70121  0.08266  1.0000
  H   H1804     1.0  0.53323  0.65589  0.17523  1.0000
  N   N77       1.0  0.90149  0.48465  0.22094  1.0000
  H   H1805     1.0  0.92098  0.49358  0.26501  1.0000
  H   H1806     1.0  0.64095  0.51381  0.30595  1.0000
  H   H1807     1.0  0.56061  0.69227  0.09196  1.0000
  H   H1808     1.0  0.56087  0.53585  0.05116  1.0000
  C   C1074     1.0  0.58546  0.53719  0.99004  1.0000
  H   H1809     1.0  0.58411  0.52759  0.00222  1.0000
  C   C1075     1.0  0.58723  0.56013  0.00237  1.0000
  H   H1810     1.0  0.54227  0.67409  0.05995  1.0000
  H   H1811     1.0  0.57317  0.55062  0.36512  1.0000
  C   C1076     1.0  0.60553  0.54440  0.04515  1.0000
  H   H1812     1.0  0.56519  0.71435  0.03859  1.0000
  H   H1813     1.0  0.78382  0.66108  0.35116  1.0000
  C   C1077     1.0  0.57730  0.57078  0.38170  1.0000
  C   C1078     1.0  0.57922  0.57187  0.02538  1.0000
  S   S307      1.0  0.66772  0.66390  0.42717  1.0000
  S   S308      1.0  0.86560  0.49540  0.32399  1.0000
  H   H1814     1.0  0.88889  0.61909  0.43320  1.0000
  C   C1079     1.0  0.78218  0.67124  0.35906  1.0000
  H   H1815     1.0  0.61666  0.55687  0.44250  1.0000
  C   C1080     1.0  0.90632  0.59582  0.45733  1.0000
  C   C1081     1.0  0.88064  0.49383  0.22193  1.0000
  H   H1816     1.0  0.58274  0.59616  0.40361  1.0000
  C   C1082     1.0  0.57450  0.56016  0.35276  1.0000
  H   H1817     1.0  0.53629  0.68062  0.99318  1.0000
  H   H1818     1.0  0.58316  0.70078  0.02800  1.0000
  H   H1819     1.0  0.76047  0.51400  0.38659  1.0000
  N   N78       1.0  0.59921  0.56992  0.40526  1.0000
  H   H1820     1.0  0.64867  0.51067  0.24453  1.0000
  C   C1083     1.0  0.62059  0.57190  0.38137  1.0000
  H   H1821     1.0  0.79808  0.67598  0.34809  1.0000
  Fe  Fe152     1.0  0.50061  0.52956  0.17023  1.0000
  C   C1084     1.0  0.54031  0.70553  0.98717  1.0000
  C   C1085     1.0  0.64449  0.57320  0.40153  1.0000
  H   H1822     1.0  0.73162  0.69426  0.30243  1.0000
  H   H1823     1.0  0.58899  0.56016  0.33235  1.0000
  H   H1824     1.0  0.50036  0.62396  0.16863  1.0000
  H   H1825     1.0  0.74834  0.65355  0.36473  1.0000
  H   H1826     1.0  0.61815  0.58043  0.36385  1.0000
  H   H1827     1.0  0.62297  0.56380  0.36189  1.0000
  H   H1828     1.0  0.53601  0.62151  0.13197  1.0000
  H   H1829     1.0  0.70210  0.69776  0.31730  1.0000
  H   H1830     1.0  0.67175  0.53055  0.35664  1.0000
  H   H1831     1.0  0.82654  0.49310  0.42851  1.0000
  H   H1832     1.0  0.63555  0.72353  0.98323  1.0000
  C   C1086     1.0  0.68942  0.51411  0.32996  1.0000
  H   H1833     1.0  0.65874  0.57453  0.38104  1.0000
  H   H1834     1.0  0.64492  0.58153  0.42021  1.0000
  H   H1835     1.0  0.64924  0.56456  0.41709  1.0000
  H   H1836     1.0  0.52021  0.63539  0.11831  1.0000
  H   H1837     1.0  0.51263  0.61227  0.05480  1.0000
  C   C1087     1.0  0.73462  0.67482  0.39826  1.0000
  H   H1838     1.0  0.91141  0.58547  0.40601  1.0000
  H   H1839     1.0  0.96836  0.59298  0.37202  1.0000
  H   H1840     1.0  0.72625  0.69520  0.40496  1.0000
  H   H1841     1.0  0.78298  0.67220  0.38928  1.0000
  H   H1842     1.0  0.58081  0.57889  0.45083  1.0000
  H   H1843     1.0  0.92994  0.59903  0.41020  1.0000
  H   H1844     1.0  0.75779  0.69138  0.40667  1.0000
  H   H1845     1.0  0.70081  0.51319  0.30541  1.0000
  C   C1088     1.0  0.97949  0.59367  0.39603  1.0000
  C   C1089     1.0  0.55672  0.67480  0.03973  1.0000
  H   H1846     1.0  0.91413  0.51153  0.22142  1.0000
  N   N79       1.0  0.58505  0.54725  0.01978  1.0000
  C   C1090     1.0  0.56617  0.70381  0.04110  1.0000
  C   C1091     1.0  0.71605  0.67979  0.33793  1.0000
  H   H1847     1.0  0.52727  0.71737  0.06682  1.0000
  H   H1848     1.0  0.56325  0.57643  0.01309  1.0000
  H   H1849     1.0  0.56361  0.55210  0.42820  1.0000
  H   H1850     1.0  0.71153  0.67475  0.31197  1.0000
  H   H1851     1.0  0.54694  0.63665  0.14553  1.0000
  H   H1852     1.0  0.71666  0.67237  0.40811  1.0000
  H   H1853     1.0  0.56091  0.70924  0.09904  1.0000
  H   H1854     1.0  0.70693  0.65312  0.38695  1.0000
  C   C1092     1.0  0.92218  0.59109  0.42557  1.0000
  C   C1093     1.0  0.52743  0.66013  0.23246  1.0000
  H   H1855     1.0  0.56099  0.57105  0.39878  1.0000
  H   H1856     1.0  0.52619  0.62443  0.19625  1.0000
  S   S309      1.0  0.72455  0.64496  0.45815  1.0000
  C   C1094     1.0  0.50819  0.60519  0.07488  1.0000
  H   H1857     1.0  0.71997  0.49406  0.31759  1.0000
  H   H1858     1.0  0.88961  0.59926  0.44479  1.0000
  Fe  Fe153     1.0  0.68426  0.52352  0.45881  1.0000
  S   S310      1.0  0.78398  0.66478  0.47088  1.0000
  H   H1859     1.0  0.50804  0.63468  0.24791  1.0000
  C   C1095     1.0  0.53922  0.54866  0.01910  1.0000
  H   H1860     1.0  0.90591  0.63302  0.43397  1.0000
  H   H1861     1.0  0.49265  0.57955  0.14691  1.0000
  H   H1862     1.0  0.63303  0.49679  0.40465  1.0000
  H   H1863     1.0  0.63997  0.49735  0.30238  1.0000
  H   H1864     1.0  0.53650  0.71566  0.99409  1.0000
  H   H1865     1.0  0.79900  0.48529  0.42136  1.0000
  H   H1866     1.0  0.56155  0.55162  0.06553  1.0000
  H   H1867     1.0  0.54300  0.66645  0.23099  1.0000
  C   C1096     1.0  0.51550  0.63006  0.17626  1.0000
  H   H1868     1.0  0.53564  0.54144  0.99772  1.0000
  H   H1869     1.0  0.97231  0.61379  0.40398  1.0000
  N   N80       1.0  0.50703  0.64243  0.19333  1.0000
  C   C1097     1.0  0.68242  0.49086  0.33020  1.0000
  H   H1870     1.0  0.55868  0.66523  0.02693  1.0000
  H   H1871     1.0  0.59323  0.57916  0.02482  1.0000
  C   C1098     1.0  0.92291  0.49155  0.23527  1.0000
  H   H1872     1.0  0.70153  0.49213  0.27730  1.0000
  H   H1873     1.0  0.57657  0.55882  0.46941  1.0000
  S   S311      1.0  0.65568  0.50956  0.47056  1.0000
  H   H1874     1.0  0.88154  0.50001  0.24684  1.0000
  Fe  Fe154     1.0  0.97909  0.64051  0.47417  1.0000
  H   H1875     1.0  0.79963  0.50176  0.43584  1.0000
  H   H1876     1.0  0.82841  0.67458  0.44573  1.0000
  C   C1099     1.0  0.80815  0.49226  0.43896  1.0000
  H   H1877     1.0  0.66946  0.48356  0.32147  1.0000
  S   S312      1.0  0.56878  0.73137  0.23865  1.0000
  H   H1878     1.0  0.68832  0.48791  0.35800  1.0000
  H   H1879     1.0  0.90113  0.58731  0.47328  1.0000
  H   H1880     1.0  0.93927  0.48560  0.23257  1.0000
  C   C1100     1.0  0.85570  0.48809  0.22297  1.0000
  Fe  Fe155     1.0  0.57079  0.73166  0.30046  1.0000
  H   H1881     1.0  0.49697  0.73003  0.45412  1.0000
  C   C1101     1.0  0.75007  0.48224  0.38195  1.0000
  H   H1882     1.0  0.76527  0.49744  0.46298  1.0000
  H   H1883     1.0  0.90851  0.48869  0.16412  1.0000
  H   H1884     1.0  0.67960  0.73164  0.01478  1.0000
  H   H1885     1.0  0.64129  0.72879  0.04121  1.0000
  H   H1886     1.0  0.98963  0.70545  0.36371  1.0000
  C   C1102     1.0  0.72875  0.48218  0.40186  1.0000
  H   H1887     1.0  0.74879  0.65816  0.61596  1.0000
  C   C1103     1.0  0.81090  0.68010  0.59989  1.0000
  S   S313      1.0  0.61859  0.49757  0.83661  1.0000
  Fe  Fe156     1.0  0.58551  0.49326  0.86864  1.0000
  S   S314      1.0  0.56284  0.50621  0.90596  1.0000
  H   H1888     1.0  0.50487  0.64046  0.87837  1.0000
  S   S315      1.0  0.59803  0.49741  0.73121  1.0000
  Fe  Fe157     1.0  0.65160  0.51970  0.52534  1.0000
  S   S316      1.0  0.68202  0.53290  0.51449  1.0000
  S   S317      1.0  0.65393  0.50941  0.58121  1.0000
  H   H1889     1.0  0.77610  0.50369  0.50484  1.0000
  H   H1890     1.0  0.69093  0.54496  0.63444  1.0000
  H   H1891     1.0  0.49070  0.49158  0.84481  1.0000
  S   S318      1.0  0.62449  0.53353  0.50284  1.0000
  C   C1104     1.0  0.78354  0.68440  0.66974  1.0000
  H   H1892     1.0  0.79458  0.48966  0.55020  1.0000
  C   C1105     1.0  0.56167  0.50612  0.95462  1.0000
  S   S319      1.0  0.62404  0.71963  0.74853  1.0000
  Fe  Fe158     1.0  0.57237  0.70821  0.81025  1.0000
  S   S320      1.0  0.60877  0.69922  0.81139  1.0000
  S   S321      1.0  0.54112  0.70429  0.84877  1.0000
  Fe  Fe159     1.0  0.62191  0.71942  0.81002  1.0000
  Fe  Fe160     1.0  0.60811  0.70029  0.74948  1.0000
  S   S322      1.0  0.61620  0.68493  0.70606  1.0000
  H   H1893     1.0  0.95444  0.70282  0.69083  1.0000
  S   S323      1.0  0.57028  0.70763  0.74847  1.0000
  H   H1894     1.0  0.50406  0.70081  0.90086  1.0000
  S   S324      1.0  0.95727  0.64442  0.52454  1.0000
  Fe  Fe161     1.0  0.71466  0.63550  0.51098  1.0000
  S   S325      1.0  0.74017  0.64733  0.54420  1.0000
  H   H1895     1.0  0.95485  0.71948  0.73759  1.0000
  C   C1106     1.0  0.66772  0.58013  0.50145  1.0000
  S   S326      1.0  0.71907  0.67214  0.50086  1.0000
  H   H1896     1.0  0.61069  0.54596  0.95146  1.0000
  H   H1897     1.0  0.90783  0.61611  0.53168  1.0000
  Fe  Fe162     1.0  0.70952  0.66126  0.55148  1.0000
  S   S327      1.0  0.70624  0.67359  0.60348  1.0000
  H   H1898     1.0  0.84802  0.63837  0.52634  1.0000
  S   S328      1.0  0.68348  0.64865  0.52233  1.0000
  H   H1899     1.0  0.96941  0.60271  0.53436  1.0000
  H   H1900     1.0  0.94184  0.60750  0.55443  1.0000
  C   C1107     1.0  0.66921  0.53121  0.65957  1.0000
  H   H1901     1.0  0.57670  0.56047  0.97654  1.0000
  C   C1108     1.0  0.76435  0.65651  0.63378  1.0000
  H   H1902     1.0  0.64086  0.57655  0.67830  1.0000
  C   C1109     1.0  0.64148  0.68207  0.67780  1.0000
  C   C1110     1.0  0.63994  0.67313  0.64909  1.0000
  C   C1111     1.0  0.65940  0.67053  0.62583  1.0000
  C   C1112     1.0  0.68084  0.67676  0.63124  1.0000
  C   C1113     1.0  0.68237  0.68574  0.65988  1.0000
  C   C1114     1.0  0.66281  0.68845  0.68288  1.0000
  H   H1903     1.0  0.62358  0.66810  0.64492  1.0000
  H   H1904     1.0  0.65791  0.66357  0.60407  1.0000
  H   H1905     1.0  0.69885  0.69061  0.66443  1.0000
  H   H1906     1.0  0.66433  0.69533  0.70487  1.0000
  C   C1115     1.0  0.53473  0.69131  0.87793  1.0000
  C   C1116     1.0  0.51497  0.69227  0.90132  1.0000
  H   H1907     1.0  0.53481  0.48419  0.94289  1.0000
  C   C1117     1.0  0.52316  0.67125  0.92617  1.0000
  C   C1118     1.0  0.54285  0.67024  0.90268  1.0000
  C   C1119     1.0  0.54871  0.68023  0.87888  1.0000
  C   C1120     1.0  0.76852  0.49500  0.49210  1.0000
  H   H1908     1.0  0.92609  0.62558  0.48294  1.0000
  H   H1909     1.0  0.60776  0.56042  0.60440  1.0000
  H   H1910     1.0  0.56396  0.67932  0.86107  1.0000
  H   H1911     1.0  0.51825  0.71321  0.59160  1.0000
  C   C1121     1.0  0.81399  0.65984  0.47937  1.0000
  H   H1912     1.0  0.96854  0.69708  0.73115  1.0000
  N   N81       1.0  0.65455  0.55064  0.62225  1.0000
  C   C1122     1.0  0.69855  0.60115  0.50780  1.0000
  H   H1913     1.0  0.58249  0.72320  0.58247  1.0000
  H   H1914     1.0  0.60608  0.72074  0.67463  1.0000
  H   H1915     1.0  0.66182  0.70618  0.57158  1.0000
  C   C1123     1.0  0.68509  0.56687  0.59921  1.0000
  Fe  Fe163     1.0  0.58625  0.72697  0.74918  1.0000
  C   C1124     1.0  0.90053  0.60853  0.51365  1.0000
  C   C1125     1.0  0.61393  0.50044  0.68952  1.0000
  C   C1126     1.0  0.63720  0.49614  0.68342  1.0000
  C   C1127     1.0  0.64886  0.49880  0.65005  1.0000
  C   C1128     1.0  0.63759  0.50583  0.62205  1.0000
  C   C1129     1.0  0.61435  0.51018  0.62816  1.0000
  C   C1130     1.0  0.60269  0.50750  0.66153  1.0000
  C   C1131     1.0  0.61321  0.55156  0.59022  1.0000
  N   N82       1.0  0.78608  0.67527  0.60397  1.0000
  H   H1916     1.0  0.60527  0.51557  0.60717  1.0000
  H   H1917     1.0  0.58469  0.51087  0.66566  1.0000
  H   H1918     1.0  0.64335  0.55152  0.67881  1.0000
  H   H1919     1.0  0.61923  0.55377  0.56209  1.0000
  C   C1132     1.0  0.65110  0.55782  0.65774  1.0000
  H   H1920     1.0  0.66683  0.49539  0.64595  1.0000
  Fe  Fe164     1.0  0.60171  0.48774  0.78810  1.0000
  H   H1921     1.0  0.86536  0.60613  0.48754  1.0000
  C   C1133     1.0  0.63215  0.54385  0.61134  1.0000
  H   H1922     1.0  0.74412  0.49308  0.53908  1.0000
  H   H1923     1.0  0.97993  0.49350  0.51774  1.0000
  H   H1924     1.0  0.59204  0.49386  0.96231  1.0000
  H   H1925     1.0  0.49723  0.65687  0.87583  1.0000
  H   H1926     1.0  0.53076  0.51839  0.95657  1.0000
  C   C1134     1.0  0.49173  0.48987  0.92127  1.0000
  C   C1135     1.0  0.52901  0.71952  0.57417  1.0000
  C   C1136     1.0  0.97157  0.71765  0.72225  1.0000
  C   C1137     1.0  0.66274  0.55902  0.59152  1.0000
  H   H1927     1.0  0.65125  0.52721  0.65905  1.0000
  H   H1928     1.0  0.73227  0.50151  0.50106  1.0000
  S   S329      1.0  0.58559  0.72842  0.81101  1.0000
  C   C1138     1.0  0.69227  0.57820  0.50078  1.0000
  H   H1929     1.0  0.80166  0.66021  0.63746  1.0000
  C   C1139     1.0  0.56013  0.70577  0.95807  1.0000
  C   C1140     1.0  0.67397  0.60309  0.50757  1.0000
  H   H1930     1.0  0.57733  0.70875  0.96961  1.0000
  H   H1931     1.0  0.76895  0.68555  0.68996  1.0000
  H   H1932     1.0  0.62315  0.53988  0.63572  1.0000
  H   H1933     1.0  0.93542  0.59008  0.51023  1.0000
  H   H1934     1.0  0.55315  0.72211  0.50759  1.0000
  Fe  Fe165     1.0  0.97629  0.66294  0.53003  1.0000
  C   C1141     1.0  0.93931  0.59956  0.49843  1.0000
  S   S330      1.0  0.51639  0.65828  0.95527  1.0000
  H   H1935     1.0  0.75389  0.68129  0.63257  1.0000
  C   C1142     1.0  0.74367  0.49323  0.50875  1.0000
  H   H1936     1.0  0.68356  0.57264  0.62458  1.0000
  H   H1937     1.0  0.79000  0.69196  0.54156  1.0000
  H   H1938     1.0  0.56223  0.69649  0.94380  1.0000
  H   H1939     1.0  0.63635  0.53550  0.59343  1.0000
  C   C1143     1.0  0.81984  0.64962  0.50216  1.0000
  C   C1144     1.0  0.86247  0.65301  0.49236  1.0000
  H   H1940     1.0  0.66837  0.56053  0.67005  1.0000
  S   S331      1.0  0.71881  0.61380  0.51412  1.0000
  H   H1941     1.0  0.67227  0.53573  0.68667  1.0000
  C   C1145     1.0  0.97933  0.48223  0.60207  1.0000
  H   H1942     1.0  0.53421  0.72865  0.69446  1.0000
  H   H1943     1.0  0.89849  0.60000  0.53121  1.0000
  C   C1146     1.0  0.78730  0.66168  0.61697  1.0000
  C   C1147     1.0  0.87540  0.61320  0.50359  1.0000
  H   H1944     1.0  0.50214  0.71893  0.53284  1.0000
  Fe  Fe166     1.0  0.93073  0.65431  0.48792  1.0000
  H   H1945     1.0  0.66678  0.61263  0.51042  1.0000
  H   H1946     1.0  0.61947  0.71276  0.56085  1.0000
  H   H1947     1.0  0.68191  0.52309  0.65709  1.0000
  H   H1948     1.0  0.63545  0.57509  0.63119  1.0000
  C   C1148     1.0  0.80890  0.48810  0.47933  1.0000
  H   H1949     1.0  0.57727  0.72589  0.63014  1.0000
  C   C1149     1.0  0.95196  0.60728  0.52844  1.0000
  H   H1950     1.0  0.76626  0.64608  0.63756  1.0000
  H   H1951     1.0  0.50402  0.49809  0.92115  1.0000
  H   H1952     1.0  0.81910  0.67520  0.54239  1.0000
  H   H1953     1.0  0.59715  0.54568  0.58711  1.0000
  H   H1954     1.0  0.81591  0.49623  0.49553  1.0000
  H   H1955     1.0  0.63675  0.72407  0.58314  1.0000
  C   C1150     1.0  0.54378  0.51323  0.97260  1.0000
  N   N83       1.0  0.78562  0.48385  0.49506  1.0000
  H   H1956     1.0  0.70136  0.56085  0.59987  1.0000
  C   C1151     1.0  0.62809  0.71488  0.58763  1.0000
  C   C1152     1.0  0.65869  0.59263  0.50467  1.0000
  H   H1957     1.0  0.67649  0.53492  0.60257  1.0000
  H   H1958     1.0  0.79336  0.67567  0.67767  1.0000
  C   C1153     1.0  0.82607  0.67339  0.57025  1.0000
  Fe  Fe167     1.0  0.74818  0.65747  0.49192  1.0000
  H   H1959     1.0  0.79218  0.65512  0.59400  1.0000
  C   C1154     1.0  0.53812  0.72689  0.49334  1.0000
  C   C1155     1.0  0.63485  0.56973  0.65703  1.0000
  C   C1156     1.0  0.70753  0.58864  0.50431  1.0000
  H   H1960     1.0  0.62776  0.70884  0.66641  1.0000
  H   H1961     1.0  0.65697  0.70588  0.61983  1.0000
  H   H1962     1.0  0.58034  0.70477  0.67184  1.0000
  C   C1157     1.0  0.84385  0.64626  0.50858  1.0000
  C   C1158     1.0  0.64810  0.70490  0.59295  1.0000
  H   H1963     1.0  0.82765  0.66301  0.57480  1.0000
  H   H1964     1.0  0.64164  0.69506  0.58965  1.0000
  C   C1159     1.0  0.62029  0.71784  0.65508  1.0000
  H   H1965     1.0  0.55368  0.66167  0.90286  1.0000
  H   H1966     1.0  0.76157  0.69559  0.56290  1.0000
  H   H1967     1.0  0.80588  0.64428  0.51483  1.0000
  H   H1968     1.0  0.51328  0.48455  0.81730  1.0000
  H   H1969     1.0  0.54239  0.71344  0.56015  1.0000
  N   N84       1.0  0.60979  0.71553  0.61771  1.0000
  H   H1970     1.0  0.61021  0.69513  0.62623  1.0000
  H   H1971     1.0  0.76069  0.66076  0.66109  1.0000
  H   H1972     1.0  0.66617  0.55321  0.56646  1.0000
  H   H1973     1.0  0.75428  0.67271  0.57188  1.0000
  H   H1974     1.0  0.59151  0.70018  0.58989  1.0000
  C   C1160     1.0  0.77298  0.68375  0.63073  1.0000
  H   H1975     1.0  0.64893  0.56598  0.58302  1.0000
  C   C1161     1.0  0.77217  0.68833  0.54780  1.0000
  S   S332      1.0  0.65309  0.72435  0.84751  1.0000
  C   C1162     1.0  0.67360  0.54062  0.62810  1.0000
  H   H1976     1.0  0.78053  0.66830  0.54866  1.0000
  C   C1163     1.0  0.59766  0.70282  0.61789  1.0000
  C   C1164     1.0  0.77300  0.67549  0.56798  1.0000
  H   H1977     1.0  0.57126  0.69148  0.64539  1.0000
  C   C1165     1.0  0.57619  0.70164  0.64365  1.0000
  H   H1978     1.0  0.73482  0.48466  0.49794  1.0000
  H   H1979     1.0  0.76325  0.68694  0.52099  1.0000
  C   C1166     1.0  0.51238  0.72644  0.54702  1.0000
  H   H1980     1.0  0.60403  0.52975  0.94239  1.0000
  H   H1981     1.0  0.56042  0.70691  0.63335  1.0000
  S   S333      1.0  0.98619  0.66926  0.58838  1.0000
  H   H1982     1.0  0.69953  0.56867  0.49832  1.0000
  H   H1983     1.0  0.61624  0.56721  0.66309  1.0000
  S   S334      1.0  0.94845  0.67314  0.49672  1.0000
  H   H1984     1.0  0.65691  0.72316  0.66721  1.0000
  H   H1985     1.0  0.77246  0.69371  0.62085  1.0000
  H   H1986     1.0  0.84430  0.67721  0.57097  1.0000
  C   C1167     1.0  0.50934  0.68239  0.92554  1.0000
  H   H1987     1.0  0.49429  0.68340  0.94363  1.0000
  H   H1988     1.0  0.81081  0.69047  0.59417  1.0000
  H   H1989     1.0  0.79566  0.69256  0.67242  1.0000
  H   H1990     1.0  0.68751  0.57367  0.57649  1.0000
  H   H1991     1.0  0.82085  0.67911  0.62607  1.0000
  S   S335      1.0  0.64761  0.56727  0.49996  1.0000
  H   H1992     1.0  0.87567  0.62245  0.48942  1.0000
  C   C1168     1.0  0.60735  0.53673  0.96475  1.0000
  C   C1169     1.0  0.50166  0.48285  0.84124  1.0000
  H   H1993     1.0  0.63974  0.59426  0.50532  1.0000
  H   H1994     1.0  0.52746  0.71883  0.48283  1.0000
  S   S336      1.0  0.56748  0.48477  0.81936  1.0000
  H   H1995     1.0  0.64621  0.49070  0.70440  1.0000
  H   H1996     1.0  0.98579  0.70116  0.69101  1.0000
  N   N85       1.0  0.91720  0.60560  0.48236  1.0000
  Fe  Fe168     1.0  0.65515  0.54615  0.48919  1.0000
  H   H1997     1.0  0.97045  0.72390  0.69784  1.0000
  H   H1998     1.0  0.97311  0.71300  0.79093  1.0000
  C   C1170     1.0  0.64010  0.72782  0.65831  1.0000
  H   H1999     1.0  0.55512  0.71271  0.93647  1.0000
  H   H2000     1.0  0.95558  0.61707  0.51950  1.0000
  S   S337      1.0  0.89247  0.64807  0.50124  1.0000
  C   C1171     1.0  0.49048  0.64723  0.87049  1.0000
  H   H2001     1.0  0.72649  0.58701  0.50448  1.0000
  C   C1172     1.0  0.97040  0.70385  0.70835  1.0000
  H   H2002     1.0  0.53772  0.72628  0.59311  1.0000
  H   H2003     1.0  0.86528  0.61489  0.52926  1.0000
  C   C1173     1.0  0.59134  0.72556  0.60883  1.0000
  H   H2004     1.0  0.52404  0.70204  0.97337  1.0000
  H   H2005     1.0  0.97580  0.49258  0.60118  1.0000
  H   H2006     1.0  0.53012  0.48783  0.87743  1.0000
  C   C1174     1.0  0.57822  0.49939  0.97570  1.0000
  H   H2007     1.0  0.57001  0.53830  0.97141  1.0000
  H   H2008     1.0  0.63386  0.73022  0.93881  1.0000
  H   H2009     1.0  0.95284  0.59774  0.47687  1.0000
  H   H2010     1.0  0.60462  0.75779  0.03159  1.0000
  S   S338      1.0  0.95952  0.79239  0.02466  1.0000
  H   H2011     1.0  0.71885  0.88663  0.01912  1.0000
  C   C1175     1.0  0.56809  0.78229  0.21413  1.0000
  Fe  Fe169     1.0  0.71418  0.80412  0.02243  1.0000
  S   S339      1.0  0.74145  0.79182  0.05131  1.0000
  S   S340      1.0  0.71166  0.82471  0.04295  1.0000
  H   H2012     1.0  0.61130  0.96316  0.45267  1.0000
  H   H2013     1.0  0.70123  0.83114  0.20345  1.0000
  Fe  Fe170     1.0  0.71274  0.77708  0.05264  1.0000
  S   S341      1.0  0.70554  0.76443  0.10196  1.0000
  H   H2014     1.0  0.67408  0.94014  0.39850  1.0000
  S   S342      1.0  0.68519  0.78977  0.02740  1.0000
  H   H2015     1.0  0.67590  0.97607  0.36676  1.0000
  H   H2016     1.0  0.70915  0.85116  0.06272  1.0000
  H   H2017     1.0  0.97536  0.75753  0.11929  1.0000
  C   C1176     1.0  0.65507  0.95476  0.42932  1.0000
  S   S343      1.0  0.61347  0.75533  0.20034  1.0000
  C   C1177     1.0  0.95364  0.75428  0.16749  1.0000
  H   H2018     1.0  0.67368  0.97464  0.46531  1.0000
  Fe  Fe171     1.0  0.56700  0.97031  0.31348  1.0000
  S   S344      1.0  0.57579  0.94939  0.31261  1.0000
  H   H2019     1.0  0.71398  0.97855  0.40014  1.0000
  H   H2020     1.0  0.54091  0.92900  0.22545  1.0000
  S   S345      1.0  0.63013  0.95643  0.33224  1.0000
  C   C1178     1.0  0.72754  0.80868  0.14605  1.0000
  Fe  Fe172     1.0  0.60840  0.95434  0.28031  1.0000
  S   S346      1.0  0.61735  0.94051  0.23227  1.0000
  Fe  Fe173     1.0  0.59645  0.95296  0.36401  1.0000
  S   S347      1.0  0.59659  0.93849  0.41068  1.0000
  C   C1179     1.0  0.62701  0.96851  0.46234  1.0000
  H   H2021     1.0  0.55785  0.97575  0.22659  1.0000
  H   H2022     1.0  0.91009  0.75274  0.13710  1.0000
  H   H2023     1.0  0.92332  0.77690  0.08693  1.0000
  H   H2024     1.0  0.58395  0.78146  0.19622  1.0000
  H   H2025     1.0  0.65195  0.81014  0.12997  1.0000
  H   H2026     1.0  0.66085  0.81816  0.18963  1.0000
  Fe  Fe174     1.0  0.65008  0.92007  0.01256  1.0000
  S   S348      1.0  0.64244  0.93429  0.06035  1.0000
  S   S349      1.0  0.68104  0.90613  0.00868  1.0000
  C   C1180     1.0  0.62544  0.93906  0.18473  1.0000
  C   C1181     1.0  0.62662  0.92687  0.16845  1.0000
  C   C1182     1.0  0.63194  0.92518  0.13080  1.0000
  C   C1183     1.0  0.63617  0.93569  0.10852  1.0000
  C   C1184     1.0  0.63504  0.94788  0.12484  1.0000
  C   C1185     1.0  0.62977  0.94957  0.16251  1.0000
  H   H2027     1.0  0.62331  0.91863  0.18510  1.0000
  H   H2028     1.0  0.63267  0.91574  0.11897  1.0000
  H   H2029     1.0  0.63832  0.95611  0.10812  1.0000
  H   H2030     1.0  0.62916  0.95901  0.17430  1.0000
  H   H2031     1.0  0.63433  0.97625  0.40739  1.0000
  N   N86       1.0  0.70118  0.81100  0.14987  1.0000
  C   C1186     1.0  0.94624  0.75741  0.06235  1.0000
  H   H2032     1.0  0.49691  0.74605  0.37402  1.0000
  C   C1187     1.0  0.54914  0.73355  0.46014  1.0000
  H   H2033     1.0  0.61194  0.73480  0.03938  1.0000
  H   H2034     1.0  0.56421  0.77094  0.42100  1.0000
  C   C1188     1.0  0.95553  0.78075  0.11580  1.0000
  C   C1189     1.0  0.69365  0.80615  0.18671  1.0000
  C   C1190     1.0  0.53451  0.74901  0.37022  1.0000
  C   C1191     1.0  0.55345  0.75597  0.38408  1.0000
  C   C1192     1.0  0.54948  0.76547  0.41092  1.0000
  C   C1193     1.0  0.52664  0.76793  0.42496  1.0000
  C   C1194     1.0  0.50779  0.76071  0.41187  1.0000
  C   C1195     1.0  0.51172  0.75137  0.38453  1.0000
  H   H2035     1.0  0.57114  0.75402  0.37409  1.0000
  C   C1196     1.0  0.51053  0.96459  0.18986  1.0000
  H   H2036     1.0  0.52888  0.93813  0.26243  1.0000
  C   C1197     1.0  0.69555  0.83769  0.02355  1.0000
  H   H2037     1.0  0.58639  0.96011  0.19342  1.0000
  C   C1198     1.0  0.52812  0.95649  0.16651  1.0000
  H   H2038     1.0  0.56724  0.73690  0.46648  1.0000
  N   N87       1.0  0.64803  0.95961  0.46689  1.0000
  S   S350      1.0  0.89763  0.77860  0.01173  1.0000
  H   H2039     1.0  0.52898  0.78725  0.24797  1.0000
  H   H2040     1.0  0.69588  0.79563  0.18780  1.0000
  C   C1199     1.0  0.66777  0.80877  0.19818  1.0000
  H   H2041     1.0  0.65603  0.80118  0.18768  1.0000
  C   C1200     1.0  0.67964  0.76219  0.12885  1.0000
  C   C1201     1.0  0.65911  0.76968  0.12475  1.0000
  C   C1202     1.0  0.63910  0.76749  0.14693  1.0000
  C   C1203     1.0  0.63918  0.75768  0.17303  1.0000
  C   C1204     1.0  0.65962  0.75014  0.17679  1.0000
  C   C1205     1.0  0.67973  0.75245  0.15505  1.0000
  H   H2042     1.0  0.65862  0.77712  0.10452  1.0000
  H   H2043     1.0  0.62337  0.77337  0.14369  1.0000
  S   S351      1.0  0.52256  0.78043  0.45747  1.0000
  H   H2044     1.0  0.69546  0.74658  0.15850  1.0000
  H   H2045     1.0  0.67928  0.73693  0.06180  1.0000
  H   H2046     1.0  0.96740  0.73960  0.06097  1.0000
  C   C1206     1.0  0.82497  0.77975  0.01642  1.0000
  H   H2047     1.0  0.52010  0.97725  0.39258  1.0000
  C   C1207     1.0  0.67021  0.85893  0.99469  1.0000
  C   C1208     1.0  0.69682  0.82511  0.14570  1.0000
  C   C1209     1.0  0.70745  0.83368  0.17574  1.0000
  H   H2048     1.0  0.67771  0.82760  0.14468  1.0000
  H   H2049     1.0  0.70384  0.82838  0.11894  1.0000
  H   H2050     1.0  0.70156  0.84365  0.17079  1.0000
  H   H2051     1.0  0.63024  0.73177  0.10284  1.0000
  C   C1210     1.0  0.63051  0.73757  0.04554  1.0000
  H   H2052     1.0  0.70551  0.80954  0.20899  1.0000
  H   H2053     1.0  0.74447  0.87878  0.03914  1.0000
  C   C1211     1.0  0.68526  0.86045  0.02480  1.0000
  H   H2054     1.0  0.61193  0.74440  0.97828  1.0000
  H   H2055     1.0  0.59139  0.91857  0.46300  1.0000
  C   C1212     1.0  0.66442  0.80862  0.10708  1.0000
  H   H2056     1.0  0.49592  0.95864  0.20014  1.0000
  C   C1213     1.0  0.73598  0.79467  0.14833  1.0000
  H   H2057     1.0  0.68694  0.86973  0.03735  1.0000
  H   H2058     1.0  0.94998  0.79092  0.11635  1.0000
  H   H2059     1.0  0.66594  0.81752  0.09105  1.0000
  H   H2060     1.0  0.56058  0.79199  0.21027  1.0000
  H   H2061     1.0  0.54392  0.79832  0.27546  1.0000
  H   H2062     1.0  0.50996  0.97686  0.43886  1.0000
  S   S352      1.0  0.72464  0.76820  0.99914  1.0000
  H   H2063     1.0  0.72706  0.83369  0.17488  1.0000
  C   C1214     1.0  0.58120  0.93808  0.45323  1.0000
  H   H2064     1.0  0.96098  0.74300  0.12009  1.0000
  H   H2065     1.0  0.56850  0.95744  0.45247  1.0000
  S   S353      1.0  0.60684  0.74037  0.30086  1.0000
  H   H2066     1.0  0.68723  0.79357  0.12669  1.0000
  Fe  Fe175     1.0  0.75119  0.78406  0.99566  1.0000
  H   H2067     1.0  0.70009  0.80376  0.09418  1.0000
  Fe  Fe176     1.0  0.61789  0.97690  0.33266  1.0000
  H   H2068     1.0  0.64837  0.74521  0.09447  1.0000
  H   H2069     1.0  0.96430  0.77870  0.14233  1.0000
  C   C1215     1.0  0.68907  0.80376  0.11943  1.0000
  H   H2070     1.0  0.63914  0.95367  0.41164  1.0000
  C   C1216     1.0  0.69774  0.84988  0.03923  1.0000
  N   N88       1.0  0.93855  0.75857  0.10173  1.0000
  H   H2071     1.0  0.87963  0.74891  0.09210  1.0000
  C   C1217     1.0  0.93357  0.77246  0.10975  1.0000
  H   H2072     1.0  0.72660  0.78839  0.12892  1.0000
  C   C1218     1.0  0.95797  0.75329  0.12579  1.0000
  H   H2073     1.0  0.52228  0.75277  0.26061  1.0000
  H   H2074     1.0  0.51509  0.93915  0.21838  1.0000
  C   C1219     1.0  0.75073  0.88620  0.98371  1.0000
  H   H2075     1.0  0.52175  0.76758  0.23889  1.0000
  H   H2076     1.0  0.77004  0.88479  0.98895  1.0000
  H   H2077     1.0  0.85452  0.77743  0.05359  1.0000
  H   H2078     1.0  0.92195  0.77376  0.13409  1.0000
  H   H2079     1.0  0.66732  0.75841  0.04486  1.0000
  H   H2080     1.0  0.73400  0.81251  0.11948  1.0000
  C   C1220     1.0  0.89528  0.75436  0.08324  1.0000
  H   H2081     1.0  0.73428  0.79089  0.17645  1.0000
  H   H2082     1.0  0.54295  0.95753  0.24103  1.0000
  H   H2083     1.0  0.66670  0.80894  0.22854  1.0000
  H   H2084     1.0  0.61654  0.74692  0.09540  1.0000
  H   H2085     1.0  0.54611  0.75658  0.23011  1.0000
  H   H2086     1.0  0.75508  0.79407  0.14114  1.0000
  Fe  Fe177     1.0  0.65632  0.89352  0.97693  1.0000
  C   C1221     1.0  0.91640  0.75116  0.10855  1.0000
  H   H2087     1.0  0.65641  0.80149  0.08850  1.0000
  H   H2088     1.0  0.93604  0.73749  0.05117  1.0000
  H   H2089     1.0  0.73754  0.81375  0.16772  1.0000
  H   H2090     1.0  0.62878  0.76335  0.05824  1.0000
  C   C1222     1.0  0.73838  0.88671  0.02140  1.0000
  C   C1223     1.0  0.95137  0.74383  0.04804  1.0000
  H   H2091     1.0  0.74313  0.89567  0.03568  1.0000
  H   H2092     1.0  0.96864  0.77953  0.09354  1.0000
  H   H2093     1.0  0.53834  0.74155  0.44979  1.0000
  H   H2094     1.0  0.66004  0.74258  0.19674  1.0000
  C   C1224     1.0  0.63157  0.74066  0.08682  1.0000
  H   H2095     1.0  0.53138  0.96172  0.14065  1.0000
  C   C1225     1.0  0.51605  0.78827  0.30287  1.0000
  S   S354      1.0  0.58545  0.97352  0.36727  1.0000
  N   N89       1.0  0.63806  0.74806  0.02038  1.0000
  H   H2096     1.0  0.93302  0.76187  0.04369  1.0000
  C   C1226     1.0  0.66415  0.75103  0.02346  1.0000
  Fe  Fe178     1.0  0.60619  0.73868  0.23918  1.0000
  H   H2097     1.0  0.89023  0.76457  0.08460  1.0000
  H   H2098     1.0  0.65570  0.93392  0.43341  1.0000
  C   C1227     1.0  0.56956  0.94876  0.46806  1.0000
  C   C1228     1.0  0.86707  0.78022  0.99856  1.0000
  N   N90       1.0  0.55664  0.77902  0.28263  1.0000
  C   C1229     1.0  0.56715  0.78231  0.31954  1.0000
  C   C1230     1.0  0.53686  0.78849  0.27551  1.0000
  C   C1231     1.0  0.57588  0.78017  0.25415  1.0000
  C   C1232     1.0  0.54786  0.76559  0.28443  1.0000
  C   C1233     1.0  0.59090  0.77565  0.32915  1.0000
  H   H2099     1.0  0.95525  0.74427  0.01829  1.0000
  H   H2100     1.0  0.52151  0.79103  0.33096  1.0000
  H   H2101     1.0  0.81174  0.77874  0.03752  1.0000
  H   H2102     1.0  0.57021  0.79272  0.32192  1.0000
  H   H2103     1.0  0.55471  0.77999  0.34208  1.0000
  H   H2104     1.0  0.96258  0.76286  0.05774  1.0000
  H   H2105     1.0  0.76336  0.96265  0.98925  1.0000
  H   H2106     1.0  0.58746  0.78836  0.26068  1.0000
  H   H2107     1.0  0.58773  0.77160  0.25437  1.0000
  H   H2108     1.0  0.56287  0.75877  0.28816  1.0000
  H   H2109     1.0  0.53688  0.76410  0.30919  1.0000
  H   H2110     1.0  0.59549  0.77789  0.35804  1.0000
  H   H2111     1.0  0.58993  0.76521  0.32689  1.0000
  H   H2112     1.0  0.60568  0.77902  0.31197  1.0000
  H   H2113     1.0  0.79043  0.97451  0.02040  1.0000
  S   S355      1.0  0.53811  0.73772  0.33407  1.0000
  H   H2114     1.0  0.68371  0.94113  0.44499  1.0000
  H   H2115     1.0  0.56661  0.94679  0.23554  1.0000
  H   H2116     1.0  0.94171  0.76224  0.17549  1.0000
  Fe  Fe179     1.0  0.93417  0.78273  0.98590  1.0000
  H   H2117     1.0  0.66638  0.96174  0.41514  1.0000
  H   H2118     1.0  0.50740  0.77889  0.30346  1.0000
  H   H2119     1.0  0.50236  0.79532  0.29420  1.0000
  N   N91       1.0  0.55135  0.95274  0.18418  1.0000
  C   C1234     1.0  0.56119  0.94105  0.16487  1.0000
  C   C1235     1.0  0.54894  0.94938  0.22404  1.0000
  C   C1236     1.0  0.58236  0.92688  0.47407  1.0000
  C   C1237     1.0  0.56763  0.94254  0.12407  1.0000
  H   H2120     1.0  0.91997  0.74076  0.10660  1.0000
  C   C1238     1.0  0.53393  0.76053  0.25127  1.0000
  H   H2121     1.0  0.57731  0.93739  0.17910  1.0000
  H   H2122     1.0  0.54836  0.93316  0.16580  1.0000
  C   C1239     1.0  0.53238  0.93827  0.23249  1.0000
  H   H2123     1.0  0.55541  0.77519  0.20415  1.0000
  C   C1240     1.0  0.62390  0.75987  0.03041  1.0000
  H   H2124     1.0  0.51829  0.94782  0.15827  1.0000
  H   H2125     1.0  0.58396  0.94811  0.12045  1.0000
  H   H2126     1.0  0.57169  0.93299  0.11224  1.0000
  H   H2127     1.0  0.55296  0.94676  0.10784  1.0000
  C   C1241     1.0  0.66797  0.94176  0.42708  1.0000
  C   C1242     1.0  0.68060  0.83618  0.99335  1.0000
  C   C1243     1.0  0.84935  0.77899  0.02546  1.0000
  H   H2128     1.0  0.50193  0.97184  0.17212  1.0000
  H   H2129     1.0  0.94606  0.74534  0.17800  1.0000
  H   H2130     1.0  0.83240  0.97458  0.00976  1.0000
  C   C1244     1.0  0.62688  0.77133  0.00475  1.0000
  C   C1245     1.0  0.68130  0.73997  0.03300  1.0000
  H   H2131     1.0  0.69977  0.74334  0.03045  1.0000
  H   H2132     1.0  0.97075  0.75600  0.18165  1.0000
  H   H2133     1.0  0.57326  0.96512  0.15156  1.0000
  H   H2134     1.0  0.97477  0.90098  0.99256  1.0000
  S   S356      1.0  0.52841  0.97507  0.29992  1.0000
  C   C1246     1.0  0.81782  0.78156  0.98008  1.0000
  H   H2135     1.0  0.89886  0.75162  0.05438  1.0000
  C   C1247     1.0  0.56928  0.96314  0.18070  1.0000
  H   H2136     1.0  0.97682  0.98011  0.16756  1.0000
  C   C1248     1.0  0.63028  0.97962  0.43551  1.0000
  S   S357      1.0  0.59841  0.97516  0.27859  1.0000
  H   H2137     1.0  0.67069  0.75534  0.99767  1.0000
  C   C1249     1.0  0.66791  0.84672  0.97924  1.0000
  H   H2138     1.0  0.51829  0.96983  0.21312  1.0000
  H   H2139     1.0  0.95802  0.97372  0.26286  1.0000
  H   H2140     1.0  0.61793  0.76984  0.97802  1.0000
  H   H2141     1.0  0.73219  0.86358  0.00034  1.0000
  H   H2142     1.0  0.61852  0.77990  0.01745  1.0000
  H   H2143     1.0  0.64574  0.77350  0.00002  1.0000
  H   H2144     1.0  0.54783  0.98078  0.18159  1.0000
  H   H2145     1.0  0.76174  0.86160  0.98451  1.0000
  S   S358      1.0  0.62462  0.90687  0.98367  1.0000
  C   C1250     1.0  0.82821  0.97643  0.98054  1.0000
  H   H2146     1.0  0.70258  0.95881  0.46965  1.0000
  H   H2147     1.0  0.67862  0.82689  0.98104  1.0000
  C   C1251     1.0  0.50441  0.97898  0.41042  1.0000
  Fe  Fe180     1.0  0.98679  0.77756  0.00788  1.0000
  H   H2148     1.0  0.49074  0.97221  0.40135  1.0000
  C   C1252     1.0  0.63156  0.74456  0.98152  1.0000
  H   H2149     1.0  0.81389  0.95713  0.97805  1.0000
  C   C1253     1.0  0.78533  0.97943  0.99462  1.0000
  C   C1254     1.0  0.56243  0.97618  0.19720  1.0000
  H   H2150     1.0  0.62592  0.94343  0.47638  1.0000
  S   S359      1.0  0.57839  0.74257  0.70697  1.0000
  S   S360      1.0  0.96096  0.76732  0.97126  1.0000
  C   C1255     1.0  0.75992  0.88911  0.90382  1.0000
  H   H2151     1.0  0.73958  0.73977  0.90220  1.0000
  S   S361      1.0  0.94478  0.79480  0.93815  1.0000
  H   H2152     1.0  0.68765  0.95015  0.50536  1.0000
  N   N92       1.0  0.74178  0.87640  0.95680  1.0000
  Fe  Fe181     1.0  0.86056  0.97176  0.81366  1.0000
  H   H2153     1.0  0.50294  0.92878  0.53444  1.0000
  S   S362      1.0  0.67141  0.77690  0.93015  1.0000
  S   S363      1.0  0.50731  0.78588  0.55836  1.0000
  C   C1256     1.0  0.55982  0.94830  0.50363  1.0000
  S   S364      1.0  0.95276  0.91133  0.83395  1.0000
  Fe  Fe182     1.0  0.52813  0.89228  0.61699  1.0000
  S   S365      1.0  0.56186  0.90328  0.62471  1.0000
  S   S366      1.0  0.52994  0.87362  0.58422  1.0000
  H   H2154     1.0  0.49921  0.73185  0.56401  1.0000
  S   S367      1.0  0.53006  0.92549  0.66605  1.0000
  Fe  Fe183     1.0  0.54078  0.92061  0.60770  1.0000
  S   S368      1.0  0.54976  0.93730  0.56999  1.0000
  Fe  Fe184     1.0  0.54900  0.90725  0.68244  1.0000
  S   S369      1.0  0.57514  0.90180  0.72883  1.0000
  S   S370      1.0  0.50812  0.90936  0.59607  1.0000
  S   S371      1.0  0.51635  0.89528  0.67506  1.0000
  C   C1257     1.0  0.70683  0.87441  0.91025  1.0000
  Fe  Fe185     1.0  0.63634  0.91556  0.93033  1.0000
  S   S372      1.0  0.61223  0.92316  0.88404  1.0000
  S   S373      1.0  0.66617  0.90158  0.92213  1.0000
  C   C1258     1.0  0.51369  0.74009  0.65637  1.0000
  S   S374      1.0  0.89881  0.96428  0.81027  1.0000
  S   S375      1.0  0.77356  0.96632  0.86519  1.0000
  S   S376      1.0  0.82626  0.96663  0.78471  1.0000
  H   H2155     1.0  0.55698  0.73903  0.54808  1.0000
  C   C1259     1.0  0.73967  0.93088  0.91529  1.0000
  C   C1260     1.0  0.72766  0.94259  0.91500  1.0000
  C   C1261     1.0  0.73846  0.95330  0.89971  1.0000
  C   C1262     1.0  0.76131  0.95245  0.88447  1.0000
  C   C1263     1.0  0.77339  0.94077  0.88494  1.0000
  C   C1264     1.0  0.76260  0.93004  0.90031  1.0000
  H   H2156     1.0  0.71012  0.94341  0.92672  1.0000
  H   H2157     1.0  0.72902  0.96232  0.89964  1.0000
  H   H2158     1.0  0.79098  0.93998  0.87336  1.0000
  H   H2159     1.0  0.77751  0.75021  0.87933  1.0000
  C   C1265     1.0  0.58482  0.90792  0.77220  1.0000
  C   C1266     1.0  0.57808  0.91997  0.78535  1.0000
  C   C1267     1.0  0.58654  0.92438  0.81957  1.0000
  C   C1268     1.0  0.60172  0.91684  0.84142  1.0000
  C   C1269     1.0  0.60846  0.90479  0.82829  1.0000
  C   C1270     1.0  0.60017  0.90042  0.79392  1.0000
  H   H2160     1.0  0.56634  0.92589  0.76917  1.0000
  H   H2161     1.0  0.58115  0.93371  0.82929  1.0000
  H   H2162     1.0  0.62009  0.89884  0.84460  1.0000
  H   H2163     1.0  0.60558  0.89110  0.78421  1.0000
  C   C1271     1.0  0.56111  0.93710  0.52451  1.0000
  C   C1272     1.0  0.57219  0.92634  0.50929  1.0000
  Fe  Fe186     1.0  0.49348  0.78346  0.50070  1.0000
  H   H2164     1.0  0.98654  0.92339  0.78810  1.0000
  C   C1273     1.0  0.75835  0.87640  0.92443  1.0000
  H   H2165     1.0  0.57343  0.91767  0.52498  1.0000
  H   H2166     1.0  0.59777  0.87334  0.63944  1.0000
  H   H2167     1.0  0.63533  0.73483  0.68010  1.0000
  C   C1274     1.0  0.93718  0.92611  0.83164  1.0000
  C   C1275     1.0  0.91330  0.92631  0.82057  1.0000
  C   C1276     1.0  0.90078  0.93790  0.81599  1.0000
  C   C1277     1.0  0.91214  0.94945  0.82203  1.0000
  C   C1278     1.0  0.93590  0.94922  0.83377  1.0000
  C   C1279     1.0  0.94831  0.93764  0.83879  1.0000
  H   H2168     1.0  0.90453  0.91745  0.81496  1.0000
  H   H2169     1.0  0.88264  0.93792  0.80651  1.0000
  H   H2170     1.0  0.94487  0.95809  0.83844  1.0000
  H   H2171     1.0  0.96659  0.93765  0.84763  1.0000
  H   H2172     1.0  0.95238  0.92882  0.70322  1.0000
  C   C1280     1.0  0.51015  0.83696  0.56584  1.0000
  C   C1281     1.0  0.52070  0.84900  0.56315  1.0000
  C   C1282     1.0  0.51486  0.85891  0.58779  1.0000
  H   H2173     1.0  0.95947  0.85022  0.94633  1.0000
  H   H2174     1.0  0.51506  0.82943  0.54691  1.0000
  H   H2175     1.0  0.53366  0.85061  0.54196  1.0000
  H   H2176     1.0  0.74504  0.85063  0.92726  1.0000
  H   H2177     1.0  0.73807  0.75171  0.93795  1.0000
  C   C1283     1.0  0.77075  0.97004  0.97116  1.0000
  H   H2178     1.0  0.77012  0.88760  0.87814  1.0000
  H   H2179     1.0  0.61351  0.74073  0.58526  1.0000
  H   H2180     1.0  0.72359  0.76286  0.82645  1.0000
  C   C1284     1.0  0.49330  0.95481  0.61846  1.0000
  S   S377      1.0  0.84324  0.97539  0.86855  1.0000
  C   C1285     1.0  0.51235  0.75137  0.63586  1.0000
  H   H2181     1.0  0.75631  0.74925  0.80284  1.0000
  C   C1286     1.0  0.53360  0.73726  0.67850  1.0000
  C   C1287     1.0  0.55255  0.74566  0.68019  1.0000
  C   C1288     1.0  0.55142  0.75679  0.65907  1.0000
  C   C1289     1.0  0.53145  0.75967  0.63719  1.0000
  C   C1290     1.0  0.63085  0.95232  0.52890  1.0000
  H   H2182     1.0  0.53818  0.83988  0.64286  1.0000
  H   H2183     1.0  0.56597  0.76335  0.66005  1.0000
  H   H2184     1.0  0.53080  0.76834  0.62151  1.0000
  C   C1291     1.0  0.65789  0.73907  0.87005  1.0000
  C   C1292     1.0  0.64336  0.74973  0.86407  1.0000
  C   C1293     1.0  0.64789  0.76124  0.88253  1.0000
  C   C1294     1.0  0.66674  0.76219  0.90750  1.0000
  C   C1295     1.0  0.68102  0.75148  0.91402  1.0000
  C   C1296     1.0  0.67683  0.74004  0.89494  1.0000
  H   H2185     1.0  0.62873  0.74912  0.84501  1.0000
  H   H2186     1.0  0.63663  0.76945  0.87742  1.0000
  H   H2187     1.0  0.69523  0.75199  0.93373  1.0000
  H   H2188     1.0  0.56033  0.76134  0.53939  1.0000
  N   N93       1.0  0.67589  0.93594  0.82216  1.0000
  C   C1297     1.0  0.65368  0.94355  0.83097  1.0000
  C   C1298     1.0  0.67311  0.93096  0.78359  1.0000
  C   C1299     1.0  0.69637  0.94497  0.82363  1.0000
  C   C1300     1.0  0.67883  0.92553  0.85016  1.0000
  C   C1301     1.0  0.65333  0.95060  0.86814  1.0000
  C   C1302     1.0  0.65169  0.92228  0.77710  1.0000
  C   C1303     1.0  0.72103  0.93946  0.81415  1.0000
  C   C1304     1.0  0.69405  0.91377  0.83897  1.0000
  H   H2189     1.0  0.65000  0.95077  0.80941  1.0000
  H   H2190     1.0  0.63794  0.93734  0.83121  1.0000
  H   H2191     1.0  0.68893  0.92558  0.77409  1.0000
  H   H2192     1.0  0.67142  0.93900  0.76402  1.0000
  H   H2193     1.0  0.69304  0.95318  0.80510  1.0000
  H   H2194     1.0  0.69834  0.94907  0.85154  1.0000
  H   H2195     1.0  0.68639  0.92939  0.87605  1.0000
  H   H2196     1.0  0.66117  0.92179  0.85777  1.0000
  H   H2197     1.0  0.66482  0.95905  0.86798  1.0000
  H   H2198     1.0  0.63500  0.95410  0.87372  1.0000
  H   H2199     1.0  0.65830  0.94430  0.89109  1.0000
  H   H2200     1.0  0.63479  0.92780  0.77643  1.0000
  H   H2201     1.0  0.65343  0.91753  0.74998  1.0000
  H   H2202     1.0  0.65044  0.91474  0.79794  1.0000
  H   H2203     1.0  0.72199  0.93528  0.78631  1.0000
  H   H2204     1.0  0.72717  0.93255  0.83499  1.0000
  H   H2205     1.0  0.73399  0.94731  0.81480  1.0000
  H   H2206     1.0  0.70466  0.91063  0.86296  1.0000
  H   H2207     1.0  0.70679  0.91523  0.81662  1.0000
  H   H2208     1.0  0.68254  0.90562  0.83214  1.0000
  H   H2209     1.0  0.60735  0.88254  0.67762  1.0000
  H   H2210     1.0  0.74228  0.89298  0.89613  1.0000
  C   C1305     1.0  0.82651  0.96313  0.96299  1.0000
  H   H2211     1.0  0.71648  0.86610  0.89889  1.0000
  H   H2212     1.0  0.68806  0.73181  0.89988  1.0000
  H   H2213     1.0  0.75351  0.73863  0.84138  1.0000
  H   H2214     1.0  0.50211  0.93904  0.58489  1.0000
  C   C1306     1.0  0.50458  0.74256  0.50129  1.0000
  C   C1307     1.0  0.54008  0.74393  0.54079  1.0000
  C   C1308     1.0  0.83553  0.78277  0.95317  1.0000
  Fe  Fe187     1.0  0.69865  0.78181  0.97380  1.0000
  S   S378      1.0  0.72544  0.79728  0.96674  1.0000
  H   H2215     1.0  0.56487  0.83258  0.66153  1.0000
  C   C1309     1.0  0.98866  0.83698  0.95261  1.0000
  S   S379      1.0  0.98488  0.77548  0.86823  1.0000
  H   H2216     1.0  0.71849  0.75268  0.86359  1.0000
  H   H2217     1.0  0.63782  0.75183  0.96197  1.0000
  H   H2218     1.0  0.70672  0.77938  0.85494  1.0000
  H   H2219     1.0  0.53169  0.74679  0.56719  1.0000
  H   H2220     1.0  0.64363  0.73337  0.63351  1.0000
  H   H2221     1.0  0.50352  0.96125  0.60081  1.0000
  Fe  Fe188     1.0  0.68878  0.91509  0.95410  1.0000
  H   H2222     1.0  0.97970  0.90245  0.75836  1.0000
  H   H2223     1.0  0.96824  0.92059  0.66759  1.0000
  H   H2224     1.0  0.94552  0.94169  0.75769  1.0000
  H   H2225     1.0  0.61323  0.86582  0.67734  1.0000
  H   H2226     1.0  0.83039  0.78417  0.92496  1.0000
  H   H2227     1.0  0.65443  0.94155  0.49456  1.0000
  H   H2228     1.0  0.66178  0.97242  0.50877  1.0000
  C   C1310     1.0  0.64018  0.94874  0.49048  1.0000
  H   H2229     1.0  0.75383  0.86908  0.90385  1.0000
  H   H2230     1.0  0.74881  0.89595  0.97236  1.0000
  H   H2231     1.0  0.77208  0.92104  0.90045  1.0000
  H   H2232     1.0  0.53114  0.76321  0.52205  1.0000
  S   S380      1.0  0.72678  0.91706  0.93376  1.0000
  S   S381      1.0  0.65972  0.92970  0.95931  1.0000
  H   H2233     1.0  0.65619  0.84540  0.95612  1.0000
  H   H2234     1.0  0.49909  0.73357  0.65550  1.0000
  H   H2235     1.0  0.70569  0.88197  0.88924  1.0000
  H   H2236     1.0  0.70428  0.87700  0.96887  1.0000
  H   H2237     1.0  0.61350  0.95739  0.52754  1.0000
  H   H2238     1.0  0.96312  0.92328  0.75705  1.0000
  N   N94       1.0  0.56434  0.85877  0.68608  1.0000
  C   C1311     1.0  0.53799  0.86093  0.69045  1.0000
  C   C1312     1.0  0.56835  0.85299  0.64863  1.0000
  C   C1313     1.0  0.57599  0.87159  0.68895  1.0000
  C   C1314     1.0  0.57266  0.85015  0.71636  1.0000
  C   C1315     1.0  0.52996  0.86756  0.72634  1.0000
  H   H2239     1.0  0.53274  0.86137  0.75045  1.0000
  C   C1316     1.0  0.60002  0.87318  0.66965  1.0000
  C   C1317     1.0  0.59880  0.84574  0.71537  1.0000
  H   H2240     1.0  0.53096  0.86675  0.66738  1.0000
  H   H2241     1.0  0.52828  0.85183  0.68936  1.0000
  H   H2242     1.0  0.58739  0.85202  0.64186  1.0000
  H   H2243     1.0  0.56115  0.85943  0.62722  1.0000
  H   H2244     1.0  0.56435  0.87919  0.67716  1.0000
  H   H2245     1.0  0.57862  0.87436  0.71814  1.0000
  H   H2246     1.0  0.57042  0.85495  0.74339  1.0000
  H   H2247     1.0  0.56132  0.84162  0.71873  1.0000
  C   C1318     1.0  0.49802  0.85666  0.61497  1.0000
  H   H2248     1.0  0.84410  0.95831  0.96492  1.0000
  H   H2249     1.0  0.70018  0.96486  0.51579  1.0000
  H   H2250     1.0  0.95420  0.73852  0.76484  1.0000
  H   H2251     1.0  0.75513  0.97491  0.95877  1.0000
  H   H2252     1.0  0.76952  0.89634  0.92004  1.0000
  H   H2253     1.0  0.79924  0.97963  0.92046  1.0000
  H   H2254     1.0  0.82193  0.96337  0.93355  1.0000
  N   N95       1.0  0.52410  0.73509  0.51978  1.0000
  H   H2255     1.0  0.61032  0.85286  0.72874  1.0000
  H   H2256     1.0  0.60544  0.84360  0.68756  1.0000
  H   H2257     1.0  0.60063  0.83661  0.73028  1.0000
  N   N96       1.0  0.74969  0.76430  0.86976  1.0000
  C   C1319     1.0  0.73288  0.75668  0.84662  1.0000
  C   C1320     1.0  0.73544  0.77357  0.89274  1.0000
  C   C1321     1.0  0.76408  0.75588  0.89490  1.0000
  C   C1322     1.0  0.76642  0.77114  0.84481  1.0000
  Fe  Fe189     1.0  0.49845  0.91325  0.65481  1.0000
  C   C1323     1.0  0.72105  0.78369  0.87141  1.0000
  C   C1324     1.0  0.74993  0.74661  0.91864  1.0000
  C   C1325     1.0  0.78286  0.78082  0.86354  1.0000
  Fe  Fe190     1.0  0.80884  0.97173  0.83887  1.0000
  H   H2258     1.0  0.53868  0.87680  0.73099  1.0000
  H   H2259     1.0  0.74694  0.77857  0.91277  1.0000
  H   H2260     1.0  0.72238  0.76852  0.90977  1.0000
  H   H2261     1.0  0.68831  0.87134  0.91455  1.0000
  H   H2262     1.0  0.77452  0.76169  0.91447  1.0000
  H   H2263     1.0  0.77830  0.76425  0.83033  1.0000
  H   H2264     1.0  0.75655  0.77621  0.82277  1.0000
  H   H2265     1.0  0.56268  0.83643  0.61411  1.0000
  H   H2266     1.0  0.95223  0.95799  0.76299  1.0000
  Fe  Fe191     1.0  0.97375  0.78021  0.92694  1.0000
  H   H2267     1.0  0.71209  0.79019  0.89123  1.0000
  H   H2268     1.0  0.97368  0.75072  0.77964  1.0000
  H   H2269     1.0  0.50556  0.95182  0.64071  1.0000
  H   H2270     1.0  0.77667  0.87375  0.93325  1.0000
  H   H2271     1.0  0.51063  0.86959  0.72466  1.0000
  H   H2272     1.0  0.98821  0.90842  0.71474  1.0000
  H   H2273     1.0  0.77288  0.78888  0.87613  1.0000
  H   H2274     1.0  0.79477  0.78492  0.84269  1.0000
  H   H2275     1.0  0.79434  0.77635  0.88459  1.0000
  C   C1326     1.0  0.97820  0.84858  0.94170  1.0000
  C   C1327     1.0  0.95742  0.94919  0.74784  1.0000
  H   H2276     1.0  0.87316  0.78315  0.94119  1.0000
  H   H2277     1.0  0.97541  0.82262  0.87801  1.0000
  H   H2278     1.0  0.73228  0.78968  0.85395  1.0000
  H   H2279     1.0  0.62765  0.94346  0.54437  1.0000
  H   H2280     1.0  0.58443  0.74554  0.59863  1.0000
  H   H2281     1.0  0.64376  0.95794  0.54481  1.0000
  C   C1328     1.0  0.98109  0.81254  0.87521  1.0000
  H   H2282     1.0  0.71441  0.89034  0.94482  1.0000
  H   H2283     1.0  0.95404  0.95117  0.71855  1.0000
  C   C1329     1.0  0.73501  0.85206  0.95300  1.0000
  H   H2284     1.0  0.76255  0.74095  0.93553  1.0000
  C   C1330     1.0  0.54661  0.75659  0.52261  1.0000
  C   C1331     1.0  0.71655  0.87983  0.94674  1.0000
  C   C1332     1.0  0.55778  0.83973  0.64209  1.0000
  H   H2285     1.0  0.98527  0.81290  0.81656  1.0000
  H   H2286     1.0  0.71569  0.85257  0.94765  1.0000
  C   C1333     1.0  0.74414  0.74570  0.82411  1.0000
  H   H2287     1.0  0.73798  0.84337  0.96963  1.0000
  H   H2288     1.0  0.55138  0.95669  0.51517  1.0000
  H   H2289     1.0  0.96465  0.80695  0.87300  1.0000
  C   C1334     1.0  0.59975  0.73937  0.60634  1.0000
  H   H2290     1.0  0.55378  0.75545  0.49468  1.0000
  H   H2291     1.0  0.51138  0.75019  0.48366  1.0000
  C   C1335     1.0  0.96663  0.92974  0.68281  1.0000
  C   C1336     1.0  0.98381  0.94627  0.75524  1.0000
  H   H2292     1.0  0.62184  0.97297  0.48888  1.0000
  H   H2293     1.0  0.66058  0.73182  0.96356  1.0000
  C   C1337     1.0  0.69071  0.95964  0.49380  1.0000
  H   H2294     1.0  0.98329  0.86692  0.91640  1.0000
  H   H2295     1.0  0.96035  0.93690  0.66266  1.0000
  C   C1338     1.0  0.97189  0.74026  0.77681  1.0000
  H   H2296     1.0  0.60569  0.74299  0.63335  1.0000
  H   H2297     1.0  0.98647  0.94646  0.78552  1.0000
  H   H2298     1.0  0.97276  0.73644  0.80501  1.0000
  C   C1339     1.0  0.98269  0.92298  0.75822  1.0000
  H   H2299     1.0  0.78069  0.96491  0.94955  1.0000
  H   H2300     1.0  0.49307  0.86419  0.63387  1.0000
  H   H2301     1.0  0.84414  0.98102  0.96891  1.0000
  S   S382      1.0  0.78725  0.78176  0.96634  1.0000
  C   C1340     1.0  0.85991  0.78221  0.96230  1.0000
  H   H2302     1.0  0.72982  0.74056  0.80962  1.0000
  H   H2303     1.0  0.49377  0.74762  0.52239  1.0000
  C   C1341     1.0  0.66782  0.96703  0.48410  1.0000
  C   C1342     1.0  0.49377  0.83462  0.59357  1.0000
  H   H2304     1.0  0.49115  0.95388  0.53321  1.0000
  C   C1343     1.0  0.64113  0.73175  0.96678  1.0000
  S   S383      1.0  0.97114  0.82562  0.97580  1.0000
  C   C1344     1.0  0.74325  0.86364  0.97528  1.0000
  S   S384      1.0  0.65346  0.87177  0.97572  1.0000
  Fe  Fe192     1.0  0.97150  0.80376  0.97576  1.0000
