data_image0
_chemical_formula_structural       HCSHCH2FeHSFeHSHCHS2H3C6H5C2HCHC3H2NC4HCFeH4SH3CH7NSHC5H4CH2C2H3CH2CNC2H3CH3CH5CH2CH3NSH6CHSH2CSH2SFeSFeSH2C6H11C3H2CFeC2H5CHCHC2HCNHC5H2C3HNCHSH4C2H3CH5NH6C2HCH4SH3C3HC2HCH5SH5CHCHFeS2FeSHFe2HS2HS2FeS2FeSFeSH2CHC2HSHSCNC8H3C4H5SHCH3C6H5CFeC2H5CH4CSH3CFeHCHNH3CH2CH2SH2SHC2H2SHC2HFeHNCHC3H2CH3C2H7CHCH6NCH3CSFeH2SNCHCH5CHC2SH3CH8C2SC2H4SH4CH2CHC2HC2HCH5C2HFeSFeSCFeSFeS3HSFeS3HFeSHSC2H2C6H4CHCFeC6H4SCHFeHSC5H9CSHCH3CH3SH4C2HCHNC8H14CH3FeHCH2NH3CHCH2SH6C2HCNCH3CH2CH2CH7CHCH2CHFeCHCFeHC2H4CNHCH4C3HCHFeSFeS3H3SHCFeS3C2HSHCHSHFeSFeCS3H2C4NH3C9H6C6H5C6H6CHC2HCH7SH5C2HFeHCSHSHCHFeHNC8H25NC4H2C3H2CH4CHSH3FeH7FeHFeCNCHC2H2CH2SNS2HCHC2H3S2H4CH3C2HCHC2H3CH3S2HSFeSH3FeCFeS3CHFeSFeHFeSH2C6H4C6HCH4C2H4SC2HSC3H3C6H3CSHCHCH6CH3CH6SCH3FeCHSCFeSH2FeHC2HFeHCH4NHC3HCH4NC2H2CH3SH2CH2NH2CSH2SHCH2SCHCH4SCHC2H2CHFeH2CH3Fe2SH4S2HFeSH2SFeSFeSH2SHFeSFeSH2SC6H4SHCHCHC2H2C6H5C6H4C5H2C2H4C3HCHCH2CHCHCHCH8CH2FeH2FeH2SHNHCH2CHSH2CHSH2CH6CH2CHNC5HCH7CH2CH2NCSHCH2CNHCH2CH2SCHFeH2CH2SFeCHSCSHFeSFeSH2CHFeS2HFeHSHFeSCSH2SH2C6H4CSCN2H2CHCHC2H3SC6H4C6H4SFeH10C4H3CNFeHC2NHC3H5CFeHSCH5CH2SH2CH2CHC2H3C3FeCSNHCH2CH2NH5CH3FeCH2CH3C2HC2HC2H2CHCHSHCH2C2HCH2CH4C2H5CHSCH2CSHC2H2CHCH9SH2CH4CHSNCHCHSHCSCHCHCHSHFeSFeSFe2S2FeSHSCSHSC2SHC8H7C8H3C6H4C6H4FeH3CH5CH5CSC4H4CHC3H5FeH3CHNH4FeH2NHSC3NHCFeH7C2SHCH3NC8H21CH3CSHSH5CH2CH2SFeC4HSHCHCSH4C2H9SFeHC2SH2FeSH2S2FeSFeSHFeS2FeSHSHFeHSC8H3C6H4CHC7H4C6NCH4CSH4CH2CH5NHCH3CH7SH4CNH2NHFeCH4SHNH7C3H2CSH3C2HCH2C2HFeH2C3HCHC2H2CSC2H2C2H2SH2CH2CHCSCSH5CH3SCHSH2SNSFeSFeSC2HSH4CHCHC3HC6H4C4H5CHC2HCH4CH10CH12CHFeH3CH3SCSFeSFeSH4SHSH4NCSHC6H4C4H2NC3H12FeHFeC3HC2H4C2H4CH7CHCH4CH2C2H2CHCH3CHCH2NHCH3CHCHCHCH3
_chemical_formula_sum              "H1152 C672 S192 Fe96 N48"
_cell_length_a       54.7825
_cell_length_b       35.2644
_cell_length_c       51.6781
_cell_angle_alpha    90.0532
_cell_angle_beta     103.377
_cell_angle_gamma    89.9113

_space_group_name_H-M_alt    "P 1"
_space_group_IT_number       1

loop_
  _space_group_symop_operation_xyz
  'x, y, z'

loop_
  _atom_site_type_symbol
  _atom_site_label
  _atom_site_symmetry_multiplicity
  _atom_site_fract_x
  _atom_site_fract_y
  _atom_site_fract_z
  _atom_site_occupancy
  H   H1        1.0  0.04420  0.20863  0.42432  1.0000
  C   C1        1.0  0.10470  0.46573  0.42784  1.0000
  S   S1        1.0  0.12189  0.06055  0.36394  1.0000
  H   H2        1.0  0.19587  0.11479  0.31876  1.0000
  C   C2        1.0  0.06659  0.11844  0.41969  1.0000
  H   H3        1.0  0.16343  0.15301  0.32787  1.0000
  H   H4        1.0  0.31086  0.36314  0.48479  1.0000
  Fe  Fe1       1.0  0.05100  0.33009  0.37290  1.0000
  H   H5        1.0  0.18631  0.06530  0.29422  1.0000
  S   S2        1.0  0.07869  0.35942  0.40654  1.0000
  Fe  Fe2       1.0  0.03432  0.25187  0.34902  1.0000
  H   H6        1.0  0.05628  0.19038  0.39782  1.0000
  S   S3        1.0  0.03576  0.18743  0.34329  1.0000
  H   H7        1.0  0.07398  0.05959  0.41145  1.0000
  C   C3        1.0  0.16700  0.12632  0.33955  1.0000
  H   H8        1.0  0.07544  0.12786  0.40347  1.0000
  S   S4        1.0  0.05880  0.29744  0.33795  1.0000
  S   S5        1.0  0.02911  0.28229  0.38589  1.0000
  H   H9        1.0  0.04604  0.42450  0.47089  1.0000
  H   H10       1.0  0.05381  0.40078  0.44348  1.0000
  H   H11       1.0  0.02618  0.14107  0.38324  1.0000
  C   C4        1.0  0.09799  0.09591  0.35651  1.0000
  C   C5        1.0  0.07304  0.08694  0.34472  1.0000
  C   C6        1.0  0.05446  0.11550  0.34040  1.0000
  C   C7        1.0  0.06053  0.15349  0.34743  1.0000
  C   C8        1.0  0.08556  0.16264  0.35886  1.0000
  C   C9        1.0  0.10412  0.13394  0.36354  1.0000
  H   H12       1.0  0.06797  0.05788  0.33924  1.0000
  H   H13       1.0  0.03518  0.10802  0.33158  1.0000
  H   H14       1.0  0.09055  0.19168  0.36447  1.0000
  H   H15       1.0  0.12330  0.14127  0.37282  1.0000
  H   H16       1.0  0.16545  0.13331  0.36005  1.0000
  C   C10       1.0  0.08348  0.19621  0.43477  1.0000
  C   C11       1.0  0.28114  0.40524  0.48499  1.0000
  H   H17       1.0  0.07558  0.48469  0.36366  1.0000
  C   C12       1.0  0.17341  0.04828  0.30299  1.0000
  H   H18       1.0  0.32567  0.47066  0.46364  1.0000
  C   C13       1.0  0.07698  0.42951  0.38196  1.0000
  C   C14       1.0  0.08564  0.40831  0.40512  1.0000
  C   C15       1.0  0.09958  0.42656  0.42802  1.0000
  H   H19       1.0  0.06632  0.41581  0.36417  1.0000
  H   H20       1.0  0.10639  0.41035  0.44601  1.0000
  N   N1        1.0  0.19896  0.07132  0.34942  1.0000
  C   C16       1.0  0.19605  0.07079  0.37782  1.0000
  C   C17       1.0  0.19344  0.11127  0.33928  1.0000
  C   C18       1.0  0.22594  0.06176  0.34997  1.0000
  C   C19       1.0  0.18131  0.04244  0.33352  1.0000
  H   H21       1.0  0.01575  0.37510  0.47556  1.0000
  C   C20       1.0  0.23339  0.06021  0.32306  1.0000
  Fe  Fe3       1.0  0.02270  0.32400  0.31496  1.0000
  H   H22       1.0  0.20696  0.09425  0.38957  1.0000
  H   H23       1.0  0.17615  0.07575  0.37856  1.0000
  H   H24       1.0  0.23882  0.08210  0.36295  1.0000
  H   H25       1.0  0.09786  0.17748  0.42945  1.0000
  S   S6        1.0  0.01720  0.36027  0.34882  1.0000
  H   H26       1.0  0.16352  0.04162  0.34041  1.0000
  H   H27       1.0  0.11541  0.47950  0.44556  1.0000
  H   H28       1.0  0.18935  0.01347  0.33722  1.0000
  C   C21       1.0  0.27727  0.47286  0.47337  1.0000
  H   H29       1.0  0.22998  0.08727  0.31197  1.0000
  H   H30       1.0  0.22408  0.03621  0.31075  1.0000
  H   H31       1.0  0.04543  0.07697  0.39121  1.0000
  H   H32       1.0  0.23940  0.44692  0.46206  1.0000
  H   H33       1.0  0.22460  0.03102  0.39985  1.0000
  H   H34       1.0  0.08223  0.11621  0.43775  1.0000
  H   H35       1.0  0.04473  0.45414  0.41235  1.0000
  N   N2        1.0  0.28887  0.44478  0.49481  1.0000
  S   S7        1.0  0.01696  0.34191  0.27179  1.0000
  H   H36       1.0  0.06241  0.14912  0.46631  1.0000
  C   C22       1.0  0.08225  0.46857  0.38173  1.0000
  C   C23       1.0  0.29839  0.37214  0.49784  1.0000
  C   C24       1.0  0.24832  0.47515  0.46610  1.0000
  C   C25       1.0  0.03788  0.40783  0.45269  1.0000
  C   C26       1.0  0.20388  0.03381  0.39355  1.0000
  H   H37       1.0  0.23096  0.03334  0.35877  1.0000
  H   H38       1.0  0.28017  0.40327  0.46324  1.0000
  H   H39       1.0  0.08535  0.19605  0.45658  1.0000
  H   H40       1.0  0.15192  0.10610  0.33065  1.0000
  C   C27       1.0  0.04686  0.48976  0.44655  1.0000
  H   H41       1.0  0.28657  0.34704  0.49936  1.0000
  H   H42       1.0  0.26182  0.39904  0.48731  1.0000
  C   C28       1.0  0.32928  0.44570  0.47707  1.0000
  C   C29       1.0  0.09607  0.48690  0.40463  1.0000
  H   H43       1.0  0.32312  0.41953  0.46560  1.0000
  H   H44       1.0  0.33341  0.08235  0.25652  1.0000
  H   H45       1.0  0.19674  0.03439  0.41201  1.0000
  C   C30       1.0  0.31688  0.45079  0.50079  1.0000
  H   H46       1.0  0.25388  0.05443  0.32680  1.0000
  H   H47       1.0  0.20725  0.13138  0.35127  1.0000
  C   C31       1.0  0.04397  0.14567  0.45201  1.0000
  N   N3        1.0  0.04724  0.14706  0.42385  1.0000
  C   C32       1.0  0.05743  0.07777  0.41173  1.0000
  C   C33       1.0  0.02922  0.37030  0.46284  1.0000
  H   H48       1.0  0.28285  0.46639  0.45446  1.0000
  H   H49       1.0  0.17210  0.02015  0.29310  1.0000
  H   H50       1.0  0.08786  0.22552  0.42934  1.0000
  C   C34       1.0  0.03276  0.10919  0.46088  1.0000
  H   H51       1.0  0.03560  0.49994  0.46043  1.0000
  H   H52       1.0  0.04579  0.35610  0.47565  1.0000
  H   H53       1.0  0.03295  0.17032  0.45662  1.0000
  C   C35       1.0  0.05663  0.18621  0.41922  1.0000
  H   H54       1.0  0.01804  0.48297  0.41114  1.0000
  H   H55       1.0  0.24222  0.49238  0.44773  1.0000
  H   H56       1.0  0.06418  0.47548  0.45770  1.0000
  H   H57       1.0  0.28436  0.50200  0.47888  1.0000
  H   H58       1.0  0.15419  0.06043  0.29718  1.0000
  C   C36       1.0  0.03162  0.46399  0.42447  1.0000
  H   H59       1.0  0.24104  0.49005  0.48171  1.0000
  H   H60       1.0  0.02161  0.35007  0.44659  1.0000
  C   C37       1.0  0.02283  0.14102  0.40365  1.0000
  H   H61       1.0  0.02333  0.39586  0.40074  1.0000
  H   H62       1.0  0.04740  0.06470  0.42567  1.0000
  H   H63       1.0  0.04759  0.08759  0.46791  1.0000
  N   N4        1.0  0.01838  0.43068  0.43355  1.0000
  S   S8        1.0  0.34460  0.01800  0.32772  1.0000
  H   H64       1.0  0.21221  0.02582  0.01361  1.0000
  H   H65       1.0  0.32159  0.47989  0.50870  1.0000
  H   H66       1.0  0.02380  0.11616  0.47753  1.0000
  H   H67       1.0  0.01749  0.09668  0.44552  1.0000
  H   H68       1.0  0.01469  0.11271  0.40543  1.0000
  H   H69       1.0  0.18124  0.04481  0.01130  1.0000
  C   C38       1.0  0.17861  0.04045  0.92923  1.0000
  H   H70       1.0  0.15495  0.39652  0.80126  1.0000
  S   S9        1.0  0.08777  0.47128  0.86024  1.0000
  H   H71       1.0  0.13216  0.32943  0.89927  1.0000
  H   H72       1.0  0.16488  0.45362  0.86887  1.0000
  C   C39       1.0  0.07474  0.48588  0.75071  1.0000
  S   S10       1.0  0.03793  0.19717  0.82116  1.0000
  H   H73       1.0  0.16663  0.43584  0.91832  1.0000
  H   H74       1.0  0.20510  0.39471  0.92076  1.0000
  S   S11       1.0  0.05970  0.21249  0.88476  1.0000
  Fe  Fe4       1.0  0.04527  0.24845  0.84820  1.0000
  S   S12       1.0  0.06722  0.29561  0.83260  1.0000
  Fe  Fe5       1.0  0.04933  0.16171  0.85826  1.0000
  S   S13       1.0  0.07415  0.10985  0.85794  1.0000
  H   H75       1.0  0.12163  0.36928  0.87815  1.0000
  H   H76       1.0  0.28001  0.39970  0.54001  1.0000
  C   C40       1.0  0.08121  0.42296  0.85137  1.0000
  C   C41       1.0  0.06764  0.40115  0.86602  1.0000
  C   C42       1.0  0.06275  0.36235  0.86032  1.0000
  C   C43       1.0  0.07132  0.34490  0.83976  1.0000
  C   C44       1.0  0.08444  0.36697  0.82473  1.0000
  C   C45       1.0  0.08934  0.40575  0.83045  1.0000
  H   H77       1.0  0.06116  0.41417  0.88219  1.0000
  H   H78       1.0  0.05264  0.34582  0.87205  1.0000
  H   H79       1.0  0.09111  0.35375  0.80876  1.0000
  H   H80       1.0  0.09974  0.42211  0.81895  1.0000
  H   H81       1.0  0.28447  0.47528  0.78520  1.0000
  H   H82       1.0  0.13202  0.32659  0.86476  1.0000
  H   H83       1.0  0.02215  0.40165  0.75923  1.0000
  H   H84       1.0  0.20095  0.42044  0.86307  1.0000
  H   H85       1.0  0.24945  0.45902  0.84361  1.0000
  H   H86       1.0  0.01698  0.08487  0.77823  1.0000
  H   H87       1.0  0.06902  0.49521  0.80579  1.0000
  C   C46       1.0  0.09158  0.04125  0.87972  1.0000
  C   C47       1.0  0.07788  0.07413  0.88256  1.0000
  C   C48       1.0  0.06735  0.07758  0.90465  1.0000
  H   H88       1.0  0.26992  0.47165  0.75064  1.0000
  H   H89       1.0  0.05679  0.10280  0.90707  1.0000
  C   C49       1.0  0.02316  0.04796  0.81306  1.0000
  Fe  Fe6       1.0  0.01932  0.21031  0.88824  1.0000
  C   C50       1.0  0.13558  0.34601  0.88218  1.0000
  C   C51       1.0  0.28843  0.42835  0.54366  1.0000
  H   H90       1.0  0.08889  0.46772  0.74437  1.0000
  H   H91       1.0  0.16828  0.35089  0.83996  1.0000
  H   H92       1.0  0.28184  0.44050  0.56070  1.0000
  H   H93       1.0  0.03661  0.04503  0.77650  1.0000
  H   H94       1.0  0.19910  0.04229  0.93034  1.0000
  C   C52       1.0  0.28775  0.47840  0.76488  1.0000
  H   H95       1.0  0.13980  0.07575  0.98774  1.0000
  C   C53       1.0  0.19186  0.02140  0.00495  1.0000
  H   H96       1.0  0.29081  0.48319  0.83875  1.0000
  C   C54       1.0  0.14529  0.04149  0.95332  1.0000
  C   C55       1.0  0.18714  0.01468  0.97455  1.0000
  H   H97       1.0  0.30220  0.45706  0.76305  1.0000
  C   C56       1.0  0.15458  0.42879  0.87433  1.0000
  N   N5        1.0  0.03739  0.48091  0.77349  1.0000
  H   H98       1.0  0.14165  0.46598  0.90207  1.0000
  C   C57       1.0  0.19615  0.39877  0.87668  1.0000
  C   C58       1.0  0.05682  0.46048  0.76212  1.0000
  C   C59       1.0  0.13508  0.04766  0.97840  1.0000
  C   C60       1.0  0.09462  0.01194  0.89870  1.0000
  C   C61       1.0  0.25129  0.48837  0.83836  1.0000
  H   H99       1.0  0.30910  0.42629  0.55013  1.0000
  H   H100      1.0  0.32702  0.43214  0.51687  1.0000
  C   C62       1.0  0.16288  0.36075  0.88865  1.0000
  C   C63       1.0  0.05101  0.50792  0.79468  1.0000
  C   C64       1.0  0.16564  0.40586  0.82120  1.0000
  H   H101      1.0  0.06234  0.05134  0.94076  1.0000
  N   N6        1.0  0.16818  0.39236  0.87106  1.0000
  C   C65       1.0  0.14956  0.43698  0.90205  1.0000
  H   H102      1.0  0.18580  0.40505  0.82074  1.0000
  S   S14       1.0  0.12955  0.50523  0.80989  1.0000
  H   H103      1.0  0.13919  0.37474  0.83704  1.0000
  H   H104      1.0  0.04781  0.44134  0.74555  1.0000
  H   H105      1.0  0.16755  0.36905  0.90992  1.0000
  H   H106      1.0  0.17514  0.33583  0.88753  1.0000
  C   C66       1.0  0.20884  0.41299  0.90471  1.0000
  C   C67       1.0  0.20958  0.09337  0.96887  1.0000
  H   H107      1.0  0.16004  0.43548  0.82397  1.0000
  H   H108      1.0  0.14092  0.02443  0.99296  1.0000
  H   H109      1.0  0.13524  0.41766  0.90671  1.0000
  C   C68       1.0  0.15984  0.37902  0.84258  1.0000
  H   H110      1.0  0.01699  0.07296  0.86015  1.0000
  H   H111      1.0  0.08528  0.50584  0.76568  1.0000
  H   H112      1.0  0.13590  0.42997  0.86025  1.0000
  H   H113      1.0  0.22181  0.07136  0.98056  1.0000
  H   H114      1.0  0.09966  0.03830  0.86260  1.0000
  N   N7        1.0  0.17326  0.04519  0.95648  1.0000
  H   H115      1.0  0.17704  0.09190  0.98496  1.0000
  H   H116      1.0  0.17064  0.10612  0.95163  1.0000
  H   H117      1.0  0.20596  0.37230  0.87294  1.0000
  H   H118      1.0  0.03205  0.50770  0.55439  1.0000
  H   H119      1.0  0.03508  0.07175  0.82297  1.0000
  H   H120      1.0  0.22949  0.41307  0.90677  1.0000
  C   C69       1.0  0.07052  0.04836  0.92370  1.0000
  C   C70       1.0  0.18141  0.08478  0.96571  1.0000
  H   H121      1.0  0.11426  0.04664  0.97261  1.0000
  C   C71       1.0  0.02159  0.01287  0.86700  1.0000
  H   H122      1.0  0.06872  0.44194  0.77750  1.0000
  H   H123      1.0  0.28485  0.48385  0.52586  1.0000
  H   H124      1.0  0.20354  0.44287  0.90747  1.0000
  H   H125      1.0  0.21435  0.09687  0.94928  1.0000
  S   S15       1.0  0.20113  0.49403  0.83843  1.0000
  H   H126      1.0  0.03596  0.49650  0.82994  1.0000
  H   H127      1.0  0.13508  0.06152  0.93781  1.0000
  H   H128      1.0  0.21413  0.12070  0.97961  1.0000
  C   C72       1.0  0.02378  0.45121  0.78580  1.0000
  C   C73       1.0  0.02032  0.50223  0.75111  1.0000
  C   C74       1.0  0.08415  0.01545  0.92082  1.0000
  H   H129      1.0  0.16967  0.06371  0.91565  1.0000
  C   C75       1.0  0.30546  0.49763  0.71871  1.0000
  C   C76       1.0  0.27477  0.50199  0.83558  1.0000
  H   H130      1.0  0.03503  0.02237  0.81844  1.0000
  C   C77       1.0  0.01949  0.05422  0.78286  1.0000
  H   H131      1.0  0.03730  0.43591  0.80192  1.0000
  H   H132      1.0  0.29056  0.47578  0.71616  1.0000
  H   H133      1.0  0.06482  0.50189  0.73290  1.0000
  H   H134      1.0  0.32283  0.48326  0.72986  1.0000
  H   H135      1.0  0.25874  0.45317  0.51523  1.0000
  S   S16       1.0  0.34359  0.48815  0.57364  1.0000
  H   H136      1.0  0.02674  0.01865  0.88871  1.0000
  H   H137      1.0  0.31211  0.47865  0.68093  1.0000
  H   H138      1.0  0.01390  0.48403  0.73321  1.0000
  H   H139      1.0  0.25403  0.50445  0.69884  1.0000
  H   H140      1.0  0.13886  0.01259  0.94629  1.0000
  C   C78       1.0  0.30899  0.50593  0.69046  1.0000
  H   H141      1.0  0.30986  0.37745  0.51807  1.0000
  C   C79       1.0  0.27954  0.45426  0.51934  1.0000
  H   H142      1.0  0.20592  0.00967  0.97027  1.0000
  Fe  Fe7       1.0  0.14225  0.65643  0.44225  1.0000
  S   S17       1.0  0.14569  0.65799  0.48647  1.0000
  S   S18       1.0  0.15355  0.70150  0.41553  1.0000
  Fe  Fe8       1.0  0.12125  0.57458  0.43716  1.0000
  S   S19       1.0  0.12303  0.57005  0.48094  1.0000
  H   H143      1.0  0.24337  0.95578  0.05918  1.0000
  Fe  Fe9       1.0  0.10784  0.62957  0.47794  1.0000
  Fe  Fe10      1.0  0.16102  0.59838  0.48615  1.0000
  H   H144      1.0  0.32803  0.87234  0.25102  1.0000
  S   S20       1.0  0.10360  0.63227  0.43375  1.0000
  S   S21       1.0  0.16022  0.59874  0.44247  1.0000
  H   H145      1.0  0.23567  0.65270  0.49874  1.0000
  S   S22       1.0  0.05490  0.81409  0.17848  1.0000
  S   S23       1.0  0.18641  0.94084  0.30720  1.0000
  Fe  Fe11      1.0  0.12201  0.91321  0.36353  1.0000
  S   S24       1.0  0.12569  0.89489  0.32282  1.0000
  S   S25       1.0  0.11863  0.87404  0.39774  1.0000
  Fe  Fe12      1.0  0.09596  0.93858  0.30776  1.0000
  S   S26       1.0  0.06327  0.93409  0.27176  1.0000
  Fe  Fe13      1.0  0.15289  0.94363  0.32617  1.0000
  S   S27       1.0  0.09008  0.95409  0.34821  1.0000
  H   H146      1.0  0.07502  0.75988  0.41684  1.0000
  H   H147      1.0  0.08483  0.80504  0.35703  1.0000
  C   C80       1.0  0.21780  0.69004  0.45203  1.0000
  H   H148      1.0  0.16905  0.97949  0.24873  1.0000
  C   C81       1.0  0.21764  0.94880  0.32519  1.0000
  C   C82       1.0  0.33192  0.84375  0.03049  1.0000
  H   H149      1.0  0.12973  0.88097  0.19199  1.0000
  S   S28       1.0  0.15139  0.95911  0.36792  1.0000
  H   H150      1.0  0.05397  0.93173  0.04261  1.0000
  S   S29       1.0  0.33466  0.92621  0.32161  1.0000
  C   C83       1.0  0.24861  0.96033  0.36642  1.0000
  N   N8        1.0  0.02830  0.70030  0.20252  1.0000
  C   C84       1.0  0.24696  0.95523  0.03945  1.0000
  C   C85       1.0  0.05548  0.84577  0.20508  1.0000
  C   C86       1.0  0.04005  0.87780  0.20192  1.0000
  C   C87       1.0  0.04233  0.90416  0.22278  1.0000
  C   C88       1.0  0.06003  0.89877  0.24691  1.0000
  C   C89       1.0  0.07490  0.86604  0.25040  1.0000
  C   C90       1.0  0.07259  0.83959  0.22954  1.0000
  C   C91       1.0  0.05369  0.92785  0.02115  1.0000
  H   H151      1.0  0.01748  0.79099  0.22638  1.0000
  H   H152      1.0  0.08827  0.86131  0.26909  1.0000
  H   H153      1.0  0.08445  0.81469  0.23216  1.0000
  C   C92       1.0  0.04667  0.81305  0.03836  1.0000
  C   C93       1.0  0.06663  0.81883  0.06035  1.0000
  C   C94       1.0  0.09064  0.82757  0.05656  1.0000
  C   C95       1.0  0.09467  0.83160  0.03085  1.0000
  H   H154      1.0  0.32230  0.99335  0.19895  1.0000
  H   H155      1.0  0.02670  0.88269  0.18321  1.0000
  H   H156      1.0  0.06368  0.81587  0.08024  1.0000
  H   H157      1.0  0.10614  0.83126  0.07366  1.0000
  H   H158      1.0  0.32362  0.92784  0.01302  1.0000
  S   S30       1.0  0.29826  0.97687  0.37007  1.0000
  H   H159      1.0  0.05324  0.51514  0.43717  1.0000
  C   C96       1.0  0.23920  0.66387  0.44799  1.0000
  H   H160      1.0  0.24127  0.75775  0.45210  1.0000
  H   H161      1.0  0.19588  0.00836  0.38222  1.0000
  H   H162      1.0  0.34197  0.86817  0.04184  1.0000
  C   C97       1.0  0.14439  0.74978  0.41153  1.0000
  C   C98       1.0  0.14927  0.77015  0.38989  1.0000
  C   C99       1.0  0.14173  0.80830  0.38548  1.0000
  C   C100      1.0  0.12950  0.82662  0.40292  1.0000
  C   C101      1.0  0.12508  0.80644  0.42487  1.0000
  C   C102      1.0  0.13246  0.76822  0.42917  1.0000
  H   H163      1.0  0.15866  0.75622  0.37623  1.0000
  H   H164      1.0  0.14530  0.82351  0.36856  1.0000
  H   H165      1.0  0.11574  0.82047  0.43854  1.0000
  H   H166      1.0  0.12900  0.75315  0.44619  1.0000
  H   H167      1.0  0.26019  0.70456  0.49802  1.0000
  C   C103      1.0  0.15371  0.94451  0.21288  1.0000
  Fe  Fe14      1.0  0.33173  0.97155  0.35117  1.0000
  C   C104      1.0  0.24491  0.72551  0.49058  1.0000
  C   C105      1.0  0.21906  0.67139  0.49744  1.0000
  H   H168      1.0  0.04989  0.75109  0.21655  1.0000
  H   H169      1.0  0.03837  0.68717  0.13937  1.0000
  H   H170      1.0  0.08384  0.68777  0.01814  1.0000
  H   H171      1.0  0.06039  0.66229  0.39075  1.0000
  H   H172      1.0  0.27604  0.96345  0.31379  1.0000
  C   C106      1.0  0.25462  0.75199  0.47121  1.0000
  H   H173      1.0  0.26395  0.57338  0.47405  1.0000
  H   H174      1.0  0.21568  0.71276  0.43694  1.0000
  H   H175      1.0  0.06459  0.63639  0.34832  1.0000
  H   H176      1.0  0.04036  0.72615  0.42951  1.0000
  C   C107      1.0  0.07219  0.79017  0.36770  1.0000
  S   S31       1.0  0.12327  0.98600  0.30792  1.0000
  H   H177      1.0  0.34194  0.83764  0.01445  1.0000
  H   H178      1.0  0.14029  0.94203  0.26510  1.0000
  H   H179      1.0  0.08718  0.90101  0.17305  1.0000
  C   C108      1.0  0.33715  0.80888  0.04895  1.0000
  Fe  Fe15      1.0  0.02235  0.81633  0.14204  1.0000
  H   H180      1.0  0.21190  0.78762  0.47324  1.0000
  C   C109      1.0  0.23668  0.95248  0.31122  1.0000
  H   H181      1.0  0.25318  0.96334  0.38784  1.0000
  N   N9        1.0  0.30482  0.85402  0.01874  1.0000
  H   H182      1.0  0.08873  0.67588  0.38226  1.0000
  H   H183      1.0  0.21896  0.58033  0.47509  1.0000
  H   H184      1.0  0.20010  0.67348  0.44581  1.0000
  C   C110      1.0  0.05750  0.66582  0.34926  1.0000
  H   H185      1.0  0.30996  0.86396  0.07938  1.0000
  H   H186      1.0  0.17189  0.90298  0.25712  1.0000
  C   C111      1.0  0.22375  0.95234  0.35289  1.0000
  H   H187      1.0  0.03678  0.66361  0.34479  1.0000
  H   H188      1.0  0.33209  0.78217  0.03760  1.0000
  S   S32       1.0  0.33684  0.98323  0.25544  1.0000
  H   H189      1.0  0.02499  0.70888  0.38425  1.0000
  H   H190      1.0  0.03616  0.72917  0.24075  1.0000
  S   S33       1.0  0.01647  0.80075  0.04203  1.0000
  H   H191      1.0  0.09312  0.71811  0.41813  1.0000
  C   C112      1.0  0.03535  0.73130  0.37600  1.0000
  C   C113      1.0  0.29211  0.86116  0.06407  1.0000
  H   H192      1.0  0.03469  0.73399  0.33233  1.0000
  H   H193      1.0  0.21094  0.93031  0.02126  1.0000
  S   S34       1.0  0.07206  0.64895  0.48912  1.0000
  H   H194      1.0  0.34537  0.85893  0.28298  1.0000
  C   C114      1.0  0.11494  0.97748  0.23764  1.0000
  C   C115      1.0  0.07777  0.74714  0.36786  1.0000
  H   H195      1.0  0.24371  0.74274  0.50832  1.0000
  Fe  Fe16      1.0  0.11963  0.99872  0.34937  1.0000
  H   H196      1.0  0.30637  0.90432  0.04315  1.0000
  N   N10       1.0  0.13901  0.91795  0.22639  1.0000
  C   C116      1.0  0.15739  0.88907  0.24138  1.0000
  H   H197      1.0  0.27216  0.74040  0.46697  1.0000
  C   C117      1.0  0.12012  0.89676  0.20551  1.0000
  C   C118      1.0  0.12653  0.93790  0.24577  1.0000
  C   C119      1.0  0.14630  0.85738  0.25579  1.0000
  H   H198      1.0  0.04359  0.73030  0.17302  1.0000
  H   H199      1.0  0.03067  0.67403  0.50970  1.0000
  C   C120      1.0  0.07644  0.94973  0.01594  1.0000
  H   H200      1.0  0.16784  0.87503  0.22787  1.0000
  H   H201      1.0  0.20241  0.65342  0.48884  1.0000
  H   H202      1.0  0.02240  0.89143  0.04811  1.0000
  C   C121      1.0  0.07589  0.68643  0.21277  1.0000
  C   C122      1.0  0.17504  0.96660  0.23164  1.0000
  H   H203      1.0  0.11032  0.87504  0.21476  1.0000
  H   H204      1.0  0.11152  0.91985  0.25043  1.0000
  H   H205      1.0  0.05610  0.68104  0.42916  1.0000
  H   H206      1.0  0.16196  0.84161  0.26892  1.0000
  H   H207      1.0  0.13451  0.86874  0.26876  1.0000
  H   H208      1.0  0.13555  0.83635  0.24167  1.0000
  H   H209      1.0  0.02312  0.97626  0.03563  1.0000
  C   C123      1.0  0.25838  0.57074  0.49274  1.0000
  H   H210      1.0  0.07530  0.73861  0.34683  1.0000
  C   C124      1.0  0.06807  0.68130  0.37750  1.0000
  H   H211      1.0  0.19525  0.76351  0.44310  1.0000
  H   H212      1.0  0.06961  0.71702  0.45207  1.0000
  H   H213      1.0  0.04674  0.64507  0.20442  1.0000
  H   H214      1.0  0.34370  0.98005  0.16241  1.0000
  H   H215      1.0  0.05276  0.79705  0.35701  1.0000
  H   H216      1.0  0.10585  0.94285  0.17679  1.0000
  N   N11       1.0  0.06302  0.72242  0.38262  1.0000
  C   C125      1.0  0.27015  0.96832  0.03569  1.0000
  H   H217      1.0  0.28596  0.83129  0.06241  1.0000
  H   H218      1.0  0.07584  0.80282  0.38782  1.0000
  H   H219      1.0  0.15634  0.75180  0.02150  1.0000
  C   C126      1.0  0.02749  0.67845  0.15403  1.0000
  S   S35       1.0  0.01420  0.85723  0.10750  1.0000
  Fe  Fe17      1.0  0.33561  0.98209  0.07140  1.0000
  H   H220      1.0  0.08210  0.71149  0.22556  1.0000
  H   H221      1.0  0.23675  0.65823  0.42638  1.0000
  S   S36       1.0  0.12524  0.84118  0.02685  1.0000
  N   N12       1.0  0.22039  0.70523  0.47986  1.0000
  C   C127      1.0  0.07357  0.72920  0.41202  1.0000
  H   H222      1.0  0.23216  0.94961  0.28980  1.0000
  C   C128      1.0  0.26157  0.96026  0.32477  1.0000
  H   H223      1.0  0.25801  0.67652  0.45526  1.0000
  H   H224      1.0  0.08948  0.66332  0.22029  1.0000
  H   H225      1.0  0.28996  0.79965  0.02808  1.0000
  H   H226      1.0  0.07412  0.98085  0.01719  1.0000
  H   H227      1.0  0.18147  0.98990  0.22039  1.0000
  C   C129      1.0  0.05073  0.81679  0.01265  1.0000
  H   H228      1.0  0.08609  0.93188  0.19985  1.0000
  C   C130      1.0  0.02216  0.73588  0.34621  1.0000
  C   C131      1.0  0.23289  0.57475  0.49325  1.0000
  S   S37       1.0  0.01799  0.76413  0.11627  1.0000
  H   H229      1.0  0.25972  0.77994  0.48090  1.0000
  H   H230      1.0  0.20934  0.94886  0.36389  1.0000
  H   H231      1.0  0.23851  0.63597  0.45759  1.0000
  C   C132      1.0  0.26761  0.96453  0.35243  1.0000
  H   H232      1.0  0.09825  0.74331  0.37621  1.0000
  H   H233      1.0  0.03059  0.92923  0.22004  1.0000
  H   H234      1.0  0.27720  0.87654  0.07123  1.0000
  H   H235      1.0  0.32767  0.81019  0.06559  1.0000
  H   H236      1.0  0.18040  0.71492  0.47291  1.0000
  H   H237      1.0  0.05756  0.89718  0.01945  1.0000
  H   H238      1.0  0.16235  0.92854  0.19862  1.0000
  H   H239      1.0  0.07721  0.69254  0.19209  1.0000
  C   C133      1.0  0.19829  0.73060  0.48035  1.0000
  C   C134      1.0  0.09888  0.92020  0.18802  1.0000
  S   S38       1.0  0.10176  0.53621  0.40320  1.0000
  C   C135      1.0  0.22852  0.94083  0.01799  1.0000
  C   C136      1.0  0.04935  0.67325  0.21411  1.0000
  H   H240      1.0  0.06370  0.68199  0.33361  1.0000
  H   H241      1.0  0.04959  0.66732  0.23535  1.0000
  H   H242      1.0  0.09347  0.94152  0.03120  1.0000
  H   H243      1.0  0.03188  0.75801  0.38619  1.0000
  S   S39       1.0  0.29281  0.98578  0.06339  1.0000
  H   H244      1.0  0.17885  0.78273  0.46595  1.0000
  H   H245      1.0  0.11035  0.98372  0.21616  1.0000
  H   H246      1.0  0.19159  0.94816  0.23927  1.0000
  H   H247      1.0  0.09703  0.97995  0.24416  1.0000
  C   C137      1.0  0.29451  0.87876  0.03752  1.0000
  H   H248      1.0  0.14154  0.96573  0.20035  1.0000
  H   H249      1.0  0.27594  0.89080  0.02769  1.0000
  C   C138      1.0  0.05880  0.71207  0.43133  1.0000
  H   H250      1.0  0.03632  0.65181  0.16264  1.0000
  C   C139      1.0  0.34112  0.98179  0.20358  1.0000
  C   C140      1.0  0.19642  0.76795  0.46456  1.0000
  H   H251      1.0  0.12719  0.00021  0.24848  1.0000
  C   C141      1.0  0.02780  0.71098  0.17417  1.0000
  C   C142      1.0  0.03277  0.73605  0.21916  1.0000
  H   H252      1.0  0.19832  0.73957  0.50097  1.0000
  C   C143      1.0  0.02088  0.97637  0.01366  1.0000
  H   H253      1.0  0.18672  0.99536  0.01455  1.0000
  H   H254      1.0  0.11127  0.75612  0.01384  1.0000
  H   H255      1.0  0.12089  0.70787  0.01390  1.0000
  H   H256      1.0  0.34549  0.79202  0.26412  1.0000
  H   H257      1.0  0.25154  0.84063  0.01208  1.0000
  C   C144      1.0  0.29720  0.51901  0.76179  1.0000
  C   C145      1.0  0.14538  0.74656  0.00087  1.0000
  H   H258      1.0  0.12177  0.75922  0.77377  1.0000
  Fe  Fe18      1.0  0.13130  0.86602  0.98844  1.0000
  S   S40       1.0  0.10049  0.87172  0.95185  1.0000
  Fe  Fe19      1.0  0.17017  0.90356  0.96296  1.0000
  S   S41       1.0  0.14167  0.91207  0.92403  1.0000
  C   C146      1.0  0.07556  0.77316  0.93805  1.0000
  Fe  Fe20      1.0  0.11528  0.93051  0.94906  1.0000
  S   S42       1.0  0.08768  0.97960  0.94536  1.0000
  Fe  Fe21      1.0  0.12934  0.85226  0.92995  1.0000
  S   S43       1.0  0.11660  0.81150  0.89513  1.0000
  S   S44       1.0  0.14451  0.92625  0.98753  1.0000
  S   S45       1.0  0.15949  0.84247  0.96698  1.0000
  H   H259      1.0  0.05101  0.54090  0.60254  1.0000
  S   S46       1.0  0.05732  0.66436  0.60718  1.0000
  Fe  Fe22      1.0  0.13734  0.59285  0.85725  1.0000
  S   S47       1.0  0.15620  0.58936  0.82282  1.0000
  S   S48       1.0  0.14619  0.63686  0.89063  1.0000
  S   S49       1.0  0.30849  0.55859  0.51417  1.0000
  H   H260      1.0  0.12792  0.70290  0.95684  1.0000
  Fe  Fe23      1.0  0.11892  0.56614  0.80017  1.0000
  S   S50       1.0  0.10384  0.58035  0.75655  1.0000
  H   H261      1.0  0.10602  0.63502  0.54092  1.0000
  S   S51       1.0  0.09943  0.57366  0.83366  1.0000
  C   C147      1.0  0.25640  0.56402  0.82501  1.0000
  C   C148      1.0  0.23297  0.55047  0.82792  1.0000
  H   H262      1.0  0.25826  0.59346  0.81993  1.0000
  H   H263      1.0  0.21702  0.56942  0.82504  1.0000
  C   C149      1.0  0.02550  0.62502  0.71685  1.0000
  C   C150      1.0  0.03179  0.61856  0.74445  1.0000
  C   C151      1.0  0.05559  0.60413  0.75699  1.0000
  C   C152      1.0  0.07298  0.59534  0.74187  1.0000
  C   C153      1.0  0.06625  0.60037  0.71420  1.0000
  C   C154      1.0  0.04264  0.61517  0.70173  1.0000
  H   H264      1.0  0.09769  0.65311  0.93078  1.0000
  H   H265      1.0  0.06074  0.60109  0.77839  1.0000
  H   H266      1.0  0.07962  0.59369  0.70237  1.0000
  H   H267      1.0  0.03797  0.61988  0.68046  1.0000
  C   C155      1.0  0.04576  0.66688  0.52651  1.0000
  H   H268      1.0  0.19926  0.69004  0.52787  1.0000
  C   C156      1.0  0.07494  0.72110  0.98089  1.0000
  Fe  Fe24      1.0  0.34366  0.52742  0.82923  1.0000
  C   C157      1.0  0.12597  0.76346  0.89355  1.0000
  C   C158      1.0  0.14448  0.74700  0.91364  1.0000
  C   C159      1.0  0.15067  0.70838  0.91212  1.0000
  C   C160      1.0  0.13870  0.68586  0.89040  1.0000
  C   C161      1.0  0.12051  0.70247  0.87004  1.0000
  C   C162      1.0  0.11415  0.74106  0.87168  1.0000
  H   H269      1.0  0.15403  0.76399  0.93035  1.0000
  H   H270      1.0  0.16487  0.69581  0.92787  1.0000
  H   H271      1.0  0.11109  0.68544  0.85329  1.0000
  H   H272      1.0  0.09985  0.75356  0.85601  1.0000
  S   S52       1.0  0.30640  0.55866  0.82472  1.0000
  C   C163      1.0  0.27744  0.53996  0.82891  1.0000
  H   H273      1.0  0.31666  0.58725  0.77468  1.0000
  Fe  Fe25      1.0  0.16536  0.52891  0.83524  1.0000
  H   H274      1.0  0.27196  0.57578  0.73234  1.0000
  S   S53       1.0  0.01660  0.71457  0.65036  1.0000
  C   C164      1.0  0.08823  0.64498  0.54404  1.0000
  C   C165      1.0  0.08460  0.64877  0.57003  1.0000
  C   C166      1.0  0.06154  0.66149  0.57434  1.0000
  C   C167      1.0  0.04216  0.67069  0.55247  1.0000
  C   C168      1.0  0.02474  0.53624  0.54724  1.0000
  H   H275      1.0  0.09969  0.64161  0.58687  1.0000
  H   H276      1.0  0.02446  0.68090  0.55559  1.0000
  H   H277      1.0  0.33931  0.54327  0.74718  1.0000
  H   H278      1.0  0.32583  0.52335  0.69069  1.0000
  H   H279      1.0  0.28311  0.55352  0.55828  1.0000
  H   H280      1.0  0.28483  0.53884  0.76972  1.0000
  H   H281      1.0  0.11555  0.76524  0.94912  1.0000
  H   H282      1.0  0.01709  0.53326  0.52539  1.0000
  H   H283      1.0  0.11169  0.80406  0.75960  1.0000
  C   C169      1.0  0.26111  0.82553  0.99836  1.0000
  S   S54       1.0  0.21033  0.92292  0.96453  1.0000
  H   H284      1.0  0.07881  0.79797  0.92608  1.0000
  C   C170      1.0  0.09978  0.76461  0.95932  1.0000
  H   H285      1.0  0.31567  0.52035  0.77639  1.0000
  H   H286      1.0  0.30676  0.85765  0.97726  1.0000
  H   H287      1.0  0.25164  0.79766  0.99391  1.0000
  C   C171      1.0  0.04749  0.56322  0.55021  1.0000
  H   H288      1.0  0.07269  0.68219  0.93457  1.0000
  H   H289      1.0  0.32396  0.56911  0.71847  1.0000
  H   H290      1.0  0.07821  0.65922  0.98796  1.0000
  S   S55       1.0  0.14901  0.53359  0.87117  1.0000
  H   H291      1.0  0.05993  0.78107  0.94737  1.0000
  H   H292      1.0  0.03941  0.00857  0.86075  1.0000
  H   H293      1.0  0.03453  0.58421  0.60722  1.0000
  H   H294      1.0  0.03086  0.52527  0.74377  1.0000
  C   C172      1.0  0.26924  0.55938  0.54012  1.0000
  C   C173      1.0  0.02942  0.94281  0.97518  1.0000
  H   H295      1.0  0.10478  0.98645  0.89605  1.0000
  C   C174      1.0  0.07454  0.82657  0.00890  1.0000
  H   H296      1.0  0.01540  0.60714  0.56878  1.0000
  N   N13       1.0  0.08691  0.71729  0.73179  1.0000
  C   C175      1.0  0.07817  0.70731  0.70266  1.0000
  C   C176      1.0  0.06453  0.71436  0.74407  1.0000
  C   C177      1.0  0.10689  0.68900  0.74467  1.0000
  C   C178      1.0  0.09734  0.75701  0.73349  1.0000
  C   C179      1.0  0.09883  0.70259  0.68699  1.0000
  C   C180      1.0  0.04148  0.73872  0.73130  1.0000
  C   C181      1.0  0.10942  0.67991  0.77448  1.0000
  C   C182      1.0  0.10547  0.77441  0.76146  1.0000
  H   H297      1.0  0.06724  0.68050  0.70019  1.0000
  H   H298      1.0  0.06516  0.72931  0.69178  1.0000
  H   H299      1.0  0.06943  0.72165  0.76553  1.0000
  H   H300      1.0  0.05798  0.68448  0.74321  1.0000
  H   H301      1.0  0.10340  0.66085  0.73466  1.0000
  H   H302      1.0  0.12571  0.69790  0.74218  1.0000
  H   H303      1.0  0.11415  0.75826  0.72491  1.0000
  H   H304      1.0  0.08350  0.77679  0.72125  1.0000
  H   H305      1.0  0.08978  0.69460  0.66614  1.0000
  H   H306      1.0  0.10913  0.72934  0.68594  1.0000
  H   H307      1.0  0.11224  0.67952  0.69498  1.0000
  H   H308      1.0  0.02718  0.73579  0.74332  1.0000
  H   H309      1.0  0.04604  0.76926  0.73085  1.0000
  H   H310      1.0  0.03232  0.72856  0.71106  1.0000
  C   C183      1.0  0.32153  0.55829  0.73791  1.0000
  H   H311      1.0  0.03457  0.54461  0.62839  1.0000
  H   H312      1.0  0.08020  0.94226  0.99637  1.0000
  H   H313      1.0  0.08991  0.77588  0.77183  1.0000
  Fe  Fe26      1.0  0.01937  0.67841  0.61530  1.0000
  H   H314      1.0  0.25930  0.95404  0.96873  1.0000
  C   C184      1.0  0.32291  0.90921  0.99564  1.0000
  H   H315      1.0  0.06976  0.74952  0.92394  1.0000
  H   H316      1.0  0.02148  0.88910  0.95309  1.0000
  N   N14       1.0  0.29964  0.53126  0.73438  1.0000
  H   H317      1.0  0.17731  0.00146  0.89631  1.0000
  H   H318      1.0  0.11432  0.67056  0.97466  1.0000
  H   H319      1.0  0.09598  0.70082  0.91814  1.0000
  C   C185      1.0  0.23289  0.94021  0.99238  1.0000
  H   H320      1.0  0.17819  0.97776  0.92690  1.0000
  C   C186      1.0  0.09287  0.68287  0.93473  1.0000
  H   H321      1.0  0.05117  0.58159  0.56795  1.0000
  H   H322      1.0  0.17715  0.98711  0.97022  1.0000
  S   S56       1.0  0.19401  0.57970  0.51942  1.0000
  H   H323      1.0  0.27950  0.56552  0.70154  1.0000
  H   H324      1.0  0.03533  0.81236  0.99557  1.0000
  H   H325      1.0  0.14958  0.00039  0.90850  1.0000
  H   H326      1.0  0.12652  0.66240  0.78175  1.0000
  H   H327      1.0  0.06478  0.54611  0.55148  1.0000
  H   H328      1.0  0.23275  0.70024  0.53632  1.0000
  C   C187      1.0  0.24379  0.56402  0.54069  1.0000
  C   C188      1.0  0.27444  0.96785  0.01004  1.0000
  H   H329      1.0  0.11103  0.70520  0.78736  1.0000
  C   C189      1.0  0.32000  0.59399  0.75485  1.0000
  N   N15       1.0  0.10037  0.72856  0.97532  1.0000
  C   C190      1.0  0.10964  0.69575  0.96147  1.0000
  H   H330      1.0  0.06007  0.71850  0.96237  1.0000
  H   H331      1.0  0.04830  0.54277  0.82871  1.0000
  H   H332      1.0  0.04575  0.58096  0.53212  1.0000
  C   C191      1.0  0.21812  0.67993  0.52650  1.0000
  H   H333      1.0  0.09336  0.66260  0.77739  1.0000
  H   H334      1.0  0.01597  0.88030  0.99949  1.0000
  C   C192      1.0  0.25586  0.95403  0.98852  1.0000
  H   H335      1.0  0.23680  0.54666  0.70136  1.0000
  H   H336      1.0  0.23825  0.56176  0.55942  1.0000
  C   C193      1.0  0.27640  0.55203  0.71997  1.0000
  H   H337      1.0  0.30541  0.61405  0.74441  1.0000
  H   H338      1.0  0.28489  0.88938  0.98617  1.0000
  H   H339      1.0  0.34204  0.89824  0.99633  1.0000
  H   H340      1.0  0.22144  0.65315  0.53814  1.0000
  H   H341      1.0  0.07723  0.83000  0.98905  1.0000
  H   H342      1.0  0.10285  0.78985  0.97259  1.0000
  H   H343      1.0  0.06908  0.74573  0.99160  1.0000
  C   C194      1.0  0.25227  0.52828  0.71228  1.0000
  H   H344      1.0  0.33821  0.60923  0.75837  1.0000
  C   C195      1.0  0.30377  0.87651  0.99359  1.0000
  H   H345      1.0  0.14555  0.77345  0.98993  1.0000
  H   H346      1.0  0.01860  0.62625  0.75626  1.0000
  C   C196      1.0  0.22553  0.57208  0.51734  1.0000
  H   H347      1.0  0.29706  0.80168  0.99659  1.0000
  Fe  Fe27      1.0  0.11265  0.51384  0.84493  1.0000
  C   C197      1.0  0.06878  0.65402  0.52218  1.0000
  H   H348      1.0  0.24645  0.51777  0.73012  1.0000
  C   C198      1.0  0.03391  0.55286  0.60749  1.0000
  Fe  Fe28      1.0  0.34245  0.53668  0.54512  1.0000
  H   H349      1.0  0.01839  0.53209  0.80800  1.0000
  C   C199      1.0  0.23029  0.51255  0.83465  1.0000
  C   C200      1.0  0.27670  0.56316  0.51615  1.0000
  H   H350      1.0  0.05168  0.88982  0.97595  1.0000
  H   H351      1.0  0.25802  0.84102  0.97920  1.0000
  H   H352      1.0  0.04123  0.96732  0.97201  1.0000
  H   H353      1.0  0.04736  0.91616  0.94625  1.0000
  C   C201      1.0  0.03782  0.90725  0.96203  1.0000
  N   N16       1.0  0.02844  0.93872  0.00395  1.0000
  H   H354      1.0  0.29219  0.51926  0.67757  1.0000
  C   C202      1.0  0.28923  0.81881  0.01095  1.0000
  H   H355      1.0  0.31760  0.92721  0.97758  1.0000
  H   H356      1.0  0.05639  0.53423  0.78557  1.0000
  H   H357      1.0  0.05293  0.68175  0.99843  1.0000
  H   H358      1.0  0.29190  0.97878  0.00675  1.0000
  C   C203      1.0  0.03724  0.52028  0.81623  1.0000
  C   C204      1.0  0.17026  0.00269  0.91480  1.0000
  C   C205      1.0  0.07282  0.68526  0.99732  1.0000
  H   H359      1.0  0.15543  0.72425  0.99229  1.0000
  C   C206      1.0  0.11856  0.73431  0.00187  1.0000
  H   H360      1.0  0.03356  0.99928  0.00984  1.0000
  Fe  Fe29      1.0  0.46222  0.21225  0.46166  1.0000
  S   S57       1.0  0.42611  0.17853  0.44788  1.0000
  Fe  Fe30      1.0  0.50055  0.27037  0.45118  1.0000
  S   S58       1.0  0.51271  0.30296  0.41830  1.0000
  S   S59       1.0  0.49842  0.20671  0.44881  1.0000
  S   S60       1.0  0.46231  0.27621  0.46004  1.0000
  H   H361      1.0  0.39327  0.10409  0.30915  1.0000
  H   H362      1.0  0.65849  0.43811  0.23403  1.0000
  H   H363      1.0  0.61970  0.25874  0.44393  1.0000
  S   S61       1.0  0.41459  0.04822  0.36020  1.0000
  H   H364      1.0  0.51017  0.47284  0.44058  1.0000
  C   C207      1.0  0.41205  0.21770  0.04607  1.0000
  Fe  Fe31      1.0  0.63229  0.44366  0.12046  1.0000
  S   S62       1.0  0.61817  0.39133  0.09563  1.0000
  S   S63       1.0  0.64846  0.48818  0.43857  1.0000
  S   S64       1.0  0.65640  0.43418  0.16153  1.0000
  C   C208      1.0  0.61078  0.27169  0.45915  1.0000
  C   C209      1.0  0.42709  0.25350  0.10039  1.0000
  H   H365      1.0  0.47354  0.24144  0.09264  1.0000
  S   S65       1.0  0.51130  0.31396  0.05214  1.0000
  H   H366      1.0  0.41165  0.20529  0.02616  1.0000
  C   C210      1.0  0.62074  0.49204  0.26301  1.0000
  H   H367      1.0  0.42569  0.21437  0.49845  1.0000
  S   S66       1.0  0.41390  0.07068  0.07814  1.0000
  H   H368      1.0  0.34996  0.44383  0.48470  1.0000
  Fe  Fe32      1.0  0.64861  0.45286  0.36734  1.0000
  S   S67       1.0  0.65413  0.42867  0.32787  1.0000
  Fe  Fe33      1.0  0.63089  0.43515  0.41821  1.0000
  C   C211      1.0  0.38444  0.22152  0.04798  1.0000
  S   S68       1.0  0.61289  0.40027  0.44575  1.0000
  S   S69       1.0  0.61256  0.46469  0.38006  1.0000
  S   S70       1.0  0.66086  0.48096  0.10764  1.0000
  H   H369      1.0  0.38694  0.08151  0.02268  1.0000
  H   H370      1.0  0.42060  0.19506  0.06010  1.0000
  C   C212      1.0  0.43049  0.03001  0.29726  1.0000
  C   C213      1.0  0.42095  0.09585  0.05115  1.0000
  C   C214      1.0  0.44343  0.11662  0.05540  1.0000
  C   C215      1.0  0.44918  0.13890  0.03500  1.0000
  N   N17       1.0  0.60203  0.24117  0.47535  1.0000
  H   H371      1.0  0.50430  0.42417  0.40320  1.0000
  H   H372      1.0  0.45640  0.11567  0.07469  1.0000
  H   H373      1.0  0.46649  0.15481  0.03855  1.0000
  C   C216      1.0  0.63163  0.47777  0.24284  1.0000
  C   C217      1.0  0.65681  0.43508  0.27547  1.0000
  C   C218      1.0  0.64585  0.44932  0.29562  1.0000
  C   C219      1.0  0.58786  0.37207  0.08285  1.0000
  C   C220      1.0  0.56622  0.38693  0.08912  1.0000
  C   C221      1.0  0.54282  0.36901  0.07959  1.0000
  C   C222      1.0  0.54076  0.33673  0.06316  1.0000
  C   C223      1.0  0.56232  0.32247  0.05648  1.0000
  C   C224      1.0  0.58572  0.33984  0.06648  1.0000
  H   H374      1.0  0.56753  0.41206  0.10129  1.0000
  H   H375      1.0  0.52621  0.38036  0.08472  1.0000
  H   H376      1.0  0.56105  0.29762  0.04395  1.0000
  H   H377      1.0  0.60232  0.32815  0.06148  1.0000
  H   H378      1.0  0.62945  0.35966  0.14971  1.0000
  H   H379      1.0  0.57429  0.23613  0.49882  1.0000
  C   C225      1.0  0.42336  0.14188  0.42383  1.0000
  C   C226      1.0  0.40173  0.11905  0.41827  1.0000
  C   C227      1.0  0.39885  0.08991  0.39909  1.0000
  C   C228      1.0  0.41753  0.08360  0.38513  1.0000
  C   C229      1.0  0.43909  0.10652  0.39062  1.0000
  C   C230      1.0  0.44207  0.13539  0.40995  1.0000
  H   H380      1.0  0.38714  0.12390  0.42887  1.0000
  H   H381      1.0  0.38215  0.07252  0.39500  1.0000
  H   H382      1.0  0.45363  0.10185  0.37994  1.0000
  H   H383      1.0  0.45876  0.15278  0.41397  1.0000
  H   H384      1.0  0.45517  0.22631  0.03256  1.0000
  C   C231      1.0  0.54041  0.33038  0.42581  1.0000
  C   C232      1.0  0.55100  0.34345  0.40516  1.0000
  C   C233      1.0  0.57319  0.36520  0.41079  1.0000
  C   C234      1.0  0.58492  0.37371  0.43715  1.0000
  C   C235      1.0  0.57422  0.36080  0.45772  1.0000
  C   C236      1.0  0.55196  0.33959  0.45206  1.0000
  H   H385      1.0  0.54205  0.33664  0.38476  1.0000
  H   H386      1.0  0.58127  0.37507  0.39480  1.0000
  H   H387      1.0  0.58303  0.36769  0.47815  1.0000
  H   H388      1.0  0.54356  0.33075  0.46803  1.0000
  H   H389      1.0  0.54692  0.46264  0.47559  1.0000
  H   H390      1.0  0.59465  0.28855  0.44787  1.0000
  C   C237      1.0  0.52295  0.43174  0.41588  1.0000
  H   H391      1.0  0.57418  0.46395  0.41876  1.0000
  C   C238      1.0  0.38624  0.16731  0.50609  1.0000
  C   C239      1.0  0.56168  0.23305  0.43785  1.0000
  H   H392      1.0  0.44345  0.26346  0.11586  1.0000
  C   C240      1.0  0.55959  0.46597  0.46167  1.0000
  H   H393      1.0  0.41017  0.25897  0.10824  1.0000
  H   H394      1.0  0.43011  0.01071  0.04871  1.0000
  H   H395      1.0  0.40994  0.26123  0.46513  1.0000
  H   H396      1.0  0.37615  0.19265  0.04712  1.0000
  H   H397      1.0  0.56523  0.44189  0.17738  1.0000
  H   H398      1.0  0.44073  0.05123  0.31154  1.0000
  H   H399      1.0  0.48491  0.01896  0.02906  1.0000
  S   S71       1.0  0.35956  0.01781  0.10410  1.0000
  H   H400      1.0  0.35256  0.10698  0.28414  1.0000
  H   H401      1.0  0.55022  0.24875  0.44935  1.0000
  H   H402      1.0  0.56645  0.25179  0.42252  1.0000
  H   H403      1.0  0.54952  0.21027  0.42694  1.0000
  H   H404      1.0  0.37023  0.10856  0.24290  1.0000
  C   C241      1.0  0.56471  0.49191  0.41918  1.0000
  C   C242      1.0  0.41699  0.23975  0.50543  1.0000
  H   H405      1.0  0.55078  0.47593  0.37720  1.0000
  Fe  Fe34      1.0  0.48292  0.27312  0.50284  1.0000
  H   H406      1.0  0.38366  0.23734  0.47169  1.0000
  C   C243      1.0  0.52225  0.47285  0.42592  1.0000
  S   S72       1.0  0.66545  0.41848  0.40423  1.0000
  H   H407      1.0  0.42903  0.32765  0.49476  1.0000
  S   S73       1.0  0.54973  0.16598  0.50309  1.0000
  H   H408      1.0  0.37936  0.15587  0.27367  1.0000
  C   C244      1.0  0.42534  0.27594  0.07422  1.0000
  H   H409      1.0  0.62028  0.31953  0.48706  1.0000
  Fe  Fe35      1.0  0.50557  0.27424  0.01638  1.0000
  H   H410      1.0  0.59893  0.48501  0.46576  1.0000
  N   N18       1.0  0.59696  0.37234  0.18588  1.0000
  C   C245      1.0  0.59303  0.38875  0.21168  1.0000
  C   C246      1.0  0.59322  0.40438  0.16602  1.0000
  C   C247      1.0  0.62375  0.35860  0.19091  1.0000
  C   C248      1.0  0.57871  0.34011  0.17742  1.0000
  C   C249      1.0  0.59942  0.36265  0.23629  1.0000
  C   C250      1.0  0.56725  0.42374  0.16043  1.0000
  C   C251      1.0  0.63221  0.34075  0.16720  1.0000
  C   C252      1.0  0.57234  0.32928  0.14751  1.0000
  H   H411      1.0  0.60428  0.41507  0.21700  1.0000
  H   H412      1.0  0.57315  0.39748  0.20965  1.0000
  H   H413      1.0  0.59659  0.39562  0.14658  1.0000
  H   H414      1.0  0.60732  0.42702  0.17304  1.0000
  H   H415      1.0  0.63691  0.38225  0.19870  1.0000
  H   H416      1.0  0.62745  0.33624  0.20647  1.0000
  H   H417      1.0  0.58560  0.31404  0.18898  1.0000
  H   H418      1.0  0.56041  0.34703  0.18225  1.0000
  H   H419      1.0  0.59079  0.33421  0.23232  1.0000
  H   H420      1.0  0.62003  0.36003  0.24404  1.0000
  H   H421      1.0  0.59212  0.37573  0.25259  1.0000
  H   H422      1.0  0.67059  0.41261  0.28012  1.0000
  H   H423      1.0  0.55164  0.40310  0.15564  1.0000
  H   H424      1.0  0.40229  0.16983  0.30250  1.0000
  H   H425      1.0  0.36740  0.22055  0.50575  1.0000
  H   H426      1.0  0.62294  0.31306  0.16152  1.0000
  H   H427      1.0  0.65269  0.33495  0.17323  1.0000
  H   H428      1.0  0.57054  0.29797  0.14559  1.0000
  H   H429      1.0  0.58629  0.33764  0.13623  1.0000
  H   H430      1.0  0.55368  0.34070  0.13730  1.0000
  H   H431      1.0  0.39712  0.28189  0.02177  1.0000
  H   H432      1.0  0.42884  0.22246  0.09869  1.0000
  H   H433      1.0  0.40723  0.29180  0.07027  1.0000
  H   H434      1.0  0.52663  0.41134  0.43267  1.0000
  H   H435      1.0  0.46024  0.19616  0.07937  1.0000
  N   N19       1.0  0.39925  0.08007  0.27230  1.0000
  C   C253      1.0  0.40424  0.10983  0.29388  1.0000
  C   C254      1.0  0.40296  0.04175  0.28561  1.0000
  C   C255      1.0  0.37284  0.08267  0.25553  1.0000
  C   C256      1.0  0.41702  0.08590  0.25436  1.0000
  H   H436      1.0  0.48778  0.21431  0.07128  1.0000
  H   H437      1.0  0.59577  0.20048  0.44285  1.0000
  C   C257      1.0  0.39904  0.15125  0.28463  1.0000
  C   C258      1.0  0.41504  0.05669  0.23159  1.0000
  C   C259      1.0  0.46932  0.22263  0.07499  1.0000
  H   H438      1.0  0.42416  0.10880  0.30518  1.0000
  H   H439      1.0  0.39392  0.01887  0.27197  1.0000
  C   C260      1.0  0.45430  0.24376  0.05032  1.0000
  H   H440      1.0  0.57780  0.19182  0.46671  1.0000
  H   H441      1.0  0.61931  0.48936  0.30453  1.0000
  H   H442      1.0  0.41369  0.11395  0.24435  1.0000
  H   H443      1.0  0.43689  0.08767  0.26581  1.0000
  C   C261      1.0  0.64997  0.44947  0.24930  1.0000
  H   H444      1.0  0.39324  0.04050  0.30227  1.0000
  S   S74       1.0  0.61112  0.49223  0.13323  1.0000
  H   H445      1.0  0.57487  0.28099  0.48380  1.0000
  H   H446      1.0  0.41207  0.16098  0.27250  1.0000
  H   H447      1.0  0.51151  0.48965  0.40902  1.0000
  Fe  Fe36      1.0  0.51717  0.20782  0.49244  1.0000
  H   H448      1.0  0.46553  0.26943  0.04892  1.0000
  H   H449      1.0  0.37295  0.23745  0.03098  1.0000
  H   H450      1.0  0.40919  0.02816  0.23661  1.0000
  H   H451      1.0  0.43374  0.05274  0.22705  1.0000
  H   H452      1.0  0.39035  0.36322  0.49749  1.0000
  H   H453      1.0  0.56544  0.44293  0.14306  1.0000
  H   H454      1.0  0.56295  0.43691  0.45509  1.0000
  Fe  Fe37      1.0  0.38705  0.02097  0.07764  1.0000
  H   H455      1.0  0.53701  0.42768  0.40381  1.0000
  Fe  Fe38      1.0  0.63748  0.48541  0.17368  1.0000
  C   C262      1.0  0.62926  0.30127  0.47445  1.0000
  N   N20       1.0  0.42739  0.25368  0.04989  1.0000
  C   C263      1.0  0.40440  0.09711  0.02613  1.0000
  H   H456      1.0  0.63833  0.23528  0.50343  1.0000
  C   C264      1.0  0.58513  0.21488  0.45602  1.0000
  C   C265      1.0  0.39921  0.25673  0.48065  1.0000
  H   H457      1.0  0.44016  0.29823  0.07845  1.0000
  H   H458      1.0  0.38247  0.23448  0.06690  1.0000
  C   C266      1.0  0.62801  0.47829  0.28931  1.0000
  H   H459      1.0  0.36886  0.05858  0.24116  1.0000
  H   H460      1.0  0.40149  0.06638  0.21330  1.0000
  S   S75       1.0  0.52143  0.27133  0.49397  1.0000
  N   N21       1.0  0.54744  0.49027  0.43812  1.0000
  S   S76       1.0  0.66724  0.50704  0.38447  1.0000
  S   S77       1.0  0.62032  0.49421  0.20965  1.0000
  H   H461      1.0  0.42279  0.33649  0.04113  1.0000
  C   C267      1.0  0.58533  0.47947  0.47821  1.0000
  H   H462      1.0  0.63457  0.20640  0.47513  1.0000
  C   C268      1.0  0.62425  0.21797  0.48964  1.0000
  C   C269      1.0  0.35193  0.08206  0.27093  1.0000
  H   H463      1.0  0.36768  0.15358  0.49882  1.0000
  H   H464      1.0  0.63477  0.32060  0.45980  1.0000
  H   H465      1.0  0.58359  0.50477  0.49043  1.0000
  S   S78       1.0  0.48074  0.20925  0.50533  1.0000
  S   S79       1.0  0.50652  0.21045  0.01883  1.0000
  H   H466      1.0  0.45987  0.04867  0.03316  1.0000
  H   H467      1.0  0.39198  0.28480  0.48468  1.0000
  H   H468      1.0  0.39429  0.17141  0.48847  1.0000
  H   H469      1.0  0.35268  0.05574  0.28263  1.0000
  C   C270      1.0  0.55273  0.50181  0.38978  1.0000
  H   H470      1.0  0.64685  0.28862  0.48620  1.0000
  H   H471      1.0  0.44071  0.02457  0.28145  1.0000
  H   H472      1.0  0.59362  0.45660  0.49233  1.0000
  C   C271      1.0  0.58723  0.25785  0.49389  1.0000
  C   C272      1.0  0.46515  0.02692  0.01973  1.0000
  H   H473      1.0  0.60928  0.16053  0.49302  1.0000
  C   C273      1.0  0.61807  0.18421  0.50602  1.0000
  H   H474      1.0  0.44921  0.31933  0.02904  1.0000
  C   C274      1.0  0.41773  0.27783  0.02546  1.0000
  C   C275      1.0  0.42854  0.31846  0.02596  1.0000
  H   H475      1.0  0.61193  0.15850  0.89190  1.0000
  H   H476      1.0  0.61023  0.23217  0.99501  1.0000
  H   H477      1.0  0.38704  0.39960  0.79740  1.0000
  C   C276      1.0  0.42832  0.34324  0.51258  1.0000
  H   H478      1.0  0.58948  0.11281  0.52194  1.0000
  H   H479      1.0  0.63802  0.11775  0.96661  1.0000
  H   H480      1.0  0.48064  0.07022  0.99820  1.0000
  S   S80       1.0  0.37674  0.40608  0.53979  1.0000
  S   S81       1.0  0.43667  0.17346  0.98545  1.0000
  H   H481      1.0  0.64776  0.04038  0.82073  1.0000
  S   S82       1.0  0.64978  0.05369  0.88309  1.0000
  Fe  Fe39      1.0  0.61770  0.04024  0.90193  1.0000
  S   S83       1.0  0.58182  0.07491  0.89381  1.0000
  H   H482      1.0  0.41644  0.19432  0.56376  1.0000
  H   H483      1.0  0.46388  0.36335  0.57405  1.0000
  H   H484      1.0  0.58037  0.02489  0.58205  1.0000
  Fe  Fe40      1.0  0.52540  0.21319  0.98447  1.0000
  C   C277      1.0  0.38256  0.20514  0.51980  1.0000
  Fe  Fe41      1.0  0.48951  0.27454  0.95572  1.0000
  S   S84       1.0  0.48242  0.31539  0.92056  1.0000
  S   S85       1.0  0.52729  0.27701  0.98461  1.0000
  S   S86       1.0  0.48958  0.21063  0.95290  1.0000
  C   C278      1.0  0.65358  0.13680  0.96433  1.0000
  H   H485      1.0  0.55819  0.03312  0.72294  1.0000
  Fe  Fe42      1.0  0.38022  0.46455  0.85378  1.0000
  S   S87       1.0  0.38371  0.41455  0.88218  1.0000
  Fe  Fe43      1.0  0.67477  0.04137  0.92335  1.0000
  H   H486      1.0  0.64522  0.15924  0.90349  1.0000
  Fe  Fe44      1.0  0.62684  0.05566  0.63188  1.0000
  S   S88       1.0  0.59615  0.09961  0.61835  1.0000
  H   H487      1.0  0.41617  0.34293  0.85523  1.0000
  H   H488      1.0  0.57870  0.03318  0.53704  1.0000
  C   C279      1.0  0.45569  0.34528  0.91282  1.0000
  C   C280      1.0  0.43345  0.33580  0.92016  1.0000
  C   C281      1.0  0.41176  0.35811  0.91138  1.0000
  C   C282      1.0  0.41217  0.39034  0.89551  1.0000
  C   C283      1.0  0.43469  0.40078  0.88912  1.0000
  C   C284      1.0  0.45625  0.37799  0.89741  1.0000
  H   H489      1.0  0.43274  0.31058  0.93186  1.0000
  H   H490      1.0  0.39442  0.34985  0.91643  1.0000
  H   H491      1.0  0.43531  0.42579  0.87719  1.0000
  H   H492      1.0  0.47341  0.38556  0.89172  1.0000
  C   C285      1.0  0.57438  0.10118  0.92008  1.0000
  C   C286      1.0  0.58683  0.09444  0.94646  1.0000
  C   C287      1.0  0.58125  0.11627  0.96706  1.0000
  C   C288      1.0  0.56326  0.14529  0.96151  1.0000
  C   C289      1.0  0.55016  0.15137  0.93521  1.0000
  C   C290      1.0  0.55567  0.12924  0.91455  1.0000
  H   H493      1.0  0.60085  0.07256  0.95104  1.0000
  C   C291      1.0  0.62364  0.17756  0.93292  1.0000
  H   H494      1.0  0.53625  0.17371  0.93072  1.0000
  H   H495      1.0  0.54577  0.13445  0.89419  1.0000
  H   H496      1.0  0.43844  0.39243  0.77598  1.0000
  H   H497      1.0  0.40112  0.25837  0.56425  1.0000
  C   C292      1.0  0.67514  0.13199  0.98924  1.0000
  C   C293      1.0  0.44881  0.22806  0.56221  1.0000
  H   H498      1.0  0.40205  0.33778  0.74519  1.0000
  H   H499      1.0  0.48659  0.50111  0.94971  1.0000
  H   H500      1.0  0.43818  0.28009  0.85758  1.0000
  H   H501      1.0  0.66939  0.13949  0.00780  1.0000
  S   S89       1.0  0.34768  0.46673  0.81796  1.0000
  C   C294      1.0  0.40869  0.32990  0.78808  1.0000
  C   C295      1.0  0.44894  0.34221  0.53443  1.0000
  H   H502      1.0  0.36658  0.34702  0.83430  1.0000
  S   S90       1.0  0.65907  0.04549  0.72948  1.0000
  C   C296      1.0  0.40549  0.38480  0.53699  1.0000
  C   C297      1.0  0.42658  0.38525  0.55827  1.0000
  C   C298      1.0  0.44802  0.36374  0.55709  1.0000
  H   H503      1.0  0.39668  0.38037  0.76121  1.0000
  H   H504      1.0  0.46913  0.03007  0.97795  1.0000
  H   H505      1.0  0.42604  0.40104  0.57609  1.0000
  C   C299      1.0  0.40990  0.12006  0.00590  1.0000
  C   C300      1.0  0.55339  0.15911  0.55720  1.0000
  C   C301      1.0  0.56414  0.14422  0.58253  1.0000
  C   C302      1.0  0.58407  0.11813  0.58618  1.0000
  C   C303      1.0  0.59321  0.10688  0.56424  1.0000
  C   C304      1.0  0.58239  0.12168  0.53886  1.0000
  H   H506      1.0  0.53813  0.17929  0.55467  1.0000
  H   H507      1.0  0.55699  0.15302  0.59944  1.0000
  H   H508      1.0  0.60858  0.08688  0.56687  1.0000
  C   C305      1.0  0.43643  0.37692  0.81666  1.0000
  S   S91       1.0  0.40532  0.49572  0.58764  1.0000
  H   H509      1.0  0.62829  0.25082  0.97331  1.0000
  C   C306      1.0  0.37139  0.46168  0.70107  1.0000
  H   H510      1.0  0.59991  0.22366  0.96036  1.0000
  C   C307      1.0  0.39469  0.34927  0.76192  1.0000
  H   H511      1.0  0.37445  0.34180  0.75722  1.0000
  H   H512      1.0  0.65668  0.23295  0.95127  1.0000
  H   H513      1.0  0.60572  0.19238  0.51932  1.0000
  H   H514      1.0  0.41438  0.02586  0.00367  1.0000
  H   H515      1.0  0.54089  0.01405  0.59806  1.0000
  H   H516      1.0  0.44278  0.28696  0.82466  1.0000
  C   C308      1.0  0.60217  0.27360  0.52092  1.0000
  H   H517      1.0  0.36781  0.43158  0.70172  1.0000
  H   H518      1.0  0.61959  0.16662  0.98538  1.0000
  H   H519      1.0  0.35885  0.26470  0.53899  1.0000
  C   C309      1.0  0.56250  0.14791  0.53527  1.0000
  H   H520      1.0  0.60061  0.25406  0.53733  1.0000
  H   H521      1.0  0.45690  0.31871  0.85181  1.0000
  H   H522      1.0  0.44769  0.06451  0.98656  1.0000
  H   H523      1.0  0.40002  0.30702  0.83438  1.0000
  H   H524      1.0  0.39735  0.30434  0.79011  1.0000
  H   H525      1.0  0.36869  0.46208  0.65853  1.0000
  S   S92       1.0  0.37371  0.46017  0.75492  1.0000
  C   C310      1.0  0.65376  0.04231  0.78083  1.0000
  H   H526      1.0  0.63571  0.17289  0.51882  1.0000
  H   H527      1.0  0.45446  0.42372  0.80128  1.0000
  H   H528      1.0  0.37323  0.31045  0.54313  1.0000
  Fe  Fe45      1.0  0.37550  0.48806  0.79536  1.0000
  C   C311      1.0  0.41615  0.32689  0.83675  1.0000
  H   H529      1.0  0.45502  0.49394  0.64078  1.0000
  S   S93       1.0  0.64235  0.03259  0.94261  1.0000
  C   C312      1.0  0.37535  0.48311  0.72468  1.0000
  Fe  Fe46      1.0  0.47070  0.21155  0.98731  1.0000
  S   S94       1.0  0.46780  0.27536  0.98747  1.0000
  H   H530      1.0  0.45957  0.23847  0.54803  1.0000
  H   H531      1.0  0.36158  0.33643  0.79907  1.0000
  Fe  Fe47      1.0  0.37578  0.46559  0.55718  1.0000
  H   H532      1.0  0.44483  0.25216  0.57441  1.0000
  C   C313      1.0  0.43720  0.40636  0.79489  1.0000
  C   C314      1.0  0.39107  0.37916  0.81407  1.0000
  H   H533      1.0  0.43163  0.18195  0.53795  1.0000
  Fe  Fe48      1.0  0.67701  0.01392  0.63826  1.0000
  H   H534      1.0  0.37464  0.19822  0.53724  1.0000
  C   C315      1.0  0.37188  0.47889  0.67651  1.0000
  H   H535      1.0  0.46138  0.20831  0.57590  1.0000
  H   H536      1.0  0.41383  0.28710  0.54271  1.0000
  H   H537      1.0  0.64698  0.19274  0.99967  1.0000
  H   H538      1.0  0.35065  0.38007  0.81019  1.0000
  N   N22       1.0  0.40566  0.22942  0.52846  1.0000
  H   H539      1.0  0.39571  0.39736  0.83215  1.0000
  C   C316      1.0  0.65359  0.02467  0.80521  1.0000
  C   C317      1.0  0.53044  0.03680  0.93489  1.0000
  C   C318      1.0  0.37343  0.28248  0.53320  1.0000
  H   H540      1.0  0.39656  0.12200  0.98690  1.0000
  C   C319      1.0  0.57693  0.03093  0.73670  1.0000
  H   H541      1.0  0.57500  0.01038  0.93237  1.0000
  H   H542      1.0  0.62016  0.20712  0.92537  1.0000
  H   H543      1.0  0.45314  0.35868  0.81742  1.0000
  H   H544      1.0  0.44004  0.39230  0.83601  1.0000
  N   N23       1.0  0.64395  0.17671  0.95834  1.0000
  C   C320      1.0  0.62757  0.15302  0.90947  1.0000
  C   C321      1.0  0.63238  0.18892  0.98093  1.0000
  H   H545      1.0  0.42088  0.26329  0.00730  1.0000
  H   H546      1.0  0.59122  0.11109  0.98741  1.0000
  C   C322      1.0  0.66461  0.20431  0.95700  1.0000
  H   H547      1.0  0.62670  0.12233  0.91387  1.0000
  H   H548      1.0  0.42126  0.42646  0.79146  1.0000
  H   H549      1.0  0.42083  0.33200  0.00635  1.0000
  S   S95       1.0  0.55935  0.17485  0.98780  1.0000
  H   H550      1.0  0.39799  0.14703  0.52002  1.0000
  H   H551      1.0  0.60548  0.16786  0.93675  1.0000
  C   C323      1.0  0.39970  0.26452  0.54279  1.0000
  H   H552      1.0  0.62212  0.27989  0.52220  1.0000
  H   H553      1.0  0.53965  0.05382  0.95256  1.0000
  N   N24       1.0  0.41289  0.35340  0.81318  1.0000
  H   H554      1.0  0.42691  0.31899  0.78500  1.0000
  H   H555      1.0  0.58574  0.05939  0.73720  1.0000
  C   C324      1.0  0.43996  0.30192  0.84261  1.0000
  S   S96       1.0  0.40833  0.48081  0.83044  1.0000
  H   H556      1.0  0.64811  0.07171  0.77778  1.0000
  H   H557      1.0  0.51142  0.04932  0.92803  1.0000
  S   S97       1.0  0.47539  0.31244  0.53532  1.0000
  H   H558      1.0  0.54015  0.04144  0.91872  1.0000
  C   C325      1.0  0.46548  0.04860  0.99388  1.0000
  H   H559      1.0  0.67722  0.20909  0.97697  1.0000
  H   H560      1.0  0.54822  0.06175  0.56491  1.0000
  S   S98       1.0  0.66535  0.06581  0.65786  1.0000
  C   C326      1.0  0.42490  0.20652  0.54796  1.0000
  H   H561      1.0  0.59336  0.30060  0.52520  1.0000
  C   C327      1.0  0.40650  0.36372  0.51410  1.0000
  H   H562      1.0  0.43260  0.26028  0.51170  1.0000
  H   H563      1.0  0.51604  0.48242  0.99067  1.0000
  H   H564      1.0  0.66047  0.12420  0.94774  1.0000
  H   H565      1.0  0.60169  0.01299  0.97535  1.0000
  S   S99       1.0  0.61589  0.01783  0.66197  1.0000
  C   C328      1.0  0.43213  0.14148  0.01035  1.0000
  H   H566      1.0  0.57085  0.01387  0.98162  1.0000
  C   C329      1.0  0.66067  0.02210  0.76016  1.0000
  C   C330      1.0  0.53400  0.05212  0.54735  1.0000
  H   H567      1.0  0.53761  0.06629  0.52939  1.0000
  H   H568      1.0  0.51581  0.06233  0.55075  1.0000
  C   C331      1.0  0.61700  0.22611  0.97673  1.0000
  H   H569      1.0  0.67337  0.20816  0.91764  1.0000
  Fe  Fe49      1.0  0.65493  0.02441  0.68679  1.0000
  H   H570      1.0  0.44710  0.50366  0.92543  1.0000
  H   H571      1.0  0.57457  0.02518  0.75697  1.0000
  C   C332      1.0  0.36616  0.35900  0.81432  1.0000
  H   H572      1.0  0.36805  0.28768  0.51161  1.0000
  H   H573      1.0  0.59356  0.01041  0.70606  1.0000
  H   H574      1.0  0.47441  0.50862  0.97840  1.0000
  Fe  Fe50      1.0  0.55000  0.78346  0.50993  1.0000
  Fe  Fe51      1.0  0.37422  0.91854  0.34589  1.0000
  S   S100      1.0  0.38823  0.85791  0.35389  1.0000
  H   H575      1.0  0.48043  0.87684  0.07506  1.0000
  H   H576      1.0  0.40351  0.82073  0.48783  1.0000
  H   H577      1.0  0.43055  0.96093  0.04435  1.0000
  H   H578      1.0  0.42669  0.83735  0.31905  1.0000
  S   S101      1.0  0.63485  0.58915  0.10695  1.0000
  S   S102      1.0  0.51001  0.80262  0.49764  1.0000
  H   H579      1.0  0.56133  0.57381  0.03197  1.0000
  Fe  Fe52      1.0  0.64126  0.52902  0.12347  1.0000
  S   S103      1.0  0.49749  0.72100  0.46496  1.0000
  H   H580      1.0  0.37189  0.88095  0.23923  1.0000
  H   H581      1.0  0.61338  0.62737  0.14418  1.0000
  S   S104      1.0  0.55126  0.76405  0.46879  1.0000
  Fe  Fe53      1.0  0.51032  0.77981  0.45717  1.0000
  S   S105      1.0  0.49772  0.82084  0.42270  1.0000
  Fe  Fe54      1.0  0.53867  0.70730  0.48024  1.0000
  S   S106      1.0  0.55841  0.65039  0.47908  1.0000
  H   H582      1.0  0.53463  0.51693  0.38616  1.0000
  H   H583      1.0  0.60602  0.68216  0.49796  1.0000
  S   S107      1.0  0.40749  0.96820  0.09501  1.0000
  H   H584      1.0  0.67306  0.74958  0.49571  1.0000
  Fe  Fe55      1.0  0.37844  0.96310  0.11931  1.0000
  S   S108      1.0  0.39291  0.94725  0.16305  1.0000
  Fe  Fe56      1.0  0.38064  0.93732  0.06283  1.0000
  S   S109      1.0  0.38990  0.89194  0.03537  1.0000
  H   H585      1.0  0.46589  0.84954  0.46929  1.0000
  H   H586      1.0  0.60801  0.74961  0.03937  1.0000
  S   S110      1.0  0.61149  0.57358  0.39468  1.0000
  C   C333      1.0  0.57512  0.63258  0.45605  1.0000
  C   C334      1.0  0.59145  0.60168  0.46368  1.0000
  C   C335      1.0  0.60305  0.58369  0.44529  1.0000
  C   C336      1.0  0.59859  0.59667  0.41905  1.0000
  C   C337      1.0  0.58305  0.62857  0.41171  1.0000
  C   C338      1.0  0.57135  0.64648  0.43009  1.0000
  H   H587      1.0  0.59462  0.59089  0.48377  1.0000
  H   H588      1.0  0.61523  0.55953  0.45133  1.0000
  H   H589      1.0  0.57961  0.63898  0.39149  1.0000
  H   H590      1.0  0.55882  0.67021  0.42393  1.0000
  S   S111      1.0  0.49942  0.82718  0.04017  1.0000
  H   H591      1.0  0.57281  0.65557  0.13619  1.0000
  C   C339      1.0  0.39934  0.80103  0.43872  1.0000
  H   H592      1.0  0.61100  0.75584  0.44713  1.0000
  C   C340      1.0  0.46464  0.98338  0.06833  1.0000
  H   H593      1.0  0.62788  0.57728  0.20841  1.0000
  C   C341      1.0  0.44317  0.79841  0.46320  1.0000
  C   C342      1.0  0.37738  0.95886  0.18851  1.0000
  H   H594      1.0  0.44139  0.85044  0.48684  1.0000
  H   H595      1.0  0.45767  0.98059  0.08676  1.0000
  C   C343      1.0  0.41838  0.84819  0.37390  1.0000
  C   C344      1.0  0.42663  0.81038  0.37729  1.0000
  C   C345      1.0  0.45058  0.80155  0.39294  1.0000
  C   C346      1.0  0.46655  0.83053  0.40526  1.0000
  C   C347      1.0  0.45842  0.86835  0.40152  1.0000
  C   C348      1.0  0.43435  0.87718  0.38611  1.0000
  H   H596      1.0  0.41449  0.78785  0.36764  1.0000
  H   H597      1.0  0.45702  0.77247  0.39488  1.0000
  H   H598      1.0  0.47088  0.89099  0.41045  1.0000
  H   H599      1.0  0.42829  0.90644  0.38343  1.0000
  H   H600      1.0  0.45722  0.78418  0.47927  1.0000
  C   C349      1.0  0.56901  0.63281  0.04147  1.0000
  C   C350      1.0  0.57314  0.59361  0.04521  1.0000
  C   C351      1.0  0.59277  0.57974  0.06564  1.0000
  C   C352      1.0  0.60877  0.60504  0.08223  1.0000
  C   C353      1.0  0.60443  0.64425  0.07876  1.0000
  C   C354      1.0  0.58448  0.65812  0.05864  1.0000
  H   H601      1.0  0.64761  0.68200  0.49636  1.0000
  H   H602      1.0  0.59594  0.54952  0.06807  1.0000
  H   H603      1.0  0.61670  0.66401  0.09157  1.0000
  H   H604      1.0  0.58141  0.68833  0.05611  1.0000
  C   C355      1.0  0.46889  0.84493  0.03870  1.0000
  C   C356      1.0  0.44601  0.84161  0.46794  1.0000
  C   C357      1.0  0.42051  0.87424  0.03730  1.0000
  C   C358      1.0  0.44076  0.88392  0.05818  1.0000
  C   C359      1.0  0.46487  0.86948  0.05877  1.0000
  H   H605      1.0  0.43781  0.90212  0.07404  1.0000
  H   H606      1.0  0.58013  0.51257  0.42640  1.0000
  C   C360      1.0  0.57217  0.57934  0.13834  1.0000
  C   C361      1.0  0.35305  0.97396  0.23016  1.0000
  H   H607      1.0  0.37126  0.75416  0.43297  1.0000
  H   H608      1.0  0.40831  0.94017  0.21971  1.0000
  H   H609      1.0  0.51273  0.55091  0.41623  1.0000
  H   H610      1.0  0.55594  0.59893  0.13563  1.0000
  C   C362      1.0  0.58610  0.57661  0.16779  1.0000
  C   C363      1.0  0.57958  0.67091  0.15514  1.0000
  C   C364      1.0  0.59670  0.58895  0.22625  1.0000
  H   H611      1.0  0.56431  0.55101  0.13164  1.0000
  C   C365      1.0  0.37741  0.95922  0.23591  1.0000
  H   H612      1.0  0.40700  0.80181  0.42061  1.0000
  C   C366      1.0  0.44864  0.83531  0.01784  1.0000
  H   H613      1.0  0.59847  0.71628  0.46090  1.0000
  H   H614      1.0  0.63138  0.59081  0.16259  1.0000
  C   C367      1.0  0.58451  0.64486  0.17989  1.0000
  H   H615      1.0  0.54414  0.56709  0.41519  1.0000
  C   C368      1.0  0.62140  0.61774  0.16480  1.0000
  H   H616      1.0  0.43481  0.85810  0.45104  1.0000
  C   C369      1.0  0.34689  0.87419  0.26473  1.0000
  H   H617      1.0  0.60793  0.58735  0.24710  1.0000
  C   C370      1.0  0.61553  0.73401  0.46302  1.0000
  H   H618      1.0  0.44951  0.79283  0.44474  1.0000
  H   H619      1.0  0.37087  0.76646  0.25468  1.0000
  H   H620      1.0  0.44475  0.73430  0.43070  1.0000
  H   H621      1.0  0.63118  0.71670  0.45908  1.0000
  H   H622      1.0  0.42420  0.69544  0.43050  1.0000
  H   H623      1.0  0.65199  0.65582  0.16229  1.0000
  H   H624      1.0  0.62514  0.62514  0.21819  1.0000
  H   H625      1.0  0.35766  0.80745  0.05786  1.0000
  C   C371      1.0  0.54340  0.52906  0.44870  1.0000
  H   H626      1.0  0.56143  0.54156  0.45940  1.0000
  H   H627      1.0  0.41185  0.73815  0.41394  1.0000
  Fe  Fe57      1.0  0.35058  0.97171  0.29979  1.0000
  H   H628      1.0  0.36018  0.79939  0.44235  1.0000
  H   H629      1.0  0.40169  0.72503  0.45906  1.0000
  Fe  Fe58      1.0  0.49966  0.74281  0.50635  1.0000
  H   H630      1.0  0.43372  0.72754  0.47453  1.0000
  H   H631      1.0  0.43484  0.88616  0.31937  1.0000
  S   S112      1.0  0.36148  0.99026  0.04362  1.0000
  H   H632      1.0  0.60610  0.77132  0.49242  1.0000
  N   N25       1.0  0.44810  0.99275  0.01753  1.0000
  H   H633      1.0  0.40277  0.86673  0.22008  1.0000
  C   C372      1.0  0.41046  0.79105  0.48769  1.0000
  H   H634      1.0  0.37554  0.82055  0.30290  1.0000
  H   H635      1.0  0.38686  0.95366  0.25629  1.0000
  C   C373      1.0  0.36676  0.85731  0.25112  1.0000
  H   H636      1.0  0.59234  0.66376  0.19710  1.0000
  S   S113      1.0  0.39021  0.96009  0.32139  1.0000
  H   H637      1.0  0.52856  0.58558  0.43899  1.0000
  H   H638      1.0  0.57134  0.56985  0.17863  1.0000
  C   C374      1.0  0.61408  0.60073  0.20802  1.0000
  H   H639      1.0  0.43068  0.83917  0.22602  1.0000
  S   S114      1.0  0.54567  0.64837  0.01374  1.0000
  H   H640      1.0  0.58880  0.56020  0.22125  1.0000
  H   H641      1.0  0.35110  0.90439  0.26996  1.0000
  C   C375      1.0  0.44194  0.98697  0.04427  1.0000
  H   H642      1.0  0.60636  0.51359  0.25829  1.0000
  H   H643      1.0  0.56489  0.69197  0.15674  1.0000
  H   H644      1.0  0.43090  0.00314  0.30851  1.0000
  H   H645      1.0  0.53167  0.52707  0.46364  1.0000
  H   H646      1.0  0.59841  0.55110  0.16982  1.0000
  H   H647      1.0  0.63699  0.77544  0.48882  1.0000
  C   C376      1.0  0.62260  0.75409  0.49029  1.0000
  H   H648      1.0  0.61342  0.68726  0.02124  1.0000
  H   H649      1.0  0.47677  0.00888  0.07109  1.0000
  C   C377      1.0  0.42458  0.84997  0.01715  1.0000
  H   H650      1.0  0.39711  0.83161  0.44299  1.0000
  N   N26       1.0  0.38983  0.84102  0.26946  1.0000
  C   C378      1.0  0.40680  0.82516  0.25291  1.0000
  C   C379      1.0  0.38324  0.80937  0.28628  1.0000
  C   C380      1.0  0.40260  0.87213  0.28759  1.0000
  C   C381      1.0  0.61321  0.74725  0.01987  1.0000
  C   C382      1.0  0.41759  0.85411  0.23610  1.0000
  H   H651      1.0  0.58135  0.60963  0.22580  1.0000
  C   C383      1.0  0.42814  0.86175  0.30599  1.0000
  H   H652      1.0  0.56577  0.52059  0.38214  1.0000
  H   H653      1.0  0.42293  0.80965  0.26557  1.0000
  H   H654      1.0  0.39670  0.80365  0.23863  1.0000
  H   H655      1.0  0.36463  0.79077  0.40936  1.0000
  H   H656      1.0  0.40037  0.79348  0.29640  1.0000
  H   H657      1.0  0.40536  0.89775  0.27612  1.0000
  H   H658      1.0  0.39039  0.88184  0.30076  1.0000
  C   C384      1.0  0.36448  0.77968  0.27142  1.0000
  H   H659      1.0  0.65569  0.63389  0.19407  1.0000
  H   H660      1.0  0.36261  0.75664  0.28549  1.0000
  C   C385      1.0  0.53142  0.55927  0.42818  1.0000
  H   H661      1.0  0.63397  0.74869  0.02418  1.0000
  H   H662      1.0  0.42853  0.87689  0.24829  1.0000
  N   N27       1.0  0.60123  0.61073  0.17970  1.0000
  C   C386      1.0  0.38948  0.95163  0.21516  1.0000
  S   S115      1.0  0.66631  0.52538  0.16480  1.0000
  H   H663      1.0  0.39886  0.73670  0.50186  1.0000
  C   C387      1.0  0.64166  0.64688  0.17742  1.0000
  H   H664      1.0  0.44265  0.85597  0.29470  1.0000
  H   H665      1.0  0.58458  0.58701  0.12505  1.0000
  C   C388      1.0  0.37243  0.78521  0.43088  1.0000
  N   N28       1.0  0.41737  0.78224  0.46163  1.0000
  H   H666      1.0  0.37343  0.76236  0.48023  1.0000
  C   C389      1.0  0.41920  0.73990  0.45795  1.0000
  H   H667      1.0  0.47592  0.95759  0.06712  1.0000
  H   H668      1.0  0.63359  0.67252  0.18465  1.0000
  C   C390      1.0  0.42534  0.72688  0.43165  1.0000
  H   H669      1.0  0.56587  0.63585  0.18286  1.0000
  H   H670      1.0  0.59653  0.68731  0.15391  1.0000
  S   S116      1.0  0.37054  0.96123  0.37705  1.0000
  C   C391      1.0  0.39085  0.76521  0.49590  1.0000
  H   H671      1.0  0.42732  0.78948  0.50459  1.0000
  Fe  Fe59      1.0  0.63232  0.51692  0.39983  1.0000
  H   H672      1.0  0.47953  0.95377  0.02546  1.0000
  H   H673      1.0  0.35757  0.83663  0.23563  1.0000
  C   C392      1.0  0.67677  0.72408  0.50839  1.0000
  H   H674      1.0  0.45079  0.93121  0.01438  1.0000
  H   H675      1.0  0.55433  0.93890  0.50566  1.0000
  S   S117      1.0  0.35314  0.92705  0.08836  1.0000
  Fe  Fe60      1.0  0.38354  0.00406  0.35080  1.0000
  C   C393      1.0  0.35321  0.97432  0.18283  1.0000
  H   H676      1.0  0.55540  0.92970  0.90809  1.0000
  S   S118      1.0  0.51917  0.71384  0.95721  1.0000
  C   C394      1.0  0.63639  0.75157  0.53949  1.0000
  S   S119      1.0  0.49201  0.79420  0.96600  1.0000
  H   H677      1.0  0.64751  0.73463  0.55635  1.0000
  Fe  Fe61      1.0  0.48181  0.73221  0.96317  1.0000
  S   S120      1.0  0.44435  0.70818  0.94108  1.0000
  Fe  Fe62      1.0  0.53068  0.77506  0.96390  1.0000
  S   S121      1.0  0.55009  0.80446  0.93500  1.0000
  H   H678      1.0  0.42415  0.58785  0.59852  1.0000
  H   H679      1.0  0.52910  0.51731  0.97317  1.0000
  C   C395      1.0  0.41859  0.63983  0.61815  1.0000
  H   H680      1.0  0.62605  0.62570  0.98902  1.0000
  Fe  Fe63      1.0  0.40023  0.54378  0.55825  1.0000
  S   S122      1.0  0.43630  0.56612  0.54936  1.0000
  S   S123      1.0  0.53984  0.72559  0.52241  1.0000
  H   H681      1.0  0.67364  0.93720  0.79187  1.0000
  Fe  Fe64      1.0  0.53034  0.70767  0.00175  1.0000
  H   H682      1.0  0.59048  0.90881  0.70597  1.0000
  S   S124      1.0  0.63732  0.92758  0.96128  1.0000
  H   H683      1.0  0.41578  0.58157  0.62883  1.0000
  Fe  Fe65      1.0  0.40033  0.54079  0.84124  1.0000
  S   S125      1.0  0.43460  0.57862  0.85344  1.0000
  C   C396      1.0  0.55369  0.94634  0.54816  1.0000
  S   S126      1.0  0.36960  0.54920  0.80432  1.0000
  H   H684      1.0  0.67372  0.96847  0.74872  1.0000
  H   H685      1.0  0.55004  0.99008  0.68795  1.0000
  S   S127      1.0  0.60253  0.92054  0.63377  1.0000
  H   H686      1.0  0.57382  0.96120  0.77897  1.0000
  H   H687      1.0  0.63335  0.96781  0.71235  1.0000
  C   C397      1.0  0.58824  0.84813  0.55763  1.0000
  C   C398      1.0  0.57164  0.84700  0.57450  1.0000
  C   C399      1.0  0.57630  0.86926  0.59780  1.0000
  C   C400      1.0  0.59736  0.89317  0.60425  1.0000
  C   C401      1.0  0.61374  0.89475  0.58715  1.0000
  C   C402      1.0  0.60926  0.87212  0.56405  1.0000
  H   H688      1.0  0.55543  0.82858  0.56980  1.0000
  H   H689      1.0  0.56355  0.86784  0.61094  1.0000
  H   H690      1.0  0.63003  0.91301  0.59190  1.0000
  H   H691      1.0  0.62219  0.87324  0.55110  1.0000
  C   C403      1.0  0.43585  0.68109  0.54041  1.0000
  S   S128      1.0  0.37416  0.52405  0.86692  1.0000
  C   C404      1.0  0.44318  0.61301  0.54126  1.0000
  N   N29       1.0  0.54789  0.96766  0.93822  1.0000
  N   N30       1.0  0.48146  0.56029  0.95880  1.0000
  H   H692      1.0  0.39774  0.63966  0.61252  1.0000
  H   H693      1.0  0.42811  0.54057  0.90791  1.0000
  C   C405      1.0  0.42838  0.64396  0.54509  1.0000
  H   H694      1.0  0.54086  0.93653  0.56059  1.0000
  C   C406      1.0  0.37631  0.51784  0.67531  1.0000
  H   H695      1.0  0.41146  0.63929  0.55204  1.0000
  C   C407      1.0  0.60567  0.62905  0.98763  1.0000
  C   C408      1.0  0.59173  0.72520  0.93091  1.0000
  H   H696      1.0  0.66708  0.73596  0.98788  1.0000
  H   H697      1.0  0.46467  0.60814  0.59506  1.0000
  H   H698      1.0  0.55124  0.94335  0.97761  1.0000
  S   S129      1.0  0.37006  0.57250  0.57400  1.0000
  C   C409      1.0  0.57492  0.83762  0.94301  1.0000
  C   C410      1.0  0.58192  0.85723  0.92221  1.0000
  C   C411      1.0  0.60113  0.88458  0.92752  1.0000
  C   C412      1.0  0.61384  0.89217  0.95374  1.0000
  C   C413      1.0  0.60725  0.87189  0.97456  1.0000
  C   C414      1.0  0.58769  0.84497  0.96926  1.0000
  H   H699      1.0  0.57227  0.85149  0.90184  1.0000
  H   H700      1.0  0.60619  0.89963  0.91131  1.0000
  H   H701      1.0  0.61697  0.87765  0.99490  1.0000
  H   H702      1.0  0.58236  0.83024  0.98545  1.0000
  C   C415      1.0  0.43659  0.61529  0.87721  1.0000
  C   C416      1.0  0.41654  0.62405  0.88871  1.0000
  C   C417      1.0  0.41911  0.65285  0.90807  1.0000
  C   C418      1.0  0.44179  0.67276  0.91632  1.0000
  C   C419      1.0  0.46183  0.66396  0.90481  1.0000
  C   C420      1.0  0.45914  0.63555  0.88519  1.0000
  H   H703      1.0  0.39903  0.60878  0.88264  1.0000
  H   H704      1.0  0.40347  0.65963  0.91677  1.0000
  H   H705      1.0  0.47926  0.67939  0.91075  1.0000
  H   H706      1.0  0.47466  0.62910  0.87623  1.0000
  S   S130      1.0  0.37642  0.54165  0.64498  1.0000
  Fe  Fe66      1.0  0.64341  0.97117  0.93088  1.0000
  H   H707      1.0  0.50747  0.92446  0.94881  1.0000
  H   H708      1.0  0.54567  0.94000  0.68134  1.0000
  H   H709      1.0  0.66809  0.78683  0.53306  1.0000
  H   H710      1.0  0.61207  0.69571  0.55805  1.0000
  H   H711      1.0  0.52401  0.96555  0.69592  1.0000
  H   H712      1.0  0.64496  0.68499  0.99691  1.0000
  H   H713      1.0  0.46796  0.92444  0.97806  1.0000
  H   H714      1.0  0.42954  0.57547  0.67117  1.0000
  H   H715      1.0  0.52310  0.62235  0.95401  1.0000
  H   H716      1.0  0.57750  0.70364  0.92200  1.0000
  C   C421      1.0  0.66798  0.98416  0.76431  1.0000
  C   C422      1.0  0.65017  0.78966  0.53920  1.0000
  C   C423      1.0  0.54196  0.95270  0.91008  1.0000
  C   C424      1.0  0.47037  0.61569  0.61653  1.0000
  H   H717      1.0  0.48009  0.64266  0.99641  1.0000
  H   H718      1.0  0.50769  0.63403  0.61437  1.0000
  H   H719      1.0  0.52400  0.00360  0.52277  1.0000
  C   C425      1.0  0.45007  0.52312  0.64592  1.0000
  N   N31       1.0  0.45556  0.59293  0.63241  1.0000
  Fe  Fe67      1.0  0.65158  0.99113  0.87595  1.0000
  H   H720      1.0  0.54775  0.96349  0.60066  1.0000
  C   C426      1.0  0.46222  0.55170  0.63019  1.0000
  C   C427      1.0  0.46234  0.60622  0.66098  1.0000
  N   N32       1.0  0.60663  0.70161  0.97933  1.0000
  H   H721      1.0  0.62930  0.92745  0.69089  1.0000
  C   C428      1.0  0.44296  0.59871  0.67804  1.0000
  C   C429      1.0  0.61137  0.67820  0.54006  1.0000
  C   C430      1.0  0.60052  0.94347  0.75474  1.0000
  H   H722      1.0  0.58782  0.97638  0.58601  1.0000
  H   H723      1.0  0.48049  0.59340  0.67159  1.0000
  H   H724      1.0  0.46546  0.63747  0.66169  1.0000
  H   H725      1.0  0.45755  0.54263  0.60890  1.0000
  H   H726      1.0  0.64875  0.74219  0.95519  1.0000
  C   C431      1.0  0.55968  0.95339  0.72377  1.0000
  Fe  Fe68      1.0  0.37329  0.52227  0.60191  1.0000
  H   H727      1.0  0.65905  0.68670  0.53060  1.0000
  S   S131      1.0  0.66008  0.96295  0.83928  1.0000
  C   C432      1.0  0.48318  0.58481  0.98311  1.0000
  H   H728      1.0  0.43236  0.62496  0.68014  1.0000
  H   H729      1.0  0.54133  0.90044  0.52018  1.0000
  H   H730      1.0  0.38392  0.56932  0.69831  1.0000
  H   H731      1.0  0.52310  0.94246  0.51183  1.0000
  H   H732      1.0  0.61331  0.00722  0.73801  1.0000
  C   C433      1.0  0.58427  0.99624  0.97376  1.0000
  H   H733      1.0  0.58848  0.95108  0.68688  1.0000
  H   H734      1.0  0.59675  0.95164  0.52936  1.0000
  S   S132      1.0  0.66894  0.97272  0.66876  1.0000
  H   H735      1.0  0.42461  0.70497  0.54387  1.0000
  H   H736      1.0  0.52436  0.89031  0.93305  1.0000
  C   C434      1.0  0.38041  0.53919  0.69897  1.0000
  H   H737      1.0  0.46641  0.64654  0.61759  1.0000
  H   H738      1.0  0.61142  0.98361  0.55576  1.0000
  C   C435      1.0  0.57382  0.98487  0.94447  1.0000
  H   H739      1.0  0.50672  0.61584  0.64640  1.0000
  C   C436      1.0  0.48805  0.51991  0.96731  1.0000
  C   C437      1.0  0.45786  0.68743  0.53143  1.0000
  H   H740      1.0  0.62116  0.94647  0.75817  1.0000
  H   H741      1.0  0.57402  0.66470  0.97030  1.0000
  H   H742      1.0  0.48940  0.66094  0.52041  1.0000
  C   C438      1.0  0.45432  0.56067  0.94355  1.0000
  C   C439      1.0  0.59667  0.93900  0.70692  1.0000
  C   C440      1.0  0.47463  0.62628  0.97762  1.0000
  Fe  Fe69      1.0  0.63022  0.96966  0.64142  1.0000
  C   C441      1.0  0.52516  0.90825  0.95091  1.0000
  S   S133      1.0  0.46701  0.73430  0.52606  1.0000
  N   N33       1.0  0.55815  0.98848  0.55125  1.0000
  H   H743      1.0  0.52298  0.93966  0.90487  1.0000
  C   C442      1.0  0.46685  0.95485  0.98340  1.0000
  H   H744      1.0  0.60319  0.94325  0.79725  1.0000
  H   H745      1.0  0.47171  0.57247  0.99623  1.0000
  C   C443      1.0  0.54215  0.98147  0.88776  1.0000
  H   H746      1.0  0.45747  0.52641  0.66767  1.0000
  H   H747      1.0  0.51958  0.99661  0.55484  1.0000
  N   N34       1.0  0.58749  0.96029  0.72828  1.0000
  H   H748      1.0  0.48269  0.54697  0.63750  1.0000
  H   H749      1.0  0.61023  0.71712  0.92741  1.0000
  H   H750      1.0  0.61863  0.75905  0.54536  1.0000
  H   H751      1.0  0.53951  0.96588  0.86862  1.0000
  H   H752      1.0  0.59686  0.91239  0.75499  1.0000
  C   C444      1.0  0.51456  0.51273  0.98462  1.0000
  H   H753      1.0  0.65451  0.80175  0.55962  1.0000
  H   H754      1.0  0.48506  0.96856  0.98334  1.0000
  H   H755      1.0  0.53176  0.58099  0.97460  1.0000
  Fe  Fe70      1.0  0.50551  0.78374  0.00977  1.0000
  C   C445      1.0  0.38003  0.52198  0.72351  1.0000
  H   H756      1.0  0.55596  0.92303  0.72750  1.0000
  H   H757      1.0  0.52650  0.88823  0.96781  1.0000
  C   C446      1.0  0.66803  0.96659  0.78881  1.0000
  H   H758      1.0  0.63802  0.81080  0.52637  1.0000
  H   H759      1.0  0.45314  0.59112  0.69857  1.0000
  H   H760      1.0  0.63518  0.91997  0.72573  1.0000
  C   C447      1.0  0.63404  0.69960  0.97877  1.0000
  C   C448      1.0  0.62531  0.93888  0.70951  1.0000
  H   H761      1.0  0.59951  0.76016  0.96572  1.0000
  C   C449      1.0  0.59417  0.96076  0.77974  1.0000
  C   C450      1.0  0.46518  0.61946  0.53239  1.0000
  H   H762      1.0  0.42935  0.52462  0.64096  1.0000
  C   C451      1.0  0.59234  0.73114  0.96067  1.0000
  C   C452      1.0  0.44742  0.53379  0.91934  1.0000
  H   H763      1.0  0.58598  0.75206  0.91995  1.0000
  H   H764      1.0  0.44868  0.58949  0.93564  1.0000
  C   C453      1.0  0.49754  0.57451  0.94074  1.0000
  H   H765      1.0  0.57136  0.93039  0.55573  1.0000
  C   C454      1.0  0.54853  0.93408  0.95654  1.0000
  H   H766      1.0  0.56486  0.91569  0.95610  1.0000
  S   S134      1.0  0.61696  0.97844  0.89102  1.0000
  H   H767      1.0  0.63637  0.68186  0.96164  1.0000
  C   C455      1.0  0.59448  0.66375  0.97072  1.0000
  H   H768      1.0  0.57253  0.73255  0.96256  1.0000
  H   H769      1.0  0.59432  0.66019  0.53746  1.0000
  C   C456      1.0  0.40438  0.96777  0.99342  1.0000
  C   C457      1.0  0.42369  0.00026  0.99765  1.0000
  H   H770      1.0  0.38823  0.97542  0.97691  1.0000
  C   C458      1.0  0.55586  0.99225  0.60062  1.0000
  H   H771      1.0  0.42435  0.65464  0.63749  1.0000
  H   H772      1.0  0.50244  0.58604  0.99579  1.0000
  C   C459      1.0  0.54415  0.96303  0.69559  1.0000
  H   H773      1.0  0.60247  0.98945  0.78381  1.0000
  H   H774      1.0  0.53723  0.58294  0.94209  1.0000
  H   H775      1.0  0.52764  0.99550  0.96412  1.0000
  H   H776      1.0  0.50556  0.58424  0.61826  1.0000
  C   C460      1.0  0.59383  0.00181  0.72680  1.0000
  C   C461      1.0  0.42819  0.59856  0.61934  1.0000
  H   H777      1.0  0.45996  0.53737  0.90547  1.0000
  H   H778      1.0  0.45148  0.81637  0.00230  1.0000
  H   H779      1.0  0.58978  0.97088  0.98652  1.0000
  H   H780      1.0  0.42489  0.65626  0.60259  1.0000
  H   H781      1.0  0.55140  0.96948  0.73812  1.0000
  C   C462      1.0  0.60907  0.70259  0.51478  1.0000
  H   H782      1.0  0.48762  0.59776  0.92800  1.0000
  S   S135      1.0  0.58388  0.81983  0.52858  1.0000
  C   C463      1.0  0.47238  0.65643  0.52724  1.0000
  H   H783      1.0  0.47681  0.59569  0.52955  1.0000
  H   H784      1.0  0.45194  0.96675  0.96733  1.0000
  C   C464      1.0  0.52789  0.99486  0.94262  1.0000
  S   S136      1.0  0.49214  0.72337  0.00742  1.0000
  H   H785      1.0  0.59574  0.65670  0.95009  1.0000
  C   C465      1.0  0.66060  0.98665  0.80925  1.0000
  C   C466      1.0  0.64738  0.73763  0.97608  1.0000
  H   H786      1.0  0.50036  0.55180  0.92672  1.0000
  H   H787      1.0  0.38343  0.53879  0.74150  1.0000
  C   C467      1.0  0.49920  0.61181  0.62476  1.0000
  H   H788      1.0  0.58755  0.96475  0.93907  1.0000
  C   C468      1.0  0.52365  0.59085  0.95416  1.0000
  H   H789      1.0  0.44159  0.55371  0.95688  1.0000
  H   H790      1.0  0.51869  0.52950  0.00325  1.0000
  H   H791      1.0  0.45392  0.62862  0.97092  1.0000
  H   H792      1.0  0.38566  0.77752  0.51370  1.0000
  H   H793      1.0  0.60204  0.62987  0.00782  1.0000
  H   H794      1.0  0.63912  0.76308  0.98318  1.0000
  H   H795      1.0  0.48350  0.64015  0.96290  1.0000
  H   H796      1.0  0.41215  0.94070  0.98787  1.0000
  H   H797      1.0  0.62765  0.65868  0.54333  1.0000
  S   S137      1.0  0.54513  0.76763  0.00798  1.0000
  H   H798      1.0  0.56366  0.00159  0.51193  1.0000
  H   H799      1.0  0.50896  0.98490  0.93191  1.0000
  C   C469      1.0  0.54246  0.93192  0.51969  1.0000
  H   H800      1.0  0.40904  0.84221  0.00096  1.0000
  H   H801      1.0  0.56021  0.99669  0.89036  1.0000
  H   H802      1.0  0.59631  0.60298  0.97809  1.0000
  H   H803      1.0  0.60462  0.77199  0.00800  1.0000
  C   C470      1.0  0.59932  0.98181  0.53542  1.0000
  H   H804      1.0  0.52628  0.00169  0.88535  1.0000
  S   S138      1.0  0.37268  0.51202  0.52709  1.0000
  N   N35       1.0  0.63083  0.72851  0.51413  1.0000
  C   C471      1.0  0.57170  0.99617  0.57970  1.0000
  H   H805      1.0  0.60972  0.99556  0.52189  1.0000
  C   C472      1.0  0.57411  0.00263  0.53314  1.0000
  H   H806      1.0  0.56824  0.99682  0.62066  1.0000
  S   S139      1.0  0.63900  0.00706  0.60975  1.0000
  H   H807      1.0  0.59132  0.71914  0.51225  1.0000
  C   C473      1.0  0.65290  0.70392  0.51222  1.0000
  S   S140      1.0  0.67840  0.97920  0.91538  1.0000
  C   C474      1.0  0.60349  0.70907  0.00713  1.0000
  H   H808      1.0  0.58332  0.70695  0.00766  1.0000
  C   C475      1.0  0.53321  0.00855  0.54405  1.0000
  H   H809      1.0  0.42657  0.00727  0.97769  1.0000
  C   C476      1.0  0.46109  0.95737  0.01116  1.0000
  H   H810      1.0  0.39667  0.96351  0.01117  1.0000
  S   S141      1.0  0.87929  0.09233  0.04038  1.0000
  H   H811      1.0  0.81426  0.42242  0.10469  1.0000
  Fe  Fe71      1.0  0.91191  0.08479  0.02144  1.0000
  S   S142      1.0  0.94565  0.04564  0.03445  1.0000
  Fe  Fe72      1.0  0.88613  0.15531  0.03824  1.0000
  S   S143      1.0  0.89012  0.19092  0.07605  1.0000
  Fe  Fe73      1.0  0.85582  0.37567  0.49605  1.0000
  Fe  Fe74      1.0  0.89124  0.41454  0.11486  1.0000
  S   S144      1.0  0.87106  0.41788  0.14818  1.0000
  S   S145      1.0  0.88286  0.37157  0.08055  1.0000
  Fe  Fe75      1.0  0.90655  0.44584  0.17124  1.0000
  S   S146      1.0  0.91951  0.43429  0.21557  1.0000
  H   H812      1.0  0.98024  0.38854  0.44606  1.0000
  S   S147      1.0  0.92772  0.43895  0.13881  1.0000
  C   C477      1.0  0.74915  0.47034  0.38756  1.0000
  S   S148      1.0  0.94486  0.33158  0.48750  1.0000
  H   H813      1.0  0.98133  0.38666  0.29282  1.0000
  S   S149      1.0  0.81769  0.37395  0.46594  1.0000
  C   C478      1.0  0.74892  0.45719  0.31301  1.0000
  C   C479      1.0  0.82203  0.25627  0.48296  1.0000
  S   S150      1.0  0.89131  0.40827  0.49467  1.0000
  H   H814      1.0  0.80343  0.29159  0.04225  1.0000
  C   C480      1.0  0.79073  0.40336  0.46286  1.0000
  C   C481      1.0  0.79156  0.43827  0.47590  1.0000
  C   C482      1.0  0.77005  0.46165  0.47152  1.0000
  C   C483      1.0  0.74736  0.45029  0.45437  1.0000
  C   C484      1.0  0.74633  0.41489  0.44190  1.0000
  C   C485      1.0  0.76795  0.39178  0.44593  1.0000
  C   C486      1.0  0.76554  0.41931  0.08146  1.0000
  C   C487      1.0  0.97649  0.41887  0.44816  1.0000
  H   H815      1.0  0.72898  0.40564  0.42882  1.0000
  H   H816      1.0  0.76707  0.36482  0.43576  1.0000
  H   H817      1.0  0.79113  0.36491  0.12125  1.0000
  H   H818      1.0  0.00649  0.19849  0.39702  1.0000
  H   H819      1.0  0.88608  0.10944  0.09730  1.0000
  H   H820      1.0  0.70635  0.43899  0.33271  1.0000
  H   H821      1.0  0.76640  0.38512  0.04684  1.0000
  C   C488      1.0  0.79558  0.46202  0.15280  1.0000
  C   C489      1.0  0.98913  0.42763  0.38661  1.0000
  C   C490      1.0  0.99111  0.37044  0.25641  1.0000
  C   C491      1.0  0.98482  0.37411  0.22856  1.0000
  C   C492      1.0  0.96337  0.39471  0.21568  1.0000
  C   C493      1.0  0.94821  0.41204  0.23065  1.0000
  C   C494      1.0  0.95509  0.40957  0.25853  1.0000
  C   C495      1.0  0.97637  0.38873  0.27136  1.0000
  H   H822      1.0  0.99628  0.36027  0.21688  1.0000
  H   H823      1.0  0.95831  0.39647  0.19421  1.0000
  H   H824      1.0  0.94361  0.42331  0.27023  1.0000
  C   C496      1.0  0.95413  0.32475  0.40162  1.0000
  C   C497      1.0  0.97279  0.31102  0.42273  1.0000
  C   C498      1.0  0.96936  0.31261  0.44886  1.0000
  C   C499      1.0  0.94737  0.32814  0.45412  1.0000
  C   C500      1.0  0.92864  0.34172  0.43300  1.0000
  C   C501      1.0  0.93201  0.33990  0.40681  1.0000
  H   H825      1.0  0.98980  0.29906  0.41894  1.0000
  H   H826      1.0  0.98391  0.30208  0.46514  1.0000
  H   H827      1.0  0.91166  0.35377  0.43687  1.0000
  H   H828      1.0  0.91746  0.35048  0.39055  1.0000
  C   C502      1.0  0.88760  0.24111  0.07712  1.0000
  C   C503      1.0  0.87746  0.26235  0.05433  1.0000
  C   C504      1.0  0.87611  0.30219  0.05586  1.0000
  C   C505      1.0  0.88479  0.32129  0.08017  1.0000
  C   C506      1.0  0.89456  0.30004  0.10307  1.0000
  C   C507      1.0  0.89593  0.26014  0.10152  1.0000
  H   H829      1.0  0.87051  0.24794  0.03559  1.0000
  H   H830      1.0  0.86827  0.31833  0.03808  1.0000
  H   H831      1.0  0.90125  0.31432  0.12191  1.0000
  H   H832      1.0  0.90369  0.24396  0.11930  1.0000
  Fe  Fe76      1.0  0.91057  0.35143  0.50167  1.0000
  H   H833      1.0  0.00722  0.45482  0.46764  1.0000
  H   H834      1.0  0.74051  0.39006  0.34856  1.0000
  H   H835      1.0  0.80892  0.44764  0.48893  1.0000
  C   C508      1.0  0.81153  0.36886  0.12325  1.0000
  H   H836      1.0  0.98384  0.26318  0.02242  1.0000
  H   H837      1.0  0.88571  0.09810  0.13147  1.0000
  H   H838      1.0  0.76089  0.41128  0.10055  1.0000
  H   H839      1.0  0.82516  0.28656  0.47922  1.0000
  H   H840      1.0  0.90809  0.04010  0.13080  1.0000
  C   C509      1.0  0.74895  0.49594  0.13085  1.0000
  H   H841      1.0  0.81977  0.45926  0.07274  1.0000
  H   H842      1.0  0.71050  0.37918  0.35462  1.0000
  H   H843      1.0  0.77082  0.48669  0.34623  1.0000
  H   H844      1.0  0.96002  0.13906  0.07844  1.0000
  H   H845      1.0  0.79051  0.45575  0.04738  1.0000
  C   C510      1.0  0.88656  0.08627  0.11181  1.0000
  S   S151      1.0  0.87750  0.47201  0.09928  1.0000
  C   C511      1.0  0.77545  0.38465  0.06848  1.0000
  C   C512      1.0  0.96211  0.11616  0.09355  1.0000
  C   C513      1.0  0.00778  0.40705  0.40920  1.0000
  C   C514      1.0  0.75067  0.46881  0.15093  1.0000
  H   H846      1.0  0.92298  0.12561  0.09183  1.0000
  H   H847      1.0  0.92599  0.36550  0.02255  1.0000
  H   H848      1.0  0.94325  0.24512  0.06713  1.0000
  H   H849      1.0  0.95218  0.03173  0.10207  1.0000
  C   C515      1.0  0.94027  0.10129  0.14406  1.0000
  H   H850      1.0  0.96079  0.10184  0.15325  1.0000
  C   C516      1.0  0.93812  0.28194  0.03256  1.0000
  C   C517      1.0  0.77406  0.45182  0.16173  1.0000
  C   C518      1.0  0.72676  0.39878  0.36014  1.0000
  H   H851      1.0  0.70313  0.44573  0.36549  1.0000
  H   H852      1.0  0.97354  0.09344  0.08719  1.0000
  H   H853      1.0  0.81987  0.45966  0.03851  1.0000
  H   H854      1.0  0.93167  0.08788  0.15932  1.0000
  H   H855      1.0  0.78426  0.50216  0.38885  1.0000
  Fe  Fe77      1.0  0.68366  0.47456  0.14958  1.0000
  H   H856      1.0  0.81104  0.32377  0.50615  1.0000
  H   H857      1.0  0.75594  0.31368  0.48814  1.0000
  H   H858      1.0  0.94324  0.16048  0.13084  1.0000
  C   C519      1.0  0.90924  0.05958  0.11424  1.0000
  H   H859      1.0  0.97474  0.44381  0.39390  1.0000
  N   N36       1.0  0.73707  0.47018  0.35817  1.0000
  H   H860      1.0  0.76927  0.43811  0.35191  1.0000
  H   H861      1.0  0.83779  0.24039  0.47778  1.0000
  H   H862      1.0  0.80349  0.39531  0.03188  1.0000
  H   H863      1.0  0.90581  0.04162  0.09599  1.0000
  Fe  Fe78      1.0  0.85935  0.47668  0.13372  1.0000
  H   H864      1.0  0.97343  0.05866  0.12603  1.0000
  H   H865      1.0  0.73445  0.47167  0.39920  1.0000
  N   N37       1.0  0.93474  0.07804  0.11878  1.0000
  H   H866      1.0  0.91190  0.14738  0.13211  1.0000
  S   S152      1.0  0.72146  0.48230  0.44790  1.0000
  C   C520      1.0  0.95408  0.04680  0.12130  1.0000
  C   C521      1.0  0.95372  0.01627  0.14259  1.0000
  C   C522      1.0  0.71728  0.43964  0.35359  1.0000
  N   N38       1.0  0.80358  0.38085  0.07272  1.0000
  H   H867      1.0  0.98446  0.16088  0.38981  1.0000
  C   C523      1.0  0.99854  0.44569  0.44692  1.0000
  Fe  Fe79      1.0  0.99581  0.31098  0.35984  1.0000
  H   H868      1.0  0.81891  0.38383  0.14237  1.0000
  H   H869      1.0  0.78033  0.32816  0.03310  1.0000
  H   H870      1.0  0.77108  0.48895  0.48128  1.0000
  H   H871      1.0  0.92932  0.08375  0.07618  1.0000
  H   H872      1.0  0.74738  0.48488  0.30251  1.0000
  H   H873      1.0  0.75983  0.44371  0.39373  1.0000
  H   H874      1.0  0.83353  0.39746  0.05419  1.0000
  C   C524      1.0  0.81045  0.44693  0.05328  1.0000
  C   C525      1.0  0.76751  0.28987  0.48346  1.0000
  S   S153      1.0  0.99878  0.27686  0.32404  1.0000
  H   H875      1.0  0.83804  0.39040  0.10190  1.0000
  C   C526      1.0  0.77686  0.26431  0.50821  1.0000
  H   H876      1.0  0.95263  0.02871  0.16199  1.0000
  H   H877      1.0  0.73473  0.39465  0.38170  1.0000
  H   H878      1.0  0.77558  0.43090  0.17733  1.0000
  N   N39       1.0  0.92183  0.30025  0.27784  1.0000
  C   C527      1.0  0.92874  0.28145  0.30480  1.0000
  C   C528      1.0  0.92127  0.34244  0.28249  1.0000
  C   C529      1.0  0.94252  0.29163  0.26379  1.0000
  C   C530      1.0  0.89691  0.28483  0.26259  1.0000
  C   C531      1.0  0.93230  0.23798  0.30497  1.0000
  C   C532      1.0  0.90399  0.35584  0.30045  1.0000
  C   C533      1.0  0.93865  0.30586  0.23502  1.0000
  C   C534      1.0  0.88061  0.31108  0.24145  1.0000
  H   H879      1.0  0.94633  0.29390  0.31691  1.0000
  H   H880      1.0  0.91419  0.28678  0.31626  1.0000
  H   H881      1.0  0.91585  0.35840  0.26352  1.0000
  H   H882      1.0  0.94042  0.35277  0.29214  1.0000
  H   H883      1.0  0.96073  0.30341  0.27524  1.0000
  H   H884      1.0  0.94554  0.26064  0.26244  1.0000
  H   H885      1.0  0.89973  0.25789  0.25238  1.0000
  H   H886      1.0  0.88478  0.27704  0.27635  1.0000
  H   H887      1.0  0.95038  0.22991  0.30025  1.0000
  H   H888      1.0  0.93323  0.22729  0.32540  1.0000
  H   H889      1.0  0.91656  0.22325  0.29137  1.0000
  H   H890      1.0  0.90031  0.38671  0.29740  1.0000
  H   H891      1.0  0.88573  0.34090  0.29620  1.0000
  H   H892      1.0  0.91335  0.35191  0.32178  1.0000
  H   H893      1.0  0.95649  0.30222  0.22851  1.0000
  H   H894      1.0  0.93385  0.33630  0.23291  1.0000
  H   H895      1.0  0.92430  0.28877  0.22123  1.0000
  H   H896      1.0  0.87291  0.33538  0.25065  1.0000
  H   H897      1.0  0.86426  0.29475  0.23014  1.0000
  H   H898      1.0  0.89057  0.32223  0.22677  1.0000
  H   H899      1.0  0.80457  0.24617  0.46927  1.0000
  C   C535      1.0  0.81005  0.33971  0.06929  1.0000
  H   H900      1.0  0.81350  0.44911  0.16156  1.0000
  H   H901      1.0  0.77794  0.44432  0.08472  1.0000
  H   H902      1.0  0.76770  0.35929  0.07665  1.0000
  C   C536      1.0  0.80060  0.32284  0.04120  1.0000
  S   S154      1.0  0.72443  0.45548  0.16355  1.0000
  H   H903      1.0  0.82102  0.34084  0.12490  1.0000
  S   S155      1.0  0.92054  0.14717  0.02220  1.0000
  H   H904      1.0  0.83080  0.33534  0.07488  1.0000
  H   H905      1.0  0.80234  0.32115  0.08288  1.0000
  H   H906      1.0  0.77484  0.49964  0.41956  1.0000
  H   H907      1.0  0.95438  0.22444  0.04043  1.0000
  H   H908      1.0  0.92105  0.22730  0.03902  1.0000
  C   C537      1.0  0.93925  0.24219  0.04514  1.0000
  H   H909      1.0  0.93499  0.15572  0.16203  1.0000
  H   H910      1.0  0.99910  0.44670  0.37542  1.0000
  C   C538      1.0  0.75730  0.46271  0.34339  1.0000
  H   H911      1.0  0.81167  0.33356  0.02727  1.0000
  H   H912      1.0  0.99809  0.38132  0.41378  1.0000
  S   S156      1.0  0.89309  0.50534  0.15938  1.0000
  Fe  Fe80      1.0  0.91205  0.49709  0.12569  1.0000
  C   C539      1.0  0.93194  0.14335  0.14176  1.0000
  C   C540      1.0  0.81746  0.39239  0.10028  1.0000
  C   C541      1.0  0.81323  0.40355  0.05243  1.0000
  C   C542      1.0  0.93592  0.10101  0.09449  1.0000
  H   H913      1.0  0.76307  0.43954  0.30624  1.0000
  S   S157      1.0  0.95784  0.32344  0.36857  1.0000
  H   H914      1.0  0.77402  0.23423  0.50162  1.0000
  C   C543      1.0  0.79391  0.48947  0.13298  1.0000
  H   H915      1.0  0.97152  0.42207  0.46772  1.0000
  C   C544      1.0  0.76769  0.50296  0.39772  1.0000
  S   S158      1.0  0.87511  0.31840  0.49984  1.0000
  H   H916      1.0  0.74749  0.42884  0.06843  1.0000
  H   H917      1.0  0.97909  0.40629  0.37217  1.0000
  H   H918      1.0  0.73117  0.44136  0.30650  1.0000
  H   H919      1.0  0.92432  0.29851  0.04079  1.0000
  C   C545      1.0  0.77051  0.50627  0.12199  1.0000
  C   C546      1.0  0.00189  0.17020  0.40401  1.0000
  H   H920      1.0  0.97239  0.12786  0.11291  1.0000
  H   H921      1.0  0.86907  0.06963  0.10470  1.0000
  H   H922      1.0  0.95934  0.42687  0.43302  1.0000
  H   H923      1.0  0.99752  0.17257  0.42384  1.0000
  H   H924      1.0  0.68602  0.49760  0.32999  1.0000
  H   H925      1.0  0.75473  0.27312  0.46778  1.0000
  H   H926      1.0  0.95641  0.29618  0.04065  1.0000
  H   H927      1.0  0.78219  0.30138  0.47421  1.0000
  H   H928      1.0  0.70750  0.49808  0.30824  1.0000
  S   S159      1.0  0.82044  0.50331  0.12110  1.0000
  Fe  Fe81      1.0  0.68188  0.47339  0.42201  1.0000
  H   H929      1.0  0.98974  0.47167  0.43648  1.0000
  C   C547      1.0  0.72509  0.50860  0.35103  1.0000
  C   C548      1.0  0.75732  0.05780  0.86643  1.0000
  S   S160      1.0  0.70449  0.08653  0.93816  1.0000
  H   H930      1.0  0.91980  0.15337  0.76452  1.0000
  H   H931      1.0  0.79161  0.27066  0.56121  1.0000
  Fe  Fe82      1.0  0.89415  0.14908  0.98208  1.0000
  S   S161      1.0  0.90159  0.18302  0.94752  1.0000
  H   H932      1.0  0.94898  0.06081  0.82328  1.0000
  H   H933      1.0  0.76354  0.26940  0.52121  1.0000
  S   S162      1.0  0.91865  0.35600  0.54620  1.0000
  S   S163      1.0  0.86078  0.38267  0.54028  1.0000
  Fe  Fe83      1.0  0.89748  0.41106  0.53943  1.0000
  S   S164      1.0  0.91721  0.45457  0.56994  1.0000
  Fe  Fe84      1.0  0.88188  0.32722  0.54387  1.0000
  S   S165      1.0  0.87447  0.28523  0.57494  1.0000
  H   H934      1.0  0.71890  0.02774  0.79293  1.0000
  Fe  Fe85      1.0  0.88584  0.06943  0.61725  1.0000
  S   S166      1.0  0.88333  0.09556  0.65618  1.0000
  S   S167      1.0  0.88686  0.10510  0.58065  1.0000
  Fe  Fe86      1.0  0.91531  0.05650  0.67386  1.0000
  S   S168      1.0  0.95216  0.07327  0.70178  1.0000
  H   H935      1.0  0.90464  0.23651  0.99478  1.0000
  S   S169      1.0  0.91935  0.03258  0.63466  1.0000
  H   H936      1.0  0.77440  0.04494  0.86173  1.0000
  Fe  Fe87      1.0  0.85545  0.09793  0.99860  1.0000
  H   H937      1.0  0.82421  0.26396  0.56494  1.0000
  S   S170      1.0  0.85977  0.16162  0.99789  1.0000
  C   C549      1.0  0.74876  0.03182  0.66313  1.0000
  C   C550      1.0  0.96000  0.15760  0.77079  1.0000
  C   C551      1.0  0.93616  0.14432  0.75773  1.0000
  C   C552      1.0  0.93336  0.11874  0.73633  1.0000
  C   C553      1.0  0.95445  0.10644  0.72779  1.0000
  C   C554      1.0  0.97820  0.12052  0.74036  1.0000
  C   C555      1.0  0.98101  0.14596  0.76183  1.0000
  C   C556      1.0  0.71330  0.04358  0.87060  1.0000
  H   H938      1.0  0.91496  0.10815  0.72671  1.0000
  H   H939      1.0  0.99453  0.11143  0.73357  1.0000
  H   H940      1.0  0.89229  0.27840  0.00510  1.0000
  C   C557      1.0  0.87756  0.23509  0.57549  1.0000
  C   C558      1.0  0.88796  0.21537  0.55713  1.0000
  C   C559      1.0  0.89048  0.17556  0.55882  1.0000
  C   C560      1.0  0.88290  0.15511  0.57899  1.0000
  C   C561      1.0  0.87216  0.17483  0.59708  1.0000
  C   C562      1.0  0.86935  0.21453  0.59519  1.0000
  H   H941      1.0  0.89428  0.23078  0.54180  1.0000
  H   H942      1.0  0.89867  0.16053  0.54463  1.0000
  H   H943      1.0  0.86586  0.15943  0.61242  1.0000
  H   H944      1.0  0.86091  0.22943  0.60923  1.0000
  C   C563      1.0  0.94871  0.25835  0.99104  1.0000
  H   H945      1.0  0.90405  0.26816  0.94965  1.0000
  C   C564      1.0  0.97703  0.26657  0.00063  1.0000
  C   C565      1.0  0.93198  0.18604  0.94133  1.0000
  C   C566      1.0  0.95321  0.17316  0.95985  1.0000
  C   C567      1.0  0.97734  0.18002  0.95571  1.0000
  C   C568      1.0  0.98042  0.19852  0.93260  1.0000
  C   C569      1.0  0.95916  0.20989  0.91355  1.0000
  C   C570      1.0  0.93506  0.20412  0.91809  1.0000
  H   H946      1.0  0.95108  0.15895  0.97772  1.0000
  H   H947      1.0  0.99371  0.17112  0.97051  1.0000
  H   H948      1.0  0.96131  0.22429  0.89573  1.0000
  H   H949      1.0  0.91875  0.21406  0.90362  1.0000
  C   C571      1.0  0.73693  0.07829  0.95151  1.0000
  C   C572      1.0  0.74687  0.04166  0.95539  1.0000
  C   C573      1.0  0.77278  0.03638  0.96593  1.0000
  C   C574      1.0  0.78906  0.06755  0.97257  1.0000
  C   C575      1.0  0.77914  0.10421  0.96843  1.0000
  C   C576      1.0  0.75318  0.10951  0.95803  1.0000
  N   N40       1.0  0.99937  0.04573  0.82295  1.0000
  C   C577      1.0  0.90501  0.26796  0.99275  1.0000
  H   H950      1.0  0.79145  0.12841  0.97341  1.0000
  H   H951      1.0  0.74568  0.13796  0.95499  1.0000
  H   H952      1.0  0.68419  0.16457  0.93481  1.0000
  H   H953      1.0  0.88753  0.30739  0.96058  1.0000
  C   C578      1.0  0.92034  0.21458  0.64669  1.0000
  S   S171      1.0  0.82400  0.05038  0.67733  1.0000
  H   H954      1.0  0.94431  0.26070  0.96897  1.0000
  H   H955      1.0  0.90285  0.19965  0.64831  1.0000
  H   H956      1.0  0.81905  0.19721  0.55355  1.0000
  H   H957      1.0  0.97740  0.08059  0.79144  1.0000
  C   C579      1.0  0.94380  0.15770  0.66500  1.0000
  H   H958      1.0  0.81818  0.21696  0.51254  1.0000
  H   H959      1.0  0.97733  0.47642  0.56950  1.0000
  C   C580      1.0  0.99110  0.20328  0.67835  1.0000
  H   H960      1.0  0.71551  0.09926  0.84965  1.0000
  H   H961      1.0  0.84134  0.25207  0.52426  1.0000
  H   H962      1.0  0.96323  0.15247  0.63193  1.0000
  H   H963      1.0  0.69741  0.02356  0.86389  1.0000
  H   H964      1.0  0.98753  0.24574  0.99119  1.0000
  N   N41       1.0  0.94275  0.20028  0.66701  1.0000
  H   H965      1.0  0.94668  0.24006  0.70012  1.0000
  C   C581      1.0  0.79573  0.33789  0.53949  1.0000
  H   H966      1.0  0.94844  0.10896  0.81247  1.0000
  H   H967      1.0  0.70537  0.05817  0.81292  1.0000
  H   H968      1.0  0.74926  0.08909  0.90062  1.0000
  C   C582      1.0  0.96594  0.21824  0.66147  1.0000
  H   H969      1.0  0.89538  0.26381  0.64221  1.0000
  H   H970      1.0  0.77463  0.05497  0.90956  1.0000
  H   H971      1.0  0.77904  0.04611  0.69653  1.0000
  H   H972      1.0  0.99217  0.20564  0.69999  1.0000
  H   H973      1.0  0.70033  0.20671  0.94531  1.0000
  H   H974      1.0  0.97008  0.01745  0.79352  1.0000
  H   H975      1.0  0.80091  0.33414  0.56141  1.0000
  S   S172      1.0  0.96274  0.18819  0.79836  1.0000
  H   H976      1.0  0.77527  0.33395  0.53206  1.0000
  H   H977      1.0  0.75511  0.02075  0.59972  1.0000
  H   H978      1.0  0.92667  0.14468  0.66910  1.0000
  H   H979      1.0  0.77924  0.09848  0.89405  1.0000
  C   C583      1.0  0.76529  0.07575  0.89435  1.0000
  N   N42       1.0  0.73657  0.02881  0.86301  1.0000
  H   H980      1.0  0.98835  0.50617  0.77104  1.0000
  H   H981      1.0  0.92367  0.27178  0.63090  1.0000
  N   N43       1.0  0.80350  0.27022  0.52389  1.0000
  H   H982      1.0  0.90802  0.17503  0.69689  1.0000
  Fe  Fe88      1.0  0.99943  0.19685  0.82900  1.0000
  C   C584      1.0  0.97950  0.48484  0.54944  1.0000
  H   H983      1.0  0.71600  0.04424  0.89265  1.0000
  H   H984      1.0  0.79996  0.20796  0.57605  1.0000
  H   H985      1.0  0.99562  0.43396  0.74972  1.0000
  H   H986      1.0  0.68477  0.08086  0.84662  1.0000
  S   S173      1.0  0.85843  0.02213  0.61905  1.0000
  H   H987      1.0  0.80011  0.36780  0.53548  1.0000
  N   N44       1.0  0.93133  0.28296  0.00259  1.0000
  H   H988      1.0  0.69203  0.14828  0.98763  1.0000
  H   H989      1.0  0.94891  0.11019  0.64009  1.0000
  H   H990      1.0  0.92942  0.14620  0.62213  1.0000
  H   H991      1.0  0.92400  0.27186  0.66577  1.0000
  H   H992      1.0  0.99462  0.17349  0.67329  1.0000
  H   H993      1.0  0.75270  0.08158  0.85224  1.0000
  H   H994      1.0  0.91084  0.37503  0.98817  1.0000
  C   C585      1.0  0.89235  0.27690  0.96349  1.0000
  C   C586      1.0  0.94104  0.21018  0.69501  1.0000
  C   C587      1.0  0.98413  0.08090  0.81347  1.0000
  H   H995      1.0  0.93087  0.32552  0.97191  1.0000
  H   H996      1.0  0.00322  0.03849  0.77091  1.0000
  C   C588      1.0  0.78538  0.03548  0.63307  1.0000
  S   S174      1.0  0.88802  0.08619  0.97982  1.0000
  H   H997      1.0  0.96263  0.47361  0.53522  1.0000
  H   H998      1.0  0.95944  0.14600  0.68059  1.0000
  H   H999      1.0  0.95461  0.19301  0.70985  1.0000
  C   C589      1.0  0.96046  0.08687  0.82444  1.0000
  C   C590      1.0  0.81126  0.31132  0.52577  1.0000
  H   H1000     1.0  0.98206  0.29496  0.99434  1.0000
  C   C591      1.0  0.72293  0.04315  0.81224  1.0000
  H   H1001     1.0  0.91686  0.20911  0.72298  1.0000
  H   H1002     1.0  0.73460  0.01739  0.95058  1.0000
  C   C592      1.0  0.79235  0.04220  0.66049  1.0000
  C   C593      1.0  0.92040  0.50447  0.56919  1.0000
  H   H1003     1.0  0.99588  0.10691  0.81811  1.0000
  Fe  Fe89      1.0  0.85816  0.04591  0.65927  1.0000
  H   H1004     1.0  0.87452  0.26071  0.95774  1.0000
  H   H1005     1.0  0.90107  0.22487  0.69066  1.0000
  C   C594      1.0  0.00624  0.04664  0.85297  1.0000
  C   C595      1.0  0.77387  0.04071  0.67535  1.0000
  C   C596      1.0  0.91514  0.20427  0.70137  1.0000
  H   H1006     1.0  0.96579  0.24942  0.66487  1.0000
  C   C597      1.0  0.91624  0.35240  0.00336  1.0000
  H   H1007     1.0  0.99942  0.15636  0.77157  1.0000
  C   C598      1.0  0.94654  0.14144  0.63809  1.0000
  C   C599      1.0  0.93350  0.32331  0.99389  1.0000
  H   H1008     1.0  0.79935  0.03676  0.62135  1.0000
  H   H1009     1.0  0.73480  0.03038  0.67487  1.0000
  C   C600      1.0  0.68119  0.19515  0.93739  1.0000
  S   S175      1.0  0.01011  0.15740  0.86394  1.0000
  C   C601      1.0  0.80566  0.25637  0.55203  1.0000
  C   C602      1.0  0.70359  0.08335  0.86031  1.0000
  H   H1010     1.0  0.92216  0.20757  0.62621  1.0000
  H   H1011     1.0  0.00665  0.22053  0.67406  1.0000
  C   C603      1.0  0.91586  0.25793  0.64655  1.0000
  C   C604      1.0  0.98366  0.01125  0.81272  1.0000
  H   H1012     1.0  0.96635  0.21524  0.64012  1.0000
  H   H1013     1.0  0.94586  0.22788  0.99501  1.0000
  S   S176      1.0  0.82146  0.05879  0.98596  1.0000
  H   H1014     1.0  0.99081  0.01780  0.01004  1.0000
  H   H1015     1.0  0.96538  0.09771  0.84517  1.0000
  C   C605      1.0  0.80215  0.21339  0.55552  1.0000
  H   H1016     1.0  0.73810  0.06350  0.81140  1.0000
  H   H1017     1.0  0.00998  0.46385  0.79594  1.0000
  C   C606      1.0  0.73049  0.01393  0.83485  1.0000
  H   H1018     1.0  0.70131  0.10132  0.87729  1.0000
  C   C607      1.0  0.00932  0.42106  0.76661  1.0000
  S   S177      1.0  0.00559  0.25022  0.85381  1.0000
  C   C608      1.0  0.74188  0.02431  0.63583  1.0000
  S   S178      1.0  0.71104  0.00987  0.61995  1.0000
  H   H1019     1.0  0.78524  0.20217  0.54155  1.0000
  H   H1020     1.0  0.89844  0.34012  0.00606  1.0000
  H   H1021     1.0  0.83116  0.31395  0.53685  1.0000
  H   H1022     1.0  0.99618  0.47086  0.54497  1.0000
  H   H1023     1.0  0.95289  0.33405  0.00166  1.0000
  C   C609      1.0  0.76028  0.02644  0.62085  1.0000
  H   H1024     1.0  0.99851  0.40303  0.77762  1.0000
  H   H1025     1.0  0.98923  0.04753  0.86122  1.0000
  H   H1026     1.0  0.94319  0.50592  0.60922  1.0000
  S   S179      1.0  0.89024  0.00925  0.68070  1.0000
  C   C610      1.0  0.82186  0.24789  0.51215  1.0000
  H   H1027     1.0  0.01242  0.50507  0.59141  1.0000
  S   S180      1.0  0.01097  0.21009  0.92930  1.0000
  H   H1028     1.0  0.68083  0.10164  0.99097  1.0000
  H   H1029     1.0  0.86137  0.55647  0.11451  1.0000
  S   S181      1.0  0.96522  0.80095  0.08262  1.0000
  N   N45       1.0  0.85608  0.61283  0.09754  1.0000
  S   S182      1.0  0.98266  0.81525  0.14625  1.0000
  Fe  Fe90      1.0  0.97762  0.76436  0.11914  1.0000
  S   S183      1.0  0.95870  0.71594  0.13704  1.0000
  Fe  Fe91      1.0  0.97376  0.85167  0.10959  1.0000
  S   S184      1.0  0.94526  0.89950  0.10628  1.0000
  C   C611      1.0  0.00523  0.90165  0.03394  1.0000
  C   C612      1.0  0.80903  0.60499  0.09827  1.0000
  H   H1030     1.0  0.99383  0.75543  0.21741  1.0000
  S   S185      1.0  0.93188  0.54261  0.10637  1.0000
  H   H1031     1.0  0.84290  0.65937  0.11882  1.0000
  H   H1032     1.0  0.89459  0.67321  0.10697  1.0000
  H   H1033     1.0  0.85550  0.56660  0.04887  1.0000
  H   H1034     1.0  0.00800  0.67237  0.14290  1.0000
  C   C613      1.0  0.99845  0.64172  0.19754  1.0000
  H   H1035     1.0  0.87885  0.69905  0.12781  1.0000
  C   C614      1.0  0.87278  0.61036  0.07801  1.0000
  H   H1036     1.0  0.88715  0.58670  0.12539  1.0000
  C   C615      1.0  0.86629  0.58635  0.12045  1.0000
  C   C616      1.0  0.87322  0.57191  0.06387  1.0000
  C   C617      1.0  0.85828  0.59350  0.14692  1.0000
  H   H1037     1.0  0.82974  0.57057  0.07732  1.0000
  C   C618      1.0  0.95254  0.66743  0.12845  1.0000
  C   C619      1.0  0.94326  0.64404  0.14604  1.0000
  C   C620      1.0  0.93745  0.60560  0.14000  1.0000
  C   C621      1.0  0.94054  0.59013  0.11602  1.0000
  C   C622      1.0  0.95010  0.61343  0.09856  1.0000
  C   C623      1.0  0.95614  0.65181  0.10474  1.0000
  H   H1038     1.0  0.94032  0.65586  0.16440  1.0000
  H   H1039     1.0  0.93040  0.58801  0.15379  1.0000
  H   H1040     1.0  0.95266  0.60177  0.07999  1.0000
  H   H1041     1.0  0.96325  0.66939  0.09098  1.0000
  C   C624      1.0  0.94516  0.93847  0.08473  1.0000
  C   C625      1.0  0.92295  0.95934  0.07567  1.0000
  C   C626      1.0  0.88156  0.67013  0.12039  1.0000
  C   C627      1.0  0.96709  0.95026  0.07767  1.0000
  H   H1042     1.0  0.90592  0.95042  0.08112  1.0000
  H   H1043     1.0  0.98437  0.93483  0.08502  1.0000
  H   H1044     1.0  0.99800  0.92732  0.04192  1.0000
  H   H1045     1.0  0.85120  0.56663  0.15370  1.0000
  H   H1046     1.0  0.00097  0.68680  0.22550  1.0000
  C   C628      1.0  0.92254  0.99144  0.05936  1.0000
  H   H1047     1.0  0.01094  0.72847  0.16580  1.0000
  C   C629      1.0  0.94456  0.00346  0.05258  1.0000
  C   C630      1.0  0.85592  0.65389  0.10580  1.0000
  H   H1048     1.0  0.87484  0.60172  0.16279  1.0000
  C   C631      1.0  0.01163  0.76597  0.21333  1.0000
  H   H1049     1.0  0.84339  0.61474  0.14625  1.0000
  H   H1050     1.0  0.93812  0.99585  0.13573  1.0000
  H   H1051     1.0  0.89051  0.65278  0.13787  1.0000
  H   H1052     1.0  0.90527  0.00704  0.05226  1.0000
  C   C632      1.0  0.83002  0.60104  0.08308  1.0000
  H   H1053     1.0  0.89265  0.61637  0.08802  1.0000
  H   H1054     1.0  0.80600  0.63463  0.10388  1.0000
  H   H1055     1.0  0.88857  0.57221  0.05307  1.0000
  H   H1056     1.0  0.87724  0.54812  0.07814  1.0000
  H   H1057     1.0  0.82398  0.61739  0.06422  1.0000
  H   H1058     1.0  0.79110  0.59548  0.08503  1.0000
  H   H1059     1.0  0.84868  0.67215  0.08807  1.0000
  H   H1060     1.0  0.01088  0.62271  0.21191  1.0000
  H   H1061     1.0  0.71718  0.51973  0.36761  1.0000
  H   H1062     1.0  0.97127  0.99928  0.14576  1.0000
  C   C633      1.0  0.96682  0.98281  0.06185  1.0000
  H   H1063     1.0  0.69844  0.54120  0.32154  1.0000
  H   H1064     1.0  0.98755  0.70014  0.19205  1.0000
  H   H1065     1.0  0.81214  0.58610  0.11584  1.0000
  H   H1066     1.0  0.86749  0.63225  0.06213  1.0000
  H   H1067     1.0  0.76902  0.52748  0.10660  1.0000
  H   H1068     1.0  0.75854  0.53119  0.39464  1.0000
  H   H1069     1.0  0.98402  0.99244  0.05719  1.0000
  H   H1070     1.0  0.00732  0.71404  0.34028  1.0000
  H   H1071     1.0  0.99078  0.87923  0.03284  1.0000
  H   H1072     1.0  0.00828  0.77646  0.19268  1.0000
  H   H1073     1.0  0.91022  0.73199  0.50592  1.0000
  H   H1074     1.0  0.97898  0.63470  0.19872  1.0000
  C   C634      1.0  0.00337  0.68394  0.20474  1.0000
  H   H1075     1.0  0.99973  0.63503  0.17701  1.0000
  Fe  Fe92      1.0  0.00629  0.80477  0.08214  1.0000
  H   H1076     1.0  0.68713  0.70466  0.49775  1.0000
  H   H1077     1.0  0.73938  0.52976  0.34837  1.0000
  H   H1078     1.0  0.01259  0.76388  0.34290  1.0000
  C   C635      1.0  0.70318  0.51094  0.32616  1.0000
  H   H1079     1.0  0.73107  0.50921  0.12238  1.0000
  H   H1080     1.0  0.82939  0.89909  0.62366  1.0000
  H   H1081     1.0  0.89117  0.78736  0.51760  1.0000
  S   S186      1.0  0.95602  0.69516  0.63593  1.0000
  C   C636      1.0  0.82687  0.94600  0.65136  1.0000
  S   S187      1.0  0.98644  0.70655  0.58838  1.0000
  Fe  Fe93      1.0  0.98127  0.73917  0.62442  1.0000
  S   S188      1.0  0.97589  0.80374  0.62095  1.0000
  Fe  Fe94      1.0  0.96355  0.66070  0.60178  1.0000
  S   S189      1.0  0.93393  0.63313  0.56907  1.0000
  H   H1082     1.0  0.84913  0.98032  0.69941  1.0000
  H   H1083     1.0  0.98422  0.95124  0.80296  1.0000
  H   H1084     1.0  0.96397  0.53970  0.55373  1.0000
  H   H1085     1.0  0.82205  0.97668  0.64916  1.0000
  S   S190      1.0  0.89182  0.92226  0.63710  1.0000
  H   H1086     1.0  0.88784  0.74492  0.61166  1.0000
  S   S191      1.0  0.99694  0.63034  0.62636  1.0000
  H   H1087     1.0  0.95008  0.57548  0.60971  1.0000
  H   H1088     1.0  0.97021  0.59786  0.52157  1.0000
  H   H1089     1.0  0.92446  0.83976  0.57651  1.0000
  H   H1090     1.0  0.73121  0.94448  0.85927  1.0000
  N   N46       1.0  0.81130  0.92673  0.66806  1.0000
  C   C637      1.0  0.84370  0.87152  0.68045  1.0000
  S   S192      1.0  0.99688  0.64749  0.70202  1.0000
  H   H1091     1.0  0.80592  0.87205  0.68480  1.0000
  C   C638      1.0  0.95354  0.83647  0.62839  1.0000
  C   C639      1.0  0.95632  0.87535  0.62354  1.0000
  C   C640      1.0  0.93810  0.90214  0.62695  1.0000
  C   C641      1.0  0.91660  0.89033  0.63493  1.0000
  C   C642      1.0  0.91397  0.85150  0.64013  1.0000
  C   C643      1.0  0.93246  0.82482  0.63729  1.0000
  H   H1092     1.0  0.97253  0.88482  0.61672  1.0000
  H   H1093     1.0  0.94044  0.93182  0.62281  1.0000
  H   H1094     1.0  0.89752  0.84201  0.64646  1.0000
  H   H1095     1.0  0.93019  0.79520  0.64156  1.0000
  C   C644      1.0  0.92823  0.58381  0.56980  1.0000
  C   C645      1.0  0.91347  0.56586  0.54721  1.0000
  C   C646      1.0  0.00994  0.53629  0.58938  1.0000
  C   C647      1.0  0.93886  0.56201  0.59214  1.0000
  H   H1096     1.0  0.86210  0.79589  0.56187  1.0000
  H   H1097     1.0  0.97567  0.53418  0.52488  1.0000
  N   N47       1.0  0.91141  0.76564  0.55578  1.0000
  C   C648      1.0  0.91799  0.72551  0.54971  1.0000
  C   C649      1.0  0.90951  0.76656  0.58443  1.0000
  C   C650      1.0  0.93285  0.79083  0.55279  1.0000
  H   H1098     1.0  0.89840  0.51264  0.52934  1.0000
  H   H1099     1.0  0.97171  0.00334  0.82662  1.0000
  H   H1100     1.0  0.94856  0.84742  0.55938  1.0000
  H   H1101     1.0  0.71460  0.99349  0.83180  1.0000
  H   H1102     1.0  0.73810  0.94013  0.89461  1.0000
  H   H1103     1.0  0.93426  0.71515  0.56518  1.0000
  H   H1104     1.0  0.90075  0.70848  0.59486  1.0000
  H   H1105     1.0  0.90347  0.79476  0.59011  1.0000
  H   H1106     1.0  0.92834  0.76189  0.59790  1.0000
  H   H1107     1.0  0.95071  0.78109  0.56629  1.0000
  H   H1108     1.0  0.85596  0.93200  0.71016  1.0000
  H   H1109     1.0  0.88101  0.83340  0.55332  1.0000
  Fe  Fe95      1.0  0.89200  0.98748  0.64025  1.0000
  H   H1110     1.0  0.99132  0.91359  0.99204  1.0000
  Fe  Fe96      1.0  0.99186  0.66833  0.65956  1.0000
  C   C651      1.0  0.99892  0.59019  0.55882  1.0000
  C   C652      1.0  0.90964  0.52628  0.54684  1.0000
  C   C653      1.0  0.98014  0.52839  0.54663  1.0000
  H   H1111     1.0  0.78036  0.96252  0.64850  1.0000
  C   C654      1.0  0.87080  0.80706  0.54607  1.0000
  C   C655      1.0  0.88726  0.77685  0.53655  1.0000
  H   H1112     1.0  0.01027  0.98655  0.86455  1.0000
  H   H1113     1.0  0.93602  0.78916  0.53235  1.0000
  H   H1114     1.0  0.98232  0.52417  0.73852  1.0000
  H   H1115     1.0  0.99043  0.99425  0.97953  1.0000
  C   C656      1.0  0.81541  0.94545  0.69504  1.0000
  C   C657      1.0  0.76441  0.92102  0.66980  1.0000
  H   H1116     1.0  0.87480  0.75179  0.53073  1.0000
  H   H1117     1.0  0.83767  0.94442  0.61346  1.0000
  H   H1118     1.0  0.76584  0.89077  0.67568  1.0000
  H   H1119     1.0  0.84716  0.94588  0.66098  1.0000
  C   C658      1.0  0.82434  0.92956  0.62318  1.0000
  H   H1120     1.0  0.80783  0.92751  0.70907  1.0000
  H   H1121     1.0  0.84304  0.96459  0.72986  1.0000
  H   H1122     1.0  0.80489  0.97279  0.69352  1.0000
  H   H1123     1.0  0.84878  0.86854  0.70244  1.0000
  H   H1124     1.0  0.74536  0.92547  0.65686  1.0000
  H   H1125     1.0  0.84605  0.84344  0.67155  1.0000
  H   H1126     1.0  0.85759  0.88986  0.67414  1.0000
  C   C659      1.0  0.81619  0.88465  0.67069  1.0000
  H   H1127     1.0  0.80538  0.93433  0.61034  1.0000
  C   C660      1.0  0.78406  0.93233  0.65408  1.0000
  H   H1128     1.0  0.77921  0.91623  0.63506  1.0000
  H   H1129     1.0  0.80816  0.86954  0.65170  1.0000
  H   H1130     1.0  0.01057  0.95002  0.96277  1.0000
  H   H1131     1.0  0.98995  0.63774  0.53150  1.0000
  C   C661      1.0  0.84257  0.95564  0.70913  1.0000
  H   H1132     1.0  0.98427  0.59754  0.56979  1.0000
  H   H1133     1.0  0.91681  0.84700  0.54077  1.0000
  C   C662      1.0  0.99385  0.98986  0.00129  1.0000
  C   C663      1.0  0.93007  0.83350  0.55776  1.0000
  H   H1134     1.0  0.85515  0.81510  0.52913  1.0000
  H   H1135     1.0  0.00190  0.55118  0.76486  1.0000
  C   C664      1.0  0.93491  0.52258  0.59182  1.0000
  H   H1136     1.0  0.90514  0.58255  0.52986  1.0000
  C   C665      1.0  0.99717  0.52200  0.75720  1.0000
  H   H1137     1.0  0.87363  0.73490  0.57735  1.0000
  H   H1138     1.0  0.94336  0.72912  0.52237  1.0000
  H   H1139     1.0  0.90234  0.70570  0.55042  1.0000
  C   C666      1.0  0.89175  0.73694  0.59221  1.0000
  H   H1140     1.0  0.76546  0.93933  0.68751  1.0000
  C   C667      1.0  0.99778  0.97508  0.80749  1.0000
  H   H1141     1.0  0.74681  0.99785  0.83093  1.0000
  H   H1142     1.0  0.92427  0.68783  0.51857  1.0000
  N   N48       1.0  0.00410  0.54809  0.56053  1.0000
  H   H1143     1.0  0.00592  0.97840  0.78987  1.0000
  C   C668      1.0  0.98989  0.60627  0.53047  1.0000
  H   H1144     1.0  0.00222  0.59776  0.51723  1.0000
  H   H1145     1.0  0.71077  0.96566  0.87819  1.0000
  H   H1146     1.0  0.97946  0.97052  0.00587  1.0000
  C   C669      1.0  0.92422  0.71886  0.52243  1.0000
  H   H1147     1.0  0.76566  0.98735  0.87890  1.0000
  C   C670      1.0  0.73053  0.95978  0.87787  1.0000
  H   H1148     1.0  0.68926  0.73153  0.52789  1.0000
  C   C671      1.0  0.00978  0.90812  0.00594  1.0000
  H   H1149     1.0  0.99390  0.54351  0.59845  1.0000
  C   C672      1.0  0.74671  0.99606  0.88129  1.0000
  H   H1150     1.0  0.01280  0.96633  0.82464  1.0000
  H   H1151     1.0  0.74940  0.00451  0.90254  1.0000
  H   H1152     1.0  0.78028  0.00793  0.96915  1.0000
