data_image0
_chemical_formula_structural       FeSHFeS2FeSFeS3CH2CH3FeSHSCHSHFeS2FeSHFeSFeS3C2HC2H3C6H2C3HC2HCHC2NHC6HC3HCH2C6H3NC8H21CH2CH4CH8C2FeSHNH4CH2CH3C2H2CH4CH6CH4CH2NH7C2H3SHCH3SCHSHCH3CNH4CH3CHC3HCHCHCH3CH2FeH4CH2C3H3CH8C3HCH2CNH6SCHCHC2NHNCH6C2H2FeS2FeS2FeSFeS3H2SH2SFeS2FeS2FeSFeHS2FeSH2SHC2H3CH2CH5C2HCH2CH2C4H3CHC4NH2C6H5C2SH3C6H2FeCHC2HNH2CHC2H2CH3C2H3FeHFeH2SCH3SH3CNC8H9SCH3CH6CH4CH2C2H4CH3SH2CHNH2CSC2HCH2SH3CH6C2H7C3H3C4SHCH4CH2C2H2CSNFeS2FeS2FeSFeS3H3SCSFeSFeSHFeS2FeHSFeHFeS3H2C2FeCH3CH2C3H5CFeH2CH2CH2CHC3HCH2C9H4C6H4CH3CHCHNCH2C2HCNH7CH3CHC2H4CNHC3H11CNC8H21C6H3CH4SHCH5CH2CH3CH6CHCH2CH2SH2SHCH5CH2C2HCH4CH2CHNHC2HFeCHCFeS2FeSCFeSFeS4FeSH2SFeSFeSHFeSFeCSHSCHSCHCHC10H2CHCHC5H3C6H5CH2SC2H3C4H4FeH2CH2CHCHCH2C2H5CH6C2H3CHNSHCHCHC2H2SH3SCH3CH4CNHCHCHCHCFeHCH2CH3CH2CH6SHCSH2C3HNC8H20NC4H12CH2CHCH8SH4FeH2SC2H2CHSCH12FeS2FeSHFeSFeSHSFeSHFeS2FeSFeS4FeSCH5CHC2H2C2H4C7H4CH2C6H2SH2C3HCHC2HSHCHSHFeHSCHSC2H4C2H4C2HCH3C2H2CHNH5CH5C2H2SCSCH12SCHC2NC8H20NC2HCHCSCHCH2CH4CSC2FeHCH4CFeC2H2NHCH3C2H2FeC2H2FeSCFeS2FeSFeS4HCHCH4FeS2FeS2FeNFeHS2HSCHFeSNHFeHSHC5H4C5H5C6H2SHC6H7C2NHFeC6H3SH5CH3CHCHNH7CH3SH3CH2S2H4FeNC8H21NC8H2SH8CH6C3NH3CH5CSH2CH4C8H6CHCHCHC3HCHC2HCH3C3H2CSH6C3FeH3C2H8CH2CH2CS2HCHCFeHCH5CH3SHFeS2FeS2FeSFeS3H2SHSHFeSCH2FeS2FeSHFeSFeCSH2CHC2HC2H3C2HCHC4H5CH4CH7C6H4C6HFeH2C2H2NH2C2H3CH3CH3CHCH2CH2C3SCH4C2HSH2C3HCH4C2H3CFeCHCH7CH4FeCH2CH7NH2CHCH3CHNC6HCH8NHCH8CH3SNC8H10C2H2C3H3CH4CHSHSH2CHCHSHCHNFeS2FeSFe2CS2FeS2FeS2FeS2FeSFeHS3H4SH2C6HCH2C3HSCH2SHSHCSH2C4H3C3H2C6H4C3H2C3H2CH6NCHCHNHCH2CHCHCH2CSCH4C2H3FeH3CH4C4H6CHC3SCH4C2SC2H2CH2CH6NHCFeH4N2H2CH6CNC8H24CHC3H3CH2CH3C3H5FeHFeS2FeHCFeSFeHS2CSCFeS2FeS2FeSFeS3FeSHS3FeSHCHCHC7H3C3H2C3H2CH3SH2CHC2HC7H6CHCHC2H2CHC3NC2HCHC3H3CH11CH7CSH2NHCH4CH4CSCH4CH5C3H6NC8H22CNCH2CH5CH2CNC4H4CH2C2H4CHCH2CHC2H2CH5SCH12CH2C2HCHFe2CS2CHFeSCFeSHFeSFeS3FeS2FeS2FeHFeS3HC3HC7HCH2C2HC3HSCHC6H6CH3SC3H2CHCH3SH4SC2HNC8H21CHCH3SCNC8H20CH2CHCH18CHCHC3NH2C2HCFeH4CHC3SHNHCHCSHNH2NH2CH3CH6FeHCH2FeHCHC2SHSH4C2H6CHCSCH3CFeS2FeS2FeSFeNS2C2SFeCSH2CSFeS2FeS2FeSFeHS2H2CH2C2H3C2H2CHC2HSC2H3CHC3H4C2H2CHCH2CH4C6H4CNHC3H2C2H2CH2CHC2HNH5CHC2H2CH3C2H3CNC7H18CH3CH2CH3CSCH2C2H4CH2C2FeHNCSH8CHCHCH2FeC2H2C2H12CHCH5C2HCNC3H3SH2C2H2CH3CH5CH4C2NCHFeS2FeS2FeHFeHS2NHFeSHSFeS2FeS2FeHFeS3H3NHC6H3C2HNH2CHC7SHC4H2SH2C6H4CHCSHC3H2CH8CHCH3C2HSH3SH2CHCH2CHCH2SC2HCH3SH2CH9CH2NC3H2CHSH3CH2CHCHCSC2H2CHFeH3C4H8NC6H8CH6FeH2SC2HNC8H20CH5CH3CH2NHCH2CHFeCH2SHCHCHC2H2FeSCFeSHFeHFeSHSHCHFeS2FeS2FeSFeS3FeSFeSCS2C2HSCHNC4HCH2C2H3CH3SC4H4CH3C3H4CHCH2NH2C7H11C6SH6NC8H9SCH4SH10C2NC8H20C3H5CSHFeH4C2HC4H4CHSFeC2H4CH2C4NH2CH2NHCH3CH7CSHCHC2HC2H3CFeHCFeS2FeS2FeSFeS5FeHCFeSCFeS2FeS2FeSFeS3CSFeSHCNCHC2H4C2H3C3HC4H2C5H5C7HSH2C6H5CNC8H20C2H3CH2C3H6NC8H22NHCHC2H3NHCH4SH8CHC3H4C2HSH4CHCH4C3H6CH2CHC2H6CH10CHCH3CH2CHC3NHCHFeSHFeSHFeSFeS3FeSFeSCFeS2FeSFeS3HSH4CH2C3H4C3HSCH5CSH2CFeC2H3C6H4C4H2C2H2C3NH3NC7H18C3SH5SC3NC8H14CH5NC8H13C2H5CH4CH6CSFeCHCSHC3H2CH4C2NSHC2HC2H7CH3CH3NHNH6C2H2C2HCH5C2H5CHCSHFeSCHFeSHFeS2FeSFeS3FeS2FeSCFeHFeS3HCSHFeH3C2HCHCH3C5H8SC6H8C4H2C3HCH2CH4NHCH3C2HCH4C2HCH5C3H2CNC4H12NC8H19C2HCH2CHSHCSC2H4CSH2C3H5CH3CH3CHC3HCH4FeHCNSH4SNHSHCH2FeC3H2SC2H2SH2C4NHCH4CHNC3H
_chemical_formula_sum              "Fe192 S384 H2304 C1344 N96"
_cell_length_a       77.7027
_cell_length_b       78.2335
_cell_length_c       36.2791
_cell_angle_alpha    88.6225
_cell_angle_beta     88.5874
_cell_angle_gamma    87.7827

_space_group_name_H-M_alt    "P 1"
_space_group_IT_number       1

loop_
  _space_group_symop_operation_xyz
  'x, y, z'

loop_
  _atom_site_type_symbol
  _atom_site_label
  _atom_site_symmetry_multiplicity
  _atom_site_fract_x
  _atom_site_fract_y
  _atom_site_fract_z
  _atom_site_occupancy
  Fe  Fe1       1.0  0.01353  0.11794  0.22623  1.0000
  S   S1        1.0  0.03789  0.11416  0.19184  1.0000
  H   H1        1.0  0.03553  0.04963  0.32430  1.0000
  Fe  Fe2       1.0  0.02640  0.09206  0.28687  1.0000
  S   S2        1.0  0.05166  0.08659  0.25695  1.0000
  S   S3        1.0  0.01829  0.08230  0.34461  1.0000
  Fe  Fe3       1.0  0.05231  0.11494  0.24503  1.0000
  S   S4        1.0  0.07528  0.13192  0.25376  1.0000
  Fe  Fe4       1.0  0.03552  0.08614  0.20609  1.0000
  S   S5        1.0  0.04146  0.06572  0.16395  1.0000
  S   S6        1.0  0.02789  0.12069  0.27863  1.0000
  S   S7        1.0  0.01031  0.08961  0.23675  1.0000
  C   C1        1.0  0.22101  0.22673  0.29752  1.0000
  H   H2        1.0  0.18626  0.16744  0.04227  1.0000
  H   H3        1.0  0.11512  0.02619  0.71443  1.0000
  C   C2        1.0  0.17899  0.00461  0.86696  1.0000
  H   H4        1.0  0.99907  0.01529  0.20148  1.0000
  H   H5        1.0  0.24191  0.17018  0.44499  1.0000
  H   H6        1.0  0.00766  0.16336  0.19566  1.0000
  Fe  Fe5       1.0  0.22838  0.04417  0.87950  1.0000
  S   S8        1.0  0.20497  0.02664  0.88119  1.0000
  H   H7        1.0  0.99857  0.00636  0.63207  1.0000
  S   S9        1.0  0.22794  0.08598  0.98196  1.0000
  C   C3        1.0  0.13192  0.00289  0.71547  1.0000
  H   H8        1.0  0.10361  0.15429  0.25867  1.0000
  S   S10       1.0  0.22575  0.07302  0.88097  1.0000
  H   H9        1.0  0.16521  0.06687  0.90998  1.0000
  Fe  Fe6       1.0  0.21568  0.13666  0.18065  1.0000
  S   S11       1.0  0.18941  0.14718  0.16593  1.0000
  S   S12       1.0  0.23412  0.12395  0.13721  1.0000
  Fe  Fe7       1.0  0.21247  0.15063  0.26129  1.0000
  S   S13       1.0  0.18569  0.16186  0.24971  1.0000
  H   H10       1.0  0.02444  0.24037  0.19530  1.0000
  Fe  Fe8       1.0  0.18044  0.13730  0.22173  1.0000
  S   S14       1.0  0.15690  0.12025  0.22654  1.0000
  Fe  Fe9       1.0  0.19674  0.17094  0.19480  1.0000
  S   S15       1.0  0.18842  0.19714  0.16998  1.0000
  S   S16       1.0  0.20664  0.12536  0.23568  1.0000
  S   S17       1.0  0.22357  0.16115  0.20723  1.0000
  C   C4        1.0  0.19884  0.21560  0.15212  1.0000
  C   C5        1.0  0.21679  0.21651  0.14946  1.0000
  H   H11       1.0  0.04364  0.04308  0.10339  1.0000
  C   C6        1.0  0.03012  0.04563  0.10973  1.0000
  C   C7        1.0  0.00266  0.99435  0.14219  1.0000
  H   H12       1.0  0.22485  0.20565  0.15803  1.0000
  H   H13       1.0  0.24147  0.15201  0.08756  1.0000
  H   H14       1.0  0.17585  0.00558  0.89601  1.0000
  C   C8        1.0  0.23003  0.09627  0.02540  1.0000
  C   C9        1.0  0.14785  0.06970  0.98001  1.0000
  C   C10       1.0  0.01761  0.03771  0.08942  1.0000
  C   C11       1.0  0.23194  0.11298  0.09462  1.0000
  C   C12       1.0  0.21593  0.10985  0.07963  1.0000
  C   C13       1.0  0.21502  0.10167  0.04529  1.0000
  H   H15       1.0  0.20423  0.11373  0.09449  1.0000
  H   H16       1.0  0.20914  0.10976  0.55540  1.0000
  C   C14       1.0  0.03344  0.99787  0.15259  1.0000
  C   C15       1.0  0.22369  0.20881  0.24335  1.0000
  C   C16       1.0  0.22435  0.23158  0.13571  1.0000
  H   H17       1.0  0.20427  0.04879  0.94939  1.0000
  C   C17       1.0  0.18997  0.15659  0.06094  1.0000
  C   C18       1.0  0.01623  0.22971  0.18826  1.0000
  H   H18       1.0  0.06761  0.99988  0.89287  1.0000
  C   C19       1.0  0.23646  0.15424  0.35842  1.0000
  H   H19       1.0  0.16802  0.00618  0.72018  1.0000
  C   C20       1.0  0.23934  0.99682  0.85109  1.0000
  C   C21       1.0  0.19298  0.01360  0.85177  1.0000
  N   N1        1.0  0.23465  0.11311  0.49690  1.0000
  H   H20       1.0  0.21229  0.04057  0.01200  1.0000
  C   C22       1.0  0.01836  0.06127  0.36462  1.0000
  C   C23       1.0  0.01165  0.01497  0.18615  1.0000
  C   C24       1.0  0.00955  0.04227  0.41607  1.0000
  C   C25       1.0  0.01959  0.02873  0.40144  1.0000
  C   C26       1.0  0.02892  0.03156  0.36817  1.0000
  C   C27       1.0  0.02816  0.04764  0.34962  1.0000
  H   H21       1.0  0.99817  0.19259  0.17452  1.0000
  C   C28       1.0  0.00623  0.23341  0.15253  1.0000
  C   C29       1.0  0.02525  0.05675  0.13822  1.0000
  C   C30       1.0  0.21651  0.09784  0.54873  1.0000
  H   H22       1.0  0.19048  0.14447  0.04556  1.0000
  C   C31       1.0  0.00774  0.05999  0.14625  1.0000
  H   H23       1.0  0.20625  0.23752  0.21289  1.0000
  H   H24       1.0  0.01557  0.00417  0.66548  1.0000
  C   C32       1.0  0.09783  0.12861  0.24415  1.0000
  C   C33       1.0  0.10500  0.11289  0.23252  1.0000
  C   C34       1.0  0.12303  0.11066  0.22711  1.0000
  C   C35       1.0  0.13417  0.12414  0.23255  1.0000
  C   C36       1.0  0.12697  0.13992  0.24372  1.0000
  C   C37       1.0  0.10896  0.14207  0.24970  1.0000
  H   H25       1.0  0.09669  0.10239  0.22810  1.0000
  H   H26       1.0  0.12841  0.09840  0.21851  1.0000
  H   H27       1.0  0.13529  0.15041  0.24816  1.0000
  N   N2        1.0  0.07330  0.09922  0.36297  1.0000
  C   C38       1.0  0.08447  0.10496  0.33061  1.0000
  C   C39       1.0  0.05566  0.10757  0.35794  1.0000
  C   C40       1.0  0.07198  0.08007  0.36097  1.0000
  C   C41       1.0  0.08156  0.10419  0.39821  1.0000
  C   C42       1.0  0.10295  0.09694  0.32833  1.0000
  C   C43       1.0  0.05490  0.12732  0.35639  1.0000
  C   C44       1.0  0.06157  0.07123  0.39212  1.0000
  C   C45       1.0  0.06962  0.10614  0.43284  1.0000
  H   H28       1.0  0.07827  0.10237  0.30405  1.0000
  H   H29       1.0  0.08603  0.11905  0.33063  1.0000
  H   H30       1.0  0.04626  0.10357  0.37954  1.0000
  H   H31       1.0  0.05007  0.10323  0.33200  1.0000
  H   H32       1.0  0.06625  0.07666  0.33434  1.0000
  H   H33       1.0  0.08492  0.07354  0.36147  1.0000
  H   H34       1.0  0.09217  0.09480  0.40541  1.0000
  H   H35       1.0  0.08774  0.11675  0.39406  1.0000
  H   H36       1.0  0.10302  0.08366  0.31824  1.0000
  H   H37       1.0  0.11065  0.10439  0.30783  1.0000
  H   H38       1.0  0.10973  0.09730  0.35476  1.0000
  H   H39       1.0  0.06212  0.13296  0.37869  1.0000
  H   H40       1.0  0.05972  0.13229  0.32931  1.0000
  H   H41       1.0  0.04124  0.13196  0.35918  1.0000
  H   H42       1.0  0.06815  0.07164  0.41883  1.0000
  H   H43       1.0  0.06064  0.05748  0.38565  1.0000
  H   H44       1.0  0.04817  0.07644  0.39485  1.0000
  H   H45       1.0  0.07673  0.10137  0.45746  1.0000
  H   H46       1.0  0.05762  0.09904  0.43266  1.0000
  H   H47       1.0  0.06642  0.11985  0.43790  1.0000
  H   H48       1.0  0.22577  0.13857  0.03865  1.0000
  C   C46       1.0  0.17784  0.06581  0.92347  1.0000
  H   H49       1.0  0.16066  0.03869  0.89631  1.0000
  H   H50       1.0  0.20255  0.09939  0.03420  1.0000
  C   C47       1.0  0.13996  0.01818  0.65677  1.0000
  H   H51       1.0  0.23789  0.19084  0.09991  1.0000
  H   H52       1.0  0.03364  0.00814  0.13072  1.0000
  H   H53       1.0  0.21087  0.14698  0.09438  1.0000
  H   H54       1.0  0.20761  0.18684  0.27986  1.0000
  C   C48       1.0  0.19543  0.05322  0.97220  1.0000
  H   H55       1.0  0.20677  0.11576  0.49201  1.0000
  H   H56       1.0  0.17957  0.15541  0.08233  1.0000
  H   H57       1.0  0.19120  0.04496  0.03044  1.0000
  H   H58       1.0  0.19072  0.99977  0.76360  1.0000
  H   H59       1.0  0.02237  0.99734  0.29890  1.0000
  H   H60       1.0  0.01766  0.01487  0.89349  1.0000
  H   H61       1.0  0.01901  0.03356  0.22602  1.0000
  H   H62       1.0  0.21901  0.19487  0.31701  1.0000
  C   C49       1.0  0.18376  0.08431  0.92654  1.0000
  C   C50       1.0  0.17054  0.03786  0.95263  1.0000
  Fe  Fe10      1.0  0.24119  0.07131  0.93312  1.0000
  S   S18       1.0  0.22199  0.15690  0.32020  1.0000
  H   H63       1.0  0.23020  0.18774  0.02571  1.0000
  N   N3        1.0  0.22176  0.16497  0.05500  1.0000
  H   H64       1.0  0.17366  0.01281  0.67354  1.0000
  H   H65       1.0  0.21661  0.09885  0.46662  1.0000
  H   H66       1.0  0.21312  0.15133  0.00772  1.0000
  H   H67       1.0  0.16580  0.05608  0.01412  1.0000
  C   C51       1.0  0.17045  0.00174  0.69178  1.0000
  H   H68       1.0  0.14477  0.04547  0.93091  1.0000
  H   H69       1.0  0.02648  0.00544  0.79280  1.0000
  C   C52       1.0  0.11447  0.01243  0.72215  1.0000
  H   H70       1.0  0.21065  0.13966  0.52140  1.0000
  H   H71       1.0  0.19721  0.08479  0.93580  1.0000
  H   H72       1.0  0.10373  0.00652  0.70831  1.0000
  C   C53       1.0  0.23806  0.16513  0.07673  1.0000
  C   C54       1.0  0.19840  0.04076  0.00531  1.0000
  H   H73       1.0  0.17311  0.07585  0.99872  1.0000
  H   H74       1.0  0.23935  0.14455  0.97655  1.0000
  C   C55       1.0  0.21738  0.12375  0.43990  1.0000
  H   H75       1.0  0.18657  0.05923  0.90295  1.0000
  H   H76       1.0  0.00156  0.06893  0.40995  1.0000
  H   H77       1.0  0.15096  0.02341  0.92665  1.0000
  H   H78       1.0  0.11115  0.02251  0.65212  1.0000
  C   C56       1.0  0.20822  0.19596  0.05949  1.0000
  H   H79       1.0  0.04010  0.01182  0.82973  1.0000
  H   H80       1.0  0.18350  0.09062  0.89878  1.0000
  H   H81       1.0  0.19439  0.19690  0.05235  1.0000
  H   H82       1.0  0.04338  0.00108  0.17254  1.0000
  H   H83       1.0  0.02639  0.12033  0.10219  1.0000
  H   H84       1.0  0.02154  0.02917  0.06751  1.0000
  C   C57       1.0  0.19703  0.01176  0.81423  1.0000
  H   H85       1.0  0.20423  0.16823  0.10259  1.0000
  H   H86       1.0  0.23823  0.23216  0.13382  1.0000
  H   H87       1.0  0.14560  0.02729  0.67586  1.0000
  H   H88       1.0  0.23816  0.18667  0.26889  1.0000
  C   C58       1.0  0.19551  0.22160  0.25887  1.0000
  H   H89       1.0  0.11127  0.01181  0.75217  1.0000
  H   H90       1.0  0.02096  0.10256  0.07365  1.0000
  N   N4        1.0  0.17716  0.05544  0.95910  1.0000
  H   H91       1.0  0.24313  0.10482  0.55140  1.0000
  H   H92       1.0  0.21773  0.13753  0.44612  1.0000
  H   H93       1.0  0.17510  0.09204  0.94493  1.0000
  H   H94       1.0  0.21175  0.22691  0.35521  1.0000
  H   H95       1.0  0.18109  0.02919  0.94179  1.0000
  H   H96       1.0  0.03646  0.02642  0.19718  1.0000
  H   H97       1.0  0.20778  0.01842  0.80201  1.0000
  C   C59       1.0  0.21803  0.18214  0.03631  1.0000
  C   C60       1.0  0.23806  0.17726  0.10947  1.0000
  H   H98       1.0  0.23926  0.13972  0.48453  1.0000
  H   H99       1.0  0.18980  0.20896  0.33973  1.0000
  H   H100      1.0  0.02483  0.21816  0.18443  1.0000
  S   S19       1.0  0.02133  0.00818  0.42368  1.0000
  H   H101      1.0  0.20489  0.12192  0.42657  1.0000
  C   C61       1.0  0.02116  0.10735  0.10212  1.0000
  H   H102      1.0  0.17474  0.22939  0.14243  1.0000
  H   H103      1.0  0.14609  0.07424  0.95125  1.0000
  H   H104      1.0  0.19160  0.18616  0.33912  1.0000
  S   S20       1.0  0.04001  0.99731  0.94618  1.0000
  C   C62       1.0  0.21067  0.23499  0.32969  1.0000
  H   H105      1.0  0.14372  0.08082  0.99703  1.0000
  S   S21       1.0  0.24275  0.04238  0.93292  1.0000
  H   H106      1.0  0.12355  0.02579  0.61009  1.0000
  C   C63       1.0  0.18864  0.22992  0.14063  1.0000
  H   H107      1.0  0.21854  0.09061  0.57512  1.0000
  H   H108      1.0  0.20026  0.06561  0.98085  1.0000
  H   H109      1.0  0.21681  0.20062  0.22424  1.0000
  C   C64       1.0  0.16663  0.06438  0.98888  1.0000
  N   N5        1.0  0.00626  0.99761  0.85607  1.0000
  H   H110      1.0  0.00473  0.11145  0.15030  1.0000
  H   H111      1.0  0.01470  0.02368  0.84843  1.0000
  H   H112      1.0  0.99775  0.11516  0.04557  1.0000
  H   H113      1.0  0.13911  0.05907  0.98652  1.0000
  C   C65       1.0  0.00910  0.05846  0.39796  1.0000
  H   H114      1.0  0.18978  0.21223  0.24053  1.0000
  H   H115      1.0  0.16615  0.03176  0.97910  1.0000
  H   H116      1.0  0.01014  0.02452  0.16330  1.0000
  C   C66       1.0  0.18720  0.00120  0.79238  1.0000
  H   H117      1.0  0.22755  0.12039  0.41904  1.0000
  C   C67       1.0  0.24450  0.16247  0.42100  1.0000
  C   C68       1.0  0.03428  0.00084  0.81647  1.0000
  C   C69       1.0  0.22352  0.13941  0.53384  1.0000
  H   H118      1.0  0.19532  0.02744  0.99898  1.0000
  C   C70       1.0  0.01066  0.99928  0.63951  1.0000
  H   H119      1.0  0.20924  0.19438  0.08963  1.0000
  C   C71       1.0  0.15584  0.03659  0.92511  1.0000
  H   H120      1.0  0.23261  0.22054  0.31028  1.0000
  C   C72       1.0  0.23349  0.16407  0.39029  1.0000
  H   H121      1.0  0.23796  0.00558  0.90600  1.0000
  H   H122      1.0  0.21335  0.20871  0.05229  1.0000
  H   H123      1.0  0.14934  0.01690  0.63316  1.0000
  C   C73       1.0  0.12350  0.02696  0.64055  1.0000
  H   H124      1.0  0.99643  0.99365  0.70795  1.0000
  H   H125      1.0  0.22319  0.13314  0.56156  1.0000
  Fe  Fe11      1.0  0.00747  0.99563  0.47359  1.0000
  H   H126      1.0  0.12360  0.04091  0.64561  1.0000
  H   H127      1.0  0.00084  0.09302  0.12586  1.0000
  H   H128      1.0  0.03041  0.09876  0.11732  1.0000
  H   H129      1.0  0.00399  0.00372  0.11880  1.0000
  C   C74       1.0  0.19723  0.23862  0.23686  1.0000
  H   H130      1.0  0.22665  0.15296  0.53795  1.0000
  H   H131      1.0  0.02856  0.01267  0.23457  1.0000
  C   C75       1.0  0.23759  0.13106  0.50889  1.0000
  C   C76       1.0  0.24054  0.19884  0.25358  1.0000
  C   C77       1.0  0.22447  0.15160  0.02577  1.0000
  H   H132      1.0  0.18533  0.22416  0.28013  1.0000
  H   H133      1.0  0.00077  0.23360  0.07765  1.0000
  H   H134      1.0  0.22642  0.23712  0.27971  1.0000
  C   C78       1.0  0.20716  0.15926  0.07998  1.0000
  H   H135      1.0  0.21005  0.18049  0.01162  1.0000
  H   H136      1.0  0.02033  0.00238  0.61754  1.0000
  H   H137      1.0  0.01589  0.23196  0.12955  1.0000
  H   H138      1.0  0.22254  0.17303  0.39126  1.0000
  H   H139      1.0  0.00706  0.00728  0.32988  1.0000
  H   H140      1.0  0.14120  0.00985  0.73169  1.0000
  H   H141      1.0  0.03694  0.02127  0.35684  1.0000
  H   H142      1.0  0.18448  0.24252  0.22549  1.0000
  C   C79       1.0  0.20825  0.19808  0.29796  1.0000
  C   C80       1.0  0.24024  0.15360  0.99954  1.0000
  C   C81       1.0  0.19142  0.19795  0.32135  1.0000
  H   H143      1.0  0.19694  0.23766  0.32377  1.0000
  C   C82       1.0  0.21840  0.11226  0.47511  1.0000
  H   H144      1.0  0.20853  0.08991  0.53138  1.0000
  H   H145      1.0  0.00387  0.06828  0.16863  1.0000
  C   C83       1.0  0.00337  0.10672  0.12183  1.0000
  N   N6        1.0  0.21188  0.21404  0.27518  1.0000
  H   H146      1.0  0.22772  0.22012  0.22663  1.0000
  H   H147      1.0  0.18004  0.19726  0.30356  1.0000
  H   H148      1.0  0.00736  0.22662  0.21174  1.0000
  H   H149      1.0  0.23897  0.08778  0.52176  1.0000
  H   H150      1.0  0.00437  0.13750  0.08404  1.0000
  H   H151      1.0  0.99682  0.00993  0.80595  1.0000
  S   S22       1.0  0.01083  0.99821  0.53499  1.0000
  C   C84       1.0  0.00866  0.01539  0.86998  1.0000
  H   H152      1.0  0.11266  0.99509  0.65663  1.0000
  C   C85       1.0  0.02482  0.02202  0.21252  1.0000
  H   H153      1.0  0.22745  0.17503  0.12971  1.0000
  C   C86       1.0  0.23421  0.10083  0.52979  1.0000
  C   C87       1.0  0.16900  0.99424  0.84499  1.0000
  N   N7        1.0  0.13806  0.00099  0.67590  1.0000
  H   H154      1.0  0.13457  0.99690  0.59968  1.0000
  N   N8        1.0  0.01582  0.99742  0.17099  1.0000
  C   C88       1.0  0.00012  0.04090  0.09744  1.0000
  H   H155      1.0  0.24020  0.00900  0.83490  1.0000
  H   H156      1.0  0.22551  0.99405  0.85501  1.0000
  H   H157      1.0  0.00237  0.04037  0.44168  1.0000
  H   H158      1.0  0.24085  0.16666  0.98719  1.0000
  H   H159      1.0  0.24554  0.00731  0.96393  1.0000
  H   H160      1.0  0.99736  0.22273  0.14961  1.0000
  C   C89       1.0  0.24602  0.09938  0.04045  1.0000
  C   C90       1.0  0.01404  0.99500  0.32366  1.0000
  H   H161      1.0  0.99661  0.13909  0.13023  1.0000
  H   H162      1.0  0.21374  0.45915  0.44231  1.0000
  Fe  Fe12      1.0  0.02453  0.34248  0.03611  1.0000
  S   S23       1.0  0.04485  0.34712  0.07778  1.0000
  S   S24       1.0  0.01213  0.31663  0.02851  1.0000
  Fe  Fe13      1.0  0.02515  0.37982  0.00433  1.0000
  S   S25       1.0  0.04538  0.38692  0.04399  1.0000
  S   S26       1.0  0.00822  0.39948  0.97207  1.0000
  Fe  Fe14      1.0  0.05862  0.36129  0.03162  1.0000
  S   S27       1.0  0.08773  0.36157  0.01854  1.0000
  Fe  Fe15      1.0  0.03033  0.37227  0.08682  1.0000
  S   S28       1.0  0.02064  0.38164  0.14249  1.0000
  S   S29       1.0  0.03920  0.35515  0.98870  1.0000
  S   S30       1.0  0.00927  0.36653  0.04841  1.0000
  H   H163      1.0  0.18814  0.25589  0.11831  1.0000
  H   H164      1.0  0.03203  0.44733  0.32967  1.0000
  S   S31       1.0  0.01924  0.44216  0.82066  1.0000
  H   H165      1.0  0.18371  0.38825  0.45642  1.0000
  H   H166      1.0  0.05198  0.46529  0.86834  1.0000
  S   S32       1.0  0.03374  0.45664  0.19548  1.0000
  Fe  Fe16      1.0  0.18175  0.31375  0.06556  1.0000
  S   S33       1.0  0.19841  0.33613  0.05328  1.0000
  S   S34       1.0  0.15212  0.31355  0.06934  1.0000
  Fe  Fe17      1.0  0.21285  0.29060  0.08718  1.0000
  S   S35       1.0  0.23148  0.31195  0.07672  1.0000
  S   S36       1.0  0.22445  0.26469  0.10772  1.0000
  Fe  Fe18      1.0  0.21189  0.32908  0.10646  1.0000
  S   S37       1.0  0.21475  0.35221  0.14458  1.0000
  Fe  Fe19      1.0  0.21695  0.31747  0.02404  1.0000
  H   H167      1.0  0.00897  0.28347  0.10199  1.0000
  S   S38       1.0  0.19437  0.30745  0.12001  1.0000
  S   S39       1.0  0.19927  0.29534  0.03325  1.0000
  Fe  Fe20      1.0  0.22833  0.42003  0.39289  1.0000
  S   S40       1.0  0.20035  0.43023  0.40229  1.0000
  H   H168      1.0  0.04401  0.47641  0.73856  1.0000
  H   H169      1.0  0.04006  0.47099  0.80386  1.0000
  S   S41       1.0  0.23264  0.39116  0.39402  1.0000
  H   H170      1.0  0.16164  0.43480  0.50776  1.0000
  C   C91       1.0  0.22362  0.35761  0.18795  1.0000
  C   C92       1.0  0.21989  0.37402  0.20213  1.0000
  H   H171      1.0  0.07711  0.43584  0.30592  1.0000
  H   H172      1.0  0.23302  0.29453  0.93073  1.0000
  H   H173      1.0  0.17354  0.37458  0.06863  1.0000
  C   C93       1.0  0.23474  0.34648  0.20773  1.0000
  H   H174      1.0  0.06330  0.47089  0.23641  1.0000
  H   H175      1.0  0.00550  0.36862  0.92858  1.0000
  C   C94       1.0  0.07031  0.49341  0.26404  1.0000
  H   H176      1.0  0.09175  0.46481  0.37626  1.0000
  H   H177      1.0  0.14520  0.37117  0.09685  1.0000
  H   H178      1.0  0.17523  0.32425  0.19687  1.0000
  H   H179      1.0  0.06488  0.47471  0.71726  1.0000
  H   H180      1.0  0.00659  0.43367  0.12386  1.0000
  C   C95       1.0  0.23834  0.36817  0.25506  1.0000
  C   C96       1.0  0.16324  0.33192  0.19080  1.0000
  H   H181      1.0  0.02105  0.26019  0.13099  1.0000
  C   C97       1.0  0.99775  0.43177  0.05101  1.0000
  H   H182      1.0  0.22144  0.36319  0.01056  1.0000
  H   H183      1.0  0.01486  0.40893  0.06088  1.0000
  C   C98       1.0  0.01601  0.43070  0.86326  1.0000
  H   H184      1.0  0.06742  0.44417  0.72853  1.0000
  H   H185      1.0  0.01003  0.43089  0.22186  1.0000
  C   C99       1.0  0.01189  0.41151  0.93039  1.0000
  C   C100      1.0  0.02668  0.40897  0.90813  1.0000
  C   C101      1.0  0.02869  0.41849  0.87479  1.0000
  C   C102      1.0  0.23925  0.30409  0.91362  1.0000
  H   H186      1.0  0.09104  0.47673  0.79565  1.0000
  H   H187      1.0  0.03654  0.39961  0.91644  1.0000
  H   H188      1.0  0.04015  0.41632  0.85774  1.0000
  C   C103      1.0  0.02493  0.40226  0.15766  1.0000
  H   H189      1.0  0.22643  0.36646  0.07551  1.0000
  C   C104      1.0  0.01778  0.42570  0.19930  1.0000
  C   C105      1.0  0.03040  0.43555  0.18200  1.0000
  C   C106      1.0  0.04046  0.42861  0.15293  1.0000
  C   C107      1.0  0.03764  0.41207  0.14056  1.0000
  N   N9        1.0  0.07037  0.46250  0.29187  1.0000
  H   H190      1.0  0.05030  0.43615  0.13955  1.0000
  H   H191      1.0  0.04535  0.40687  0.11794  1.0000
  C   C108      1.0  0.10533  0.34763  0.03194  1.0000
  C   C109      1.0  0.12209  0.35127  0.01913  1.0000
  C   C110      1.0  0.13651  0.34084  0.02947  1.0000
  C   C111      1.0  0.13438  0.32660  0.05304  1.0000
  C   C112      1.0  0.11759  0.32289  0.06562  1.0000
  C   C113      1.0  0.10317  0.33332  0.05525  1.0000
  H   H192      1.0  0.12392  0.36224  0.00093  1.0000
  H   H193      1.0  0.14926  0.34381  0.01921  1.0000
  H   H194      1.0  0.11573  0.31190  0.08374  1.0000
  H   H195      1.0  0.09040  0.33029  0.06530  1.0000
  H   H196      1.0  0.03888  0.47668  0.66916  1.0000
  C   C114      1.0  0.01513  0.40907  0.18724  1.0000
  C   C115      1.0  0.16556  0.34124  0.15316  1.0000
  S   S42       1.0  0.00482  0.46623  0.73088  1.0000
  H   H197      1.0  0.04730  0.44972  0.70871  1.0000
  H   H198      1.0  0.02021  0.47564  0.57914  1.0000
  H   H199      1.0  0.16854  0.38893  0.19030  1.0000
  C   C116      1.0  0.19043  0.44859  0.42361  1.0000
  C   C117      1.0  0.17233  0.45074  0.42351  1.0000
  C   C118      1.0  0.16372  0.46448  0.44178  1.0000
  C   C119      1.0  0.17310  0.47626  0.46072  1.0000
  C   C120      1.0  0.19121  0.47418  0.46058  1.0000
  C   C121      1.0  0.19984  0.46052  0.44203  1.0000
  H   H200      1.0  0.16488  0.44162  0.40939  1.0000
  H   H201      1.0  0.14981  0.46584  0.44165  1.0000
  Fe  Fe21      1.0  0.01378  0.47061  0.23126  1.0000
  C   C122      1.0  0.11938  0.35819  0.13249  1.0000
  H   H202      1.0  0.20110  0.24908  0.25461  1.0000
  C   C123      1.0  0.01567  0.42276  0.05414  1.0000
  C   C124      1.0  0.08343  0.46815  0.77879  1.0000
  H   H203      1.0  0.07352  0.48074  0.33519  1.0000
  N   N10       1.0  0.15222  0.35516  0.14440  1.0000
  H   H204      1.0  0.17111  0.36926  0.21493  1.0000
  H   H205      1.0  0.06925  0.44323  0.22406  1.0000
  C   C125      1.0  0.05143  0.46264  0.30198  1.0000
  H   H206      1.0  0.10734  0.35142  0.13923  1.0000
  C   C126      1.0  0.15558  0.36191  0.10568  1.0000
  C   C127      1.0  0.00757  0.32892  0.92667  1.0000
  H   H207      1.0  0.05453  0.45343  0.81006  1.0000
  H   H208      1.0  0.08565  0.47185  0.24508  1.0000
  C   C128      1.0  0.19620  0.24500  0.12694  1.0000
  H   H209      1.0  0.00025  0.32497  0.90268  1.0000
  H   H210      1.0  0.08437  0.44932  0.82518  1.0000
  H   H211      1.0  0.18050  0.37188  0.16930  1.0000
  C   C129      1.0  0.08698  0.44994  0.79499  1.0000
  C   C130      1.0  0.00126  0.43329  0.88564  1.0000
  H   H212      1.0  0.24288  0.37744  0.12768  1.0000
  H   H213      1.0  0.07383  0.42320  0.24675  1.0000
  H   H214      1.0  0.17216  0.38367  0.11318  1.0000
  Fe  Fe22      1.0  0.00868  0.48613  0.30782  1.0000
  H   H215      1.0  0.04687  0.47561  0.31038  1.0000
  Fe  Fe23      1.0  0.00300  0.46383  0.79299  1.0000
  H   H216      1.0  0.00606  0.25601  0.07442  1.0000
  H   H217      1.0  0.00900  0.29239  0.14623  1.0000
  S   S43       1.0  0.23106  0.32737  0.97049  1.0000
  C   C131      1.0  0.05797  0.47387  0.84720  1.0000
  H   H218      1.0  0.20299  0.37632  0.44533  1.0000
  H   H219      1.0  0.24549  0.28675  0.86937  1.0000
  H   H220      1.0  0.16084  0.34086  0.21371  1.0000
  S   S44       1.0  0.10983  0.49236  0.48257  1.0000
  H   H221      1.0  0.99968  0.35686  0.88983  1.0000
  H   H222      1.0  0.05411  0.43457  0.25771  1.0000
  H   H223      1.0  0.24606  0.29728  0.58798  1.0000
  C   C132      1.0  0.08063  0.46962  0.32253  1.0000
  N   N11       1.0  0.20018  0.40915  0.51019  1.0000
  C   C133      1.0  0.20749  0.39799  0.47970  1.0000
  C   C134      1.0  0.21177  0.42410  0.51295  1.0000
  C   C135      1.0  0.18224  0.41543  0.49964  1.0000
  C   C136      1.0  0.19975  0.39833  0.54515  1.0000
  C   C137      1.0  0.19612  0.38340  0.46784  1.0000
  C   C138      1.0  0.23065  0.41970  0.52289  1.0000
  C   C139      1.0  0.17536  0.43269  0.51520  1.0000
  C   C140      1.0  0.19434  0.40751  0.58084  1.0000
  H   H224      1.0  0.21031  0.40586  0.45454  1.0000
  H   H225      1.0  0.22004  0.39174  0.48732  1.0000
  H   H226      1.0  0.20684  0.43333  0.53379  1.0000
  H   H227      1.0  0.21201  0.43151  0.48629  1.0000
  H   H228      1.0  0.18151  0.41734  0.46913  1.0000
  H   H229      1.0  0.17261  0.40567  0.50708  1.0000
  H   H230      1.0  0.19074  0.38774  0.54280  1.0000
  H   H231      1.0  0.21261  0.39201  0.54986  1.0000
  H   H232      1.0  0.00384  0.45971  0.58534  1.0000
  S   S45       1.0  0.00925  0.49147  0.80034  1.0000
  C   C141      1.0  0.24209  0.35177  0.24078  1.0000
  H   H233      1.0  0.01325  0.31720  0.94031  1.0000
  H   H234      1.0  0.23167  0.41321  0.55027  1.0000
  H   H235      1.0  0.00022  0.44528  0.04312  1.0000
  C   C142      1.0  0.08598  0.45728  0.35440  1.0000
  H   H236      1.0  0.13547  0.33526  0.12781  1.0000
  H   H237      1.0  0.24093  0.26515  0.75476  1.0000
  H   H238      1.0  0.20237  0.41855  0.58611  1.0000
  H   H239      1.0  0.19600  0.39839  0.60456  1.0000
  H   H240      1.0  0.18053  0.41154  0.58085  1.0000
  H   H241      1.0  0.10084  0.44635  0.79066  1.0000
  C   C143      1.0  0.99921  0.42372  0.91889  1.0000
  H   H242      1.0  0.99842  0.45327  0.10527  1.0000
  H   H243      1.0  0.05274  0.43799  0.33431  1.0000
  H   H244      1.0  0.23984  0.37113  0.59429  1.0000
  H   H245      1.0  0.19862  0.48320  0.47507  1.0000
  C   C144      1.0  0.13496  0.34685  0.14511  1.0000
  H   H246      1.0  0.06054  0.46973  0.61970  1.0000
  H   H247      1.0  0.07508  0.45064  0.36751  1.0000
  C   C145      1.0  0.16902  0.37484  0.18687  1.0000
  C   C146      1.0  0.15159  0.36942  0.17180  1.0000
  H   H248      1.0  0.18396  0.36344  0.10550  1.0000
  H   H249      1.0  0.07955  0.44007  0.78190  1.0000
  H   H250      1.0  0.21586  0.24771  0.33496  1.0000
  H   H251      1.0  0.19378  0.37397  0.49050  1.0000
  C   C147      1.0  0.22705  0.37923  0.23545  1.0000
  H   H252      1.0  0.04148  0.48237  0.42757  1.0000
  H   H253      1.0  0.04647  0.45670  0.36070  1.0000
  H   H254      1.0  0.21144  0.38287  0.18717  1.0000
  S   S46       1.0  0.08337  0.48989  0.57497  1.0000
  H   H255      1.0  0.14495  0.38105  0.15975  1.0000
  H   H256      1.0  0.02143  0.46016  0.61579  1.0000
  C   C148      1.0  0.07732  0.44489  0.28199  1.0000
  H   H257      1.0  0.11956  0.36026  0.10212  1.0000
  N   N12       1.0  0.06483  0.47449  0.77710  1.0000
  H   H258      1.0  0.22403  0.39188  0.24574  1.0000
  H   H259      1.0  0.23565  0.38672  0.06866  1.0000
  C   C149      1.0  0.24002  0.32082  0.92635  1.0000
  S   S47       1.0  0.00167  0.46111  0.28414  1.0000
  C   C150      1.0  0.04567  0.45049  0.33362  1.0000
  C   C151      1.0  0.17236  0.37138  0.09857  1.0000
  H   H260      1.0  0.05224  0.48691  0.85156  1.0000
  C   C152      1.0  0.04591  0.48680  0.65567  1.0000
  H   H261      1.0  0.23305  0.38212  0.99797  1.0000
  H   H262      1.0  0.23753  0.41196  0.50158  1.0000
  S   S48       1.0  0.01905  0.48502  0.36581  1.0000
  H   H263      1.0  0.13151  0.34217  0.17343  1.0000
  H   H264      1.0  0.04746  0.44424  0.75638  1.0000
  H   H265      1.0  0.17604  0.43350  0.54541  1.0000
  C   C153      1.0  0.21413  0.24596  0.12442  1.0000
  H   H266      1.0  0.15567  0.35123  0.08598  1.0000
  H   H267      1.0  0.02260  0.42379  0.02706  1.0000
  H   H268      1.0  0.09298  0.47465  0.31132  1.0000
  H   H269      1.0  0.09606  0.44778  0.34519  1.0000
  H   H270      1.0  0.21353  0.38369  0.02485  1.0000
  H   H271      1.0  0.14366  0.36571  0.19652  1.0000
  C   C154      1.0  0.05483  0.45085  0.73411  1.0000
  C   C155      1.0  0.04678  0.49151  0.40799  1.0000
  H   H272      1.0  0.23762  0.43180  0.52427  1.0000
  H   H273      1.0  0.23789  0.33387  0.19737  1.0000
  H   H274      1.0  0.17879  0.34590  0.15194  1.0000
  H   H275      1.0  0.18233  0.44352  0.50253  1.0000
  H   H276      1.0  0.16565  0.33128  0.13174  1.0000
  H   H277      1.0  0.15269  0.32277  0.19014  1.0000
  H   H278      1.0  0.00532  0.40151  0.20066  1.0000
  C   C156      1.0  0.07259  0.47395  0.25800  1.0000
  C   C157      1.0  0.06795  0.43620  0.25084  1.0000
  C   C158      1.0  0.05701  0.46997  0.74111  1.0000
  H   H279      1.0  0.09120  0.44539  0.27364  1.0000
  H   H280      1.0  0.01164  0.48722  0.64175  1.0000
  H   H281      1.0  0.11845  0.37063  0.14646  1.0000
  C   C159      1.0  0.05821  0.48289  0.62752  1.0000
  C   C160      1.0  0.00207  0.48029  0.62618  1.0000
  C   C161      1.0  0.05386  0.46761  0.80850  1.0000
  C   C162      1.0  0.00951  0.26445  0.14769  1.0000
  S   S49       1.0  0.24286  0.42370  0.33853  1.0000
  H   H282      1.0  0.01853  0.33669  0.91694  1.0000
  C   C163      1.0  0.01230  0.46841  0.59952  1.0000
  H   H283      1.0  0.08966  0.46863  0.75079  1.0000
  H   H284      1.0  0.01432  0.26687  0.17567  1.0000
  H   H285      1.0  0.04342  0.46033  0.27767  1.0000
  H   H286      1.0  0.02371  0.42887  0.07451  1.0000
  C   C164      1.0  0.00357  0.28194  0.13047  1.0000
  H   H287      1.0  0.24307  0.34137  0.03808  1.0000
  H   H288      1.0  0.24232  0.38293  0.53016  1.0000
  C   C165      1.0  0.22553  0.37576  0.02017  1.0000
  C   C166      1.0  0.24640  0.29970  0.87855  1.0000
  H   H289      1.0  0.07200  0.47384  0.85198  1.0000
  H   H290      1.0  0.00488  0.34463  0.97445  1.0000
  C   C167      1.0  0.23522  0.37376  0.05678  1.0000
  S   S50       1.0  0.16297  0.49326  0.48637  1.0000
  N   N13       1.0  0.99655  0.25052  0.14967  1.0000
  Fe  Fe24      1.0  0.15003  0.66386  0.45673  1.0000
  S   S51       1.0  0.13393  0.68741  0.47207  1.0000
  S   S52       1.0  0.14172  0.63644  0.44510  1.0000
  Fe  Fe25      1.0  0.18155  0.68552  0.43498  1.0000
  S   S53       1.0  0.16734  0.71049  0.44864  1.0000
  S   S54       1.0  0.20725  0.67868  0.40458  1.0000
  Fe  Fe26      1.0  0.15759  0.69667  0.50044  1.0000
  S   S55       1.0  0.15422  0.70706  0.56054  1.0000
  Fe  Fe27      1.0  0.14448  0.69992  0.41980  1.0000
  S   S56       1.0  0.12668  0.71697  0.38247  1.0000
  S   S57       1.0  0.17307  0.67210  0.48785  1.0000
  S   S58       1.0  0.15929  0.67614  0.40336  1.0000
  H   H291      1.0  0.03350  0.64772  0.06477  1.0000
  H   H292      1.0  0.06727  0.50269  0.72097  1.0000
  H   H293      1.0  0.10274  0.72692  0.55607  1.0000
  S   S59       1.0  0.07876  0.71568  0.11864  1.0000
  C   C168      1.0  0.03091  0.67352  0.08500  1.0000
  S   S60       1.0  0.05221  0.73287  0.18171  1.0000
  Fe  Fe28      1.0  0.08091  0.72721  0.17543  1.0000
  S   S61       1.0  0.09671  0.71099  0.21834  1.0000
  Fe  Fe29      1.0  0.05035  0.72260  0.12421  1.0000
  S   S62       1.0  0.02665  0.70709  0.11056  1.0000
  H   H294      1.0  0.24025  0.62700  0.43148  1.0000
  Fe  Fe30      1.0  0.11726  0.53953  0.51070  1.0000
  S   S63       1.0  0.12606  0.51642  0.54505  1.0000
  S   S64       1.0  0.12020  0.56719  0.52929  1.0000
  Fe  Fe31      1.0  0.10197  0.51702  0.45342  1.0000
  H   H295      1.0  0.17495  0.73788  0.56966  1.0000
  S   S65       1.0  0.08899  0.52066  0.39825  1.0000
  Fe  Fe32      1.0  0.10010  0.50567  0.53444  1.0000
  H   H296      1.0  0.05474  0.67579  0.30435  1.0000
  Fe  Fe33      1.0  0.13517  0.50464  0.49114  1.0000
  S   S66       1.0  0.09068  0.52945  0.50411  1.0000
  S   S67       1.0  0.12795  0.52854  0.45806  1.0000
  S   S68       1.0  0.02813  0.50941  0.70309  1.0000
  H   H297      1.0  0.15985  0.72807  0.01418  1.0000
  H   H298      1.0  0.04463  0.67496  0.08694  1.0000
  C   C169      1.0  0.04992  0.70743  0.26206  1.0000
  C   C170      1.0  0.06932  0.51100  0.39032  1.0000
  Fe  Fe34      1.0  0.00886  0.49401  0.73811  1.0000
  C   C171      1.0  0.06520  0.67293  0.24729  1.0000
  H   H299      1.0  0.01212  0.51630  0.62347  1.0000
  H   H300      1.0  0.01513  0.54702  0.00318  1.0000
  H   H301      1.0  0.00914  0.51736  0.03856  1.0000
  C   C172      1.0  0.00169  0.68474  0.09200  1.0000
  H   H302      1.0  0.01523  0.65636  0.19359  1.0000
  H   H303      1.0  0.01085  0.56559  0.03002  1.0000
  C   C173      1.0  0.04291  0.50373  0.66649  1.0000
  C   C174      1.0  0.05224  0.51666  0.64833  1.0000
  C   C175      1.0  0.06446  0.51277  0.61995  1.0000
  H   H304      1.0  0.05726  0.66300  0.15657  1.0000
  H   H305      1.0  0.17253  0.61280  0.51468  1.0000
  H   H306      1.0  0.05010  0.52981  0.65643  1.0000
  H   H307      1.0  0.07160  0.52286  0.60650  1.0000
  H   H308      1.0  0.12575  0.72088  0.93959  1.0000
  C   C176      1.0  0.01951  0.68702  0.09496  1.0000
  Fe  Fe35      1.0  0.99747  0.50651  0.23876  1.0000
  H   H309      1.0  0.08738  0.49891  0.74457  1.0000
  H   H310      1.0  0.11904  0.73069  0.45720  1.0000
  C   C177      1.0  0.17869  0.62536  0.51333  1.0000
  H   H311      1.0  0.19641  0.64833  0.43932  1.0000
  H   H312      1.0  0.06779  0.68073  0.13633  1.0000
  C   C178      1.0  0.12270  0.73332  0.95100  1.0000
  H   H313      1.0  0.22164  0.73990  0.95740  1.0000
  H   H314      1.0  0.14153  0.74141  0.53874  1.0000
  C   C179      1.0  0.15239  0.72820  0.66433  1.0000
  H   H315      1.0  0.17530  0.63101  0.38291  1.0000
  C   C180      1.0  0.19649  0.62450  0.49328  1.0000
  C   C181      1.0  0.15811  0.72079  0.59900  1.0000
  C   C182      1.0  0.11359  0.73440  0.98524  1.0000
  H   H316      1.0  0.00170  0.56333  0.16760  1.0000
  C   C183      1.0  0.03818  0.49544  0.37509  1.0000
  H   H317      1.0  0.07391  0.66271  0.30006  1.0000
  H   H318      1.0  0.03335  0.73214  0.93806  1.0000
  C   C184      1.0  0.18809  0.63563  0.39032  1.0000
  C   C185      1.0  0.04431  0.72361  0.92950  1.0000
  C   C186      1.0  0.06763  0.49581  0.60950  1.0000
  C   C187      1.0  0.13656  0.61726  0.46990  1.0000
  C   C188      1.0  0.13187  0.61700  0.50736  1.0000
  C   C189      1.0  0.12712  0.60154  0.52510  1.0000
  C   C190      1.0  0.12727  0.58608  0.50591  1.0000
  C   C191      1.0  0.13255  0.58625  0.46875  1.0000
  C   C192      1.0  0.13690  0.60177  0.45079  1.0000
  H   H319      1.0  0.13151  0.62876  0.52252  1.0000
  H   H320      1.0  0.12314  0.60158  0.55390  1.0000
  H   H321      1.0  0.13308  0.57444  0.45380  1.0000
  H   H322      1.0  0.14062  0.60177  0.42186  1.0000
  C   C193      1.0  0.11852  0.71497  0.33669  1.0000
  C   C194      1.0  0.10832  0.72853  0.32120  1.0000
  C   C195      1.0  0.10160  0.72762  0.28530  1.0000
  C   C196      1.0  0.10489  0.71307  0.26405  1.0000
  C   C197      1.0  0.11494  0.69946  0.27966  1.0000
  C   C198      1.0  0.12172  0.70038  0.31550  1.0000
  H   H323      1.0  0.07777  0.66942  0.17371  1.0000
  H   H324      1.0  0.17995  0.72707  0.96446  1.0000
  H   H325      1.0  0.11766  0.68811  0.26376  1.0000
  H   H326      1.0  0.12948  0.68980  0.32667  1.0000
  C   C199      1.0  0.22902  0.68503  0.40145  1.0000
  H   H327      1.0  0.03839  0.51067  0.32493  1.0000
  H   H328      1.0  0.06597  0.52413  0.33791  1.0000
  H   H329      1.0  0.23500  0.71201  0.33641  1.0000
  C   C200      1.0  0.06066  0.51501  0.35754  1.0000
  H   H330      1.0  0.22657  0.70481  0.44160  1.0000
  C   C201      1.0  0.03824  0.66440  0.22046  1.0000
  H   H331      1.0  0.03290  0.72865  0.04068  1.0000
  N   N14       1.0  0.05069  0.71858  0.99897  1.0000
  C   C202      1.0  0.05604  0.70419  0.02535  1.0000
  H   H332      1.0  0.18967  0.64853  0.37747  1.0000
  H   H333      1.0  0.12320  0.73575  0.59282  1.0000
  C   C203      1.0  0.00893  0.55160  0.02913  1.0000
  C   C204      1.0  0.07493  0.69738  0.02168  1.0000
  H   H334      1.0  0.02060  0.70013  0.02269  1.0000
  C   C205      1.0  0.07374  0.50345  0.74768  1.0000
  N   N15       1.0  0.04969  0.67923  0.22596  1.0000
  H   H335      1.0  0.05408  0.70823  0.05445  1.0000
  H   H336      1.0  0.04795  0.69291  0.02242  1.0000
  H   H337      1.0  0.06441  0.70771  0.95197  1.0000
  H   H338      1.0  0.04406  0.69937  0.95972  1.0000
  H   H339      1.0  0.06960  0.49810  0.80494  1.0000
  H   H340      1.0  0.07024  0.50021  0.23679  1.0000
  H   H341      1.0  0.10981  0.72287  0.99975  1.0000
  C   C206      1.0  0.02454  0.65804  0.07236  1.0000
  H   H342      1.0  0.08424  0.70729  0.02763  1.0000
  H   H343      1.0  0.07704  0.68688  0.04246  1.0000
  H   H344      1.0  0.07793  0.69190  0.99429  1.0000
  C   C207      1.0  0.15005  0.71757  0.63368  1.0000
  H   H345      1.0  0.06233  0.70954  0.24749  1.0000
  C   C208      1.0  0.03943  0.69294  0.24641  1.0000
  C   C209      1.0  0.03290  0.72491  0.01120  1.0000
  H   H346      1.0  0.05399  0.65432  0.28686  1.0000
  H   H347      1.0  0.03214  0.68716  0.27007  1.0000
  H   H348      1.0  0.02954  0.69917  0.22826  1.0000
  H   H349      1.0  0.06492  0.69697  0.19360  1.0000
  C   C210      1.0  0.02304  0.66794  0.19436  1.0000
  N   N16       1.0  0.19648  0.62101  0.45250  1.0000
  H   H350      1.0  0.10568  0.73991  0.33703  1.0000
  C   C211      1.0  0.21472  0.61673  0.43972  1.0000
  C   C212      1.0  0.18535  0.60627  0.44452  1.0000
  C   C213      1.0  0.19036  0.58914  0.46410  1.0000
  H   H351      1.0  0.20454  0.61471  0.50839  1.0000
  H   H352      1.0  0.21508  0.61064  0.41229  1.0000
  H   H353      1.0  0.22085  0.60692  0.45845  1.0000
  H   H354      1.0  0.17162  0.60951  0.45140  1.0000
  H   H355      1.0  0.18554  0.60369  0.41448  1.0000
  H   H356      1.0  0.04226  0.71970  0.25994  1.0000
  H   H357      1.0  0.22344  0.64091  0.41423  1.0000
  H   H358      1.0  0.19053  0.59014  0.49449  1.0000
  H   H359      1.0  0.20302  0.58392  0.45383  1.0000
  H   H360      1.0  0.18061  0.57962  0.45799  1.0000
  H   H361      1.0  0.03923  0.71583  0.90726  1.0000
  C   C214      1.0  0.01836  0.71226  0.00694  1.0000
  N   N17       1.0  0.08522  0.57779  0.41029  1.0000
  C   C215      1.0  0.10217  0.57770  0.38889  1.0000
  C   C216      1.0  0.07931  0.59629  0.41402  1.0000
  C   C217      1.0  0.07252  0.56873  0.38756  1.0000
  C   C218      1.0  0.08783  0.56860  0.44695  1.0000
  C   C219      1.0  0.11023  0.55998  0.37931  1.0000
  C   C220      1.0  0.09162  0.60761  0.43460  1.0000
  C   C221      1.0  0.05429  0.56695  0.40441  1.0000
  C   C222      1.0  0.07509  0.57341  0.47896  1.0000
  H   H362      1.0  0.10088  0.58518  0.36248  1.0000
  H   H363      1.0  0.11212  0.58408  0.40454  1.0000
  H   H364      1.0  0.06654  0.59770  0.42795  1.0000
  H   H365      1.0  0.07734  0.60237  0.38625  1.0000
  H   H366      1.0  0.07123  0.57512  0.35992  1.0000
  H   H367      1.0  0.07711  0.55537  0.38224  1.0000
  H   H368      1.0  0.08757  0.55450  0.44349  1.0000
  H   H369      1.0  0.10087  0.57092  0.45725  1.0000
  H   H370      1.0  0.10327  0.55391  0.35703  1.0000
  H   H371      1.0  0.12366  0.56151  0.36890  1.0000
  H   H372      1.0  0.11090  0.55123  0.40368  1.0000
  H   H373      1.0  0.09642  0.60146  0.46038  1.0000
  H   H374      1.0  0.10280  0.61116  0.41674  1.0000
  H   H375      1.0  0.08473  0.61977  0.44220  1.0000
  H   H376      1.0  0.04627  0.56060  0.38420  1.0000
  H   H377      1.0  0.04775  0.57943  0.41040  1.0000
  H   H378      1.0  0.05448  0.55845  0.42936  1.0000
  H   H379      1.0  0.07229  0.56173  0.49560  1.0000
  H   H380      1.0  0.06245  0.57893  0.47072  1.0000
  H   H381      1.0  0.08119  0.58198  0.49840  1.0000
  H   H382      1.0  0.01433  0.67859  0.20380  1.0000
  C   C223      1.0  0.12731  0.73560  0.47886  1.0000
  C   C224      1.0  0.05579  0.68667  0.18944  1.0000
  C   C225      1.0  0.16857  0.73504  0.59579  1.0000
  C   C226      1.0  0.18938  0.63675  0.43262  1.0000
  C   C227      1.0  0.23521  0.69812  0.42250  1.0000
  C   C228      1.0  0.10930  0.72472  0.52908  1.0000
  H   H383      1.0  0.22693  0.63899  0.46333  1.0000
  H   H384      1.0  0.24418  0.73203  0.25349  1.0000
  H   H385      1.0  0.02743  0.67063  0.16561  1.0000
  C   C229      1.0  0.06512  0.67400  0.16300  1.0000
  H   H386      1.0  0.18037  0.62920  0.54226  1.0000
  H   H387      1.0  0.11981  0.71507  0.53538  1.0000
  H   H388      1.0  0.07543  0.72948  0.98521  1.0000
  H   H389      1.0  0.17619  0.64004  0.44274  1.0000
  S   S69       1.0  0.99953  0.63580  0.05297  1.0000
  H   H390      1.0  0.09141  0.70458  0.52075  1.0000
  C   C230      1.0  0.09613  0.71599  0.50532  1.0000
  H   H391      1.0  0.03242  0.66004  0.24722  1.0000
  H   H392      1.0  0.16966  0.63495  0.50076  1.0000
  H   H393      1.0  0.19828  0.62730  0.37762  1.0000
  H   H394      1.0  0.20252  0.63690  0.49823  1.0000
  H   H395      1.0  0.07484  0.68303  0.24893  1.0000
  C   C231      1.0  0.00669  0.65574  0.06935  1.0000
  H   H396      1.0  0.04581  0.65304  0.21019  1.0000
  H   H397      1.0  0.14193  0.70670  0.63701  1.0000
  C   C232      1.0  0.06348  0.73256  0.00175  1.0000
  H   H398      1.0  0.01626  0.70949  0.97759  1.0000
  H   H399      1.0  0.02528  0.50623  0.58811  1.0000
  H   H400      1.0  0.01354  0.52625  0.57917  1.0000
  C   C233      1.0  0.04510  0.50732  0.35001  1.0000
  H   H401      1.0  0.05802  0.49691  0.27832  1.0000
  H   H402      1.0  0.14610  0.72532  0.69054  1.0000
  H   H403      1.0  0.05485  0.73139  0.91765  1.0000
  H   H404      1.0  0.19897  0.73466  0.87193  1.0000
  H   H405      1.0  0.13658  0.72490  0.48607  1.0000
  H   H406      1.0  0.07216  0.66227  0.23278  1.0000
  C   C234      1.0  0.06145  0.66612  0.28682  1.0000
  H   H407      1.0  0.04492  0.69306  0.17439  1.0000
  C   C235      1.0  0.22687  0.63189  0.43725  1.0000
  H   H408      1.0  0.18193  0.72629  0.89970  1.0000
  H   H409      1.0  0.02863  0.73674  0.99614  1.0000
  C   C236      1.0  0.05101  0.71155  0.96064  1.0000
  H   H410      1.0  0.21927  0.74103  0.00684  1.0000
  H   H411      1.0  0.07369  0.51727  0.75414  1.0000
  S   S70       1.0  0.02273  0.49449  0.25641  1.0000
  H   H412      1.0  0.05211  0.70530  0.29196  1.0000
  H   H413      1.0  0.20567  0.72792  0.98324  1.0000
  S   S71       1.0  0.00051  0.53284  0.21261  1.0000
  H   H414      1.0  0.10189  0.71124  0.47908  1.0000
  C   C237      1.0  0.19368  0.73391  0.90064  1.0000
  H   H415      1.0  0.20349  0.72704  0.91749  1.0000
  H   H416      1.0  0.99683  0.56407  0.87125  1.0000
  H   H417      1.0  0.01562  0.54571  0.05322  1.0000
  H   H418      1.0  0.06889  0.49611  0.44099  1.0000
  H   H419      1.0  0.16186  0.73878  0.94867  1.0000
  C   C238      1.0  0.17305  0.73965  0.96692  1.0000
  H   H420      1.0  0.08107  0.49842  0.27962  1.0000
  H   H421      1.0  0.00754  0.51628  0.10268  1.0000
  C   C239      1.0  0.06231  0.49927  0.41563  1.0000
  C   C240      1.0  0.24051  0.67651  0.37676  1.0000
  H   H422      1.0  0.23588  0.66636  0.36033  1.0000
  C   C241      1.0  0.21213  0.74023  0.98080  1.0000
  H   H423      1.0  0.00614  0.71812  0.01820  1.0000
  H   H424      1.0  0.00080  0.52628  0.97754  1.0000
  H   H425      1.0  0.22853  0.73062  0.30830  1.0000
  H   H426      1.0  0.06777  0.73346  0.03064  1.0000
  C   C242      1.0  0.01300  0.51359  0.59362  1.0000
  H   H427      1.0  0.08473  0.72451  0.49959  1.0000
  H   H428      1.0  0.09393  0.73825  0.27404  1.0000
  C   C243      1.0  0.16582  0.74043  0.00687  1.0000
  H   H429      1.0  0.05036  0.49880  0.77915  1.0000
  N   N18       1.0  0.11676  0.74081  0.51258  1.0000
  H   H430      1.0  0.17597  0.74232  0.02712  1.0000
  C   C244      1.0  0.99743  0.50388  0.58034  1.0000
  C   C245      1.0  0.16285  0.74245  0.66116  1.0000
  H   H431      1.0  0.00199  0.49630  0.55619  1.0000
  Fe  Fe36      1.0  0.08204  0.74242  0.09479  1.0000
  C   C246      1.0  0.23616  0.72604  0.33223  1.0000
  H   H432      1.0  0.23021  0.73196  0.35725  1.0000
  C   C247      1.0  0.06403  0.49379  0.77894  1.0000
  Fe  Fe37      1.0  0.10422  0.95821  0.73533  1.0000
  S   S72       1.0  0.09785  0.93368  0.76476  1.0000
  S   S73       1.0  0.08843  0.97357  0.69217  1.0000
  Fe  Fe38      1.0  0.13709  0.96255  0.78152  1.0000
  S   S74       1.0  0.13284  0.93802  0.81447  1.0000
  C   C248      1.0  0.02321  0.87185  0.26521  1.0000
  Fe  Fe39      1.0  0.12613  0.92612  0.76110  1.0000
  S   S75       1.0  0.13492  0.89960  0.73994  1.0000
  Fe  Fe40      1.0  0.10476  0.94694  0.81636  1.0000
  S   S76       1.0  0.08695  0.94079  0.86495  1.0000
  S   S77       1.0  0.13214  0.94994  0.72747  1.0000
  S   S78       1.0  0.10936  0.97219  0.78749  1.0000
  S   S79       1.0  0.01284  0.96698  0.47623  1.0000
  Fe  Fe41      1.0  0.01396  0.96956  0.53803  1.0000
  S   S80       1.0  0.03214  0.95357  0.57568  1.0000
  H   H433      1.0  0.03034  0.80259  0.30022  1.0000
  H   H434      1.0  0.08589  0.74909  0.54969  1.0000
  S   S81       1.0  0.16079  0.97968  0.77780  1.0000
  Fe  Fe42      1.0  0.16381  0.76609  0.76033  1.0000
  S   S82       1.0  0.17695  0.79098  0.77095  1.0000
  Fe  Fe43      1.0  0.15228  0.76297  0.84321  1.0000
  S   S83       1.0  0.16470  0.78724  0.85706  1.0000
  H   H435      1.0  0.01593  0.77078  0.20264  1.0000
  Fe  Fe44      1.0  0.15347  0.79872  0.80510  1.0000
  S   S84       1.0  0.14258  0.82571  0.81891  1.0000
  Fe  Fe45      1.0  0.18752  0.77821  0.82263  1.0000
  C   C249      1.0  0.01604  0.85383  0.38006  1.0000
  S   S85       1.0  0.13951  0.77468  0.79249  1.0000
  H   H436      1.0  0.22643  0.75218  0.86915  1.0000
  S   S86       1.0  0.04718  0.78554  0.16930  1.0000
  C   C250      1.0  0.19034  0.82973  0.81561  1.0000
  H   H437      1.0  0.15996  0.98795  0.64870  1.0000
  S   S87       1.0  0.21392  0.78643  0.84268  1.0000
  C   C251      1.0  0.08919  0.75925  0.52938  1.0000
  H   H438      1.0  0.04821  0.75640  0.01133  1.0000
  C   C252      1.0  0.23277  0.77870  0.86624  1.0000
  H   H439      1.0  0.02025  0.96175  0.72492  1.0000
  C   C253      1.0  0.12880  0.74850  0.53923  1.0000
  C   C254      1.0  0.12600  0.98967  0.65662  1.0000
  C   C255      1.0  0.10956  0.75034  0.00073  1.0000
  C   C256      1.0  0.23568  0.76145  0.87625  1.0000
  C   C257      1.0  0.07302  0.96756  0.65964  1.0000
  C   C258      1.0  0.06787  0.95071  0.65675  1.0000
  C   C259      1.0  0.05555  0.94667  0.63059  1.0000
  C   C260      1.0  0.04822  0.95936  0.60694  1.0000
  C   C261      1.0  0.05339  0.97621  0.60982  1.0000
  C   C262      1.0  0.06567  0.98026  0.63603  1.0000
  H   H440      1.0  0.07339  0.94078  0.67457  1.0000
  H   H441      1.0  0.05168  0.93359  0.62864  1.0000
  C   C263      1.0  0.02474  0.81506  0.29010  1.0000
  H   H442      1.0  0.24406  0.96360  0.94540  1.0000
  C   C264      1.0  0.05324  0.98141  0.92468  1.0000
  H   H443      1.0  0.18872  0.78635  0.91779  1.0000
  C   C265      1.0  0.07610  0.97411  0.87964  1.0000
  C   C266      1.0  0.07398  0.95669  0.88712  1.0000
  C   C267      1.0  0.06137  0.95169  0.91319  1.0000
  C   C268      1.0  0.05093  0.96400  0.93172  1.0000
  C   C269      1.0  0.00882  0.82032  0.19837  1.0000
  H   H444      1.0  0.08582  0.97809  0.85974  1.0000
  H   H445      1.0  0.05969  0.93824  0.91920  1.0000
  H   H446      1.0  0.04125  0.96000  0.95171  1.0000
  C   C270      1.0  0.13808  0.87919  0.76224  1.0000
  C   C271      1.0  0.13824  0.86436  0.74097  1.0000
  C   C272      1.0  0.14006  0.84787  0.75755  1.0000
  C   C273      1.0  0.14170  0.84603  0.79577  1.0000
  C   C274      1.0  0.14201  0.86087  0.81690  1.0000
  C   C275      1.0  0.14048  0.87733  0.80025  1.0000
  H   H447      1.0  0.13662  0.86561  0.71147  1.0000
  H   H448      1.0  0.13977  0.83661  0.74086  1.0000
  H   H449      1.0  0.14344  0.85963  0.84644  1.0000
  H   H450      1.0  0.14108  0.88858  0.81686  1.0000
  H   H451      1.0  0.99817  0.96302  0.19688  1.0000
  C   C276      1.0  0.13790  0.74970  0.45964  1.0000
  H   H452      1.0  0.00517  0.98818  0.22291  1.0000
  H   H453      1.0  0.01053  0.94430  0.35811  1.0000
  S   S88       1.0  0.00376  0.96586  0.98585  1.0000
  C   C277      1.0  0.06582  0.98642  0.89855  1.0000
  C   C278      1.0  0.11490  0.76512  0.98124  1.0000
  H   H454      1.0  0.14789  0.75445  0.47771  1.0000
  H   H455      1.0  0.22077  0.95403  0.90621  1.0000
  H   H456      1.0  0.02644  0.87424  0.23556  1.0000
  C   C279      1.0  0.01405  0.78455  0.20127  1.0000
  C   C280      1.0  0.02703  0.79456  0.18577  1.0000
  C   C281      1.0  0.02428  0.81249  0.18450  1.0000
  C   C282      1.0  0.19966  0.75595  0.97724  1.0000
  H   H457      1.0  0.01689  0.87129  0.33482  1.0000
  H   H458      1.0  0.21614  0.81322  0.72483  1.0000
  H   H459      1.0  0.00950  0.87573  0.26978  1.0000
  H   H460      1.0  0.17860  0.75693  0.89568  1.0000
  Fe  Fe46      1.0  0.00132  0.96934  0.04724  1.0000
  H   H461      1.0  0.02282  0.97736  0.83281  1.0000
  H   H462      1.0  0.03127  0.88024  0.28131  1.0000
  C   C283      1.0  0.12313  0.74883  0.58028  1.0000
  H   H463      1.0  0.00470  0.98175  0.12936  1.0000
  H   H464      1.0  0.11044  0.75531  0.58504  1.0000
  C   C284      1.0  0.01202  0.96574  0.19279  1.0000
  H   H465      1.0  0.00904  0.96963  0.30455  1.0000
  C   C285      1.0  0.01743  0.97570  0.72150  1.0000
  H   H466      1.0  0.24084  0.83819  0.82091  1.0000
  C   C286      1.0  0.99784  0.95370  0.67051  1.0000
  H   H467      1.0  0.00379  0.90828  0.37600  1.0000
  H   H468      1.0  0.09313  0.77069  0.54417  1.0000
  C   C287      1.0  0.99952  0.98659  0.88748  1.0000
  C   C288      1.0  0.00862  0.97972  0.64102  1.0000
  H   H469      1.0  0.19073  0.83013  0.74138  1.0000
  H   H470      1.0  0.24332  0.80378  0.86746  1.0000
  H   H471      1.0  0.03689  0.85991  0.34226  1.0000
  H   H472      1.0  0.03177  0.97631  0.11431  1.0000
  H   H473      1.0  0.02758  0.98138  0.70358  1.0000
  C   C289      1.0  0.99975  0.84529  0.30547  1.0000
  H   H474      1.0  0.01844  0.98133  0.74910  1.0000
  H   H475      1.0  0.13160  0.76189  0.53073  1.0000
  H   H476      1.0  0.22525  0.82223  0.82223  1.0000
  H   H477      1.0  0.02091  0.84119  0.39050  1.0000
  H   H478      1.0  0.13107  0.99007  0.72927  1.0000
  H   H479      1.0  0.14479  0.74415  0.43522  1.0000
  C   C290      1.0  0.00147  0.98083  0.31558  1.0000
  C   C291      1.0  0.02705  0.85280  0.27518  1.0000
  H   H480      1.0  0.07695  0.76258  0.51522  1.0000
  H   H481      1.0  0.00743  0.98792  0.91236  1.0000
  H   H482      1.0  0.03144  0.81799  0.26349  1.0000
  C   C292      1.0  0.99870  0.79239  0.21564  1.0000
  H   H483      1.0  0.01168  0.94954  0.67258  1.0000
  N   N19       1.0  0.18403  0.75423  0.95399  1.0000
  S   S89       1.0  0.08603  0.75341  0.15098  1.0000
  H   H484      1.0  0.04165  0.83006  0.32136  1.0000
  C   C293      1.0  0.12396  0.76404  0.94689  1.0000
  H   H485      1.0  0.20778  0.76631  0.96570  1.0000
  C   C294      1.0  0.22712  0.83582  0.82786  1.0000
  H   H486      1.0  0.02064  0.86345  0.39921  1.0000
  C   C295      1.0  0.02748  0.82884  0.31888  1.0000
  C   C296      1.0  0.02273  0.85832  0.34084  1.0000
  H   H487      1.0  0.22892  0.82211  0.75901  1.0000
  H   H488      1.0  0.11188  0.77755  0.99270  1.0000
  S   S90       1.0  0.17587  0.75298  0.81065  1.0000
  H   H489      1.0  0.00178  0.85486  0.38196  1.0000
  H   H490      1.0  0.03420  0.82038  0.17252  1.0000
  H   H491      1.0  0.00690  0.83408  0.19685  1.0000
  S   S91       1.0  0.09781  0.75254  0.04386  1.0000
  C   C297      1.0  0.99929  0.96725  0.88006  1.0000
  H   H492      1.0  0.12778  0.77558  0.93240  1.0000
  H   H493      1.0  0.05275  0.98385  0.11994  1.0000
  H   H494      1.0  0.02090  0.95135  0.39792  1.0000
  C   C298      1.0  0.13076  0.98552  0.61618  1.0000
  H   H495      1.0  0.24501  0.98653  0.98694  1.0000
  H   H496      1.0  0.99677  0.82784  0.35570  1.0000
  H   H497      1.0  0.17854  0.82534  0.80254  1.0000
  H   H498      1.0  0.20038  0.76014  0.90619  1.0000
  C   C299      1.0  0.18195  0.78720  0.94495  1.0000
  N   N20       1.0  0.01890  0.84612  0.31076  1.0000
  H   H499      1.0  0.21162  0.80792  0.77173  1.0000
  C   C300      1.0  0.04045  0.98123  0.13494  1.0000
  H   H500      1.0  0.12965  0.76048  0.44900  1.0000
  C   C301      1.0  0.23996  0.97192  0.92153  1.0000
  H   H501      1.0  0.19607  0.76044  0.00539  1.0000
  C   C302      1.0  0.21564  0.81849  0.75303  1.0000
  H   H502      1.0  0.19117  0.79100  0.96587  1.0000
  C   C303      1.0  0.18486  0.83630  0.85406  1.0000
  Fe  Fe47      1.0  0.05710  0.75841  0.15413  1.0000
  H   H503      1.0  0.16122  0.76971  0.94037  1.0000
  C   C304      1.0  0.18921  0.75219  0.91380  1.0000
  H   H504      1.0  0.11935  0.98031  0.60308  1.0000
  H   H505      1.0  0.12498  0.97721  0.67186  1.0000
  C   C305      1.0  0.01512  0.95579  0.37150  1.0000
  H   H506      1.0  0.22565  0.83774  0.85803  1.0000
  H   H507      1.0  0.17201  0.79775  0.94268  1.0000
  H   H508      1.0  0.05191  0.75196  0.96290  1.0000
  C   C306      1.0  0.17307  0.77054  0.95692  1.0000
  H   H509      1.0  0.13266  0.75593  0.59570  1.0000
  H   H510      1.0  0.99813  0.94823  0.61134  1.0000
  C   C307      1.0  0.17299  0.99247  0.80739  1.0000
  H   H511      1.0  0.09641  0.74948  0.47556  1.0000
  H   H512      1.0  0.99858  0.92958  0.42530  1.0000
  H   H513      1.0  0.00517  0.97606  0.61279  1.0000
  H   H514      1.0  0.04795  0.98611  0.59181  1.0000
  H   H515      1.0  0.19817  0.81786  0.82026  1.0000
  H   H516      1.0  0.19537  0.84253  0.86801  1.0000
  S   S92       1.0  0.05339  0.74867  0.09715  1.0000
  H   H517      1.0  0.17900  0.75657  0.62316  1.0000
  C   C308      1.0  0.10306  0.75376  0.50042  1.0000
  S   S93       1.0  0.00719  0.94976  0.09275  1.0000
  H   H518      1.0  0.16845  0.77264  0.98575  1.0000
  H   H519      1.0  0.02342  0.82333  0.34586  1.0000
  C   C309      1.0  0.99913  0.97958  0.70698  1.0000
  C   C310      1.0  0.23262  0.95955  0.89390  1.0000
  C   C311      1.0  0.00045  0.96911  0.37996  1.0000
  H   H520      1.0  0.02296  0.84541  0.25125  1.0000
  N   N21       1.0  0.08983  0.88088  0.83546  1.0000
  C   C312      1.0  0.09089  0.87368  0.79711  1.0000
  C   C313      1.0  0.09702  0.86719  0.86145  1.0000
  C   C314      1.0  0.10052  0.89665  0.83575  1.0000
  C   C315      1.0  0.07122  0.88555  0.84440  1.0000
  C   C316      1.0  0.08708  0.88643  0.76489  1.0000
  C   C317      1.0  0.08771  0.85011  0.86279  1.0000
  C   C318      1.0  0.10870  0.90103  0.87254  1.0000
  C   C319      1.0  0.06708  0.89256  0.88311  1.0000
  H   H521      1.0  0.10396  0.86781  0.79136  1.0000
  H   H522      1.0  0.08173  0.86322  0.79444  1.0000
  H   H523      1.0  0.09723  0.87152  0.89027  1.0000
  H   H524      1.0  0.11076  0.86413  0.85403  1.0000
  H   H525      1.0  0.11148  0.89565  0.81565  1.0000
  H   H526      1.0  0.09285  0.90818  0.82634  1.0000
  H   H527      1.0  0.06638  0.89579  0.82509  1.0000
  H   H528      1.0  0.06262  0.87484  0.83945  1.0000
  H   H529      1.0  0.07405  0.89263  0.76703  1.0000
  H   H530      1.0  0.09688  0.89631  0.76201  1.0000
  H   H531      1.0  0.08774  0.87936  0.73866  1.0000
  H   H532      1.0  0.08935  0.84320  0.83651  1.0000
  H   H533      1.0  0.09364  0.84160  0.88433  1.0000
  H   H534      1.0  0.07387  0.85185  0.87041  1.0000
  H   H535      1.0  0.11899  0.89146  0.88025  1.0000
  H   H536      1.0  0.09911  0.90243  0.89538  1.0000
  H   H537      1.0  0.11499  0.91350  0.86917  1.0000
  H   H538      1.0  0.06945  0.90647  0.88392  1.0000
  H   H539      1.0  0.07420  0.88575  0.90533  1.0000
  H   H540      1.0  0.05329  0.89060  0.89021  1.0000
  N   N22       1.0  0.19930  0.84230  0.79027  1.0000
  C   C320      1.0  0.18668  0.85720  0.78382  1.0000
  C   C321      1.0  0.20298  0.83413  0.75350  1.0000
  C   C322      1.0  0.21547  0.84888  0.80623  1.0000
  C   C323      1.0  0.19253  0.87144  0.75664  1.0000
  H   H541      1.0  0.17442  0.85260  0.77327  1.0000
  H   H542      1.0  0.18324  0.86373  0.81005  1.0000
  H   H543      1.0  0.20862  0.84340  0.73339  1.0000
  H   H544      1.0  0.22361  0.85478  0.78402  1.0000
  H   H545      1.0  0.21206  0.85935  0.82573  1.0000
  H   H546      1.0  0.19271  0.86720  0.72767  1.0000
  H   H547      1.0  0.18294  0.88236  0.75800  1.0000
  H   H548      1.0  0.20518  0.87641  0.76358  1.0000
  H   H549      1.0  0.17341  0.84518  0.85256  1.0000
  H   H550      1.0  0.18094  0.82526  0.87177  1.0000
  H   H551      1.0  0.01896  0.95694  0.21235  1.0000
  H   H552      1.0  0.02161  0.97377  0.64537  1.0000
  C   C324      1.0  0.05748  0.75095  0.99057  1.0000
  H   H553      1.0  0.04136  0.85103  0.27550  1.0000
  H   H554      1.0  0.15532  0.75038  0.00973  1.0000
  C   C325      1.0  0.15548  0.99168  0.67677  1.0000
  H   H555      1.0  0.14111  0.97537  0.61452  1.0000
  C   C326      1.0  0.01550  0.98445  0.20250  1.0000
  H   H556      1.0  0.02783  0.98435  0.21756  1.0000
  H   H557      1.0  0.00674  0.92579  0.15383  1.0000
  H   H558      1.0  0.15472  0.97947  0.69320  1.0000
  H   H559      1.0  0.06880  0.75924  0.99008  1.0000
  H   H560      1.0  0.22896  0.96582  0.86751  1.0000
  H   H561      1.0  0.10901  0.76581  0.49070  1.0000
  H   H562      1.0  0.24183  0.94865  0.88845  1.0000
  H   H563      1.0  0.99834  0.98735  0.80423  1.0000
  S   S94       1.0  0.16634  0.75649  0.69932  1.0000
  H   H564      1.0  0.04351  0.97121  0.15616  1.0000
  H   H565      1.0  0.01634  0.96188  0.16491  1.0000
  H   H566      1.0  0.02565  0.96135  0.35454  1.0000
  H   H567      1.0  0.22896  0.98015  0.93202  1.0000
  Fe  Fe48      1.0  0.01763  0.99050  0.98438  1.0000
  H   H568      1.0  0.01237  0.96118  0.88305  1.0000
  H   H569      1.0  0.15826  0.98756  0.85721  1.0000
  S   S95       1.0  0.01749  0.99266  0.04602  1.0000
  C   C327      1.0  0.12793  0.74809  0.93136  1.0000
  C   C328      1.0  0.02382  0.99022  0.84486  1.0000
  H   H570      1.0  0.00636  0.97980  0.39397  1.0000
  H   H571      1.0  0.03195  0.98815  0.86941  1.0000
  C   C329      1.0  0.24531  0.79042  0.87499  1.0000
  H   H572      1.0  0.01091  0.81322  0.28539  1.0000
  S   S96       1.0  0.13993  0.74565  0.88858  1.0000
  C   C330      1.0  0.17085  0.74571  0.62640  1.0000
  H   H573      1.0  0.99712  0.84067  0.27746  1.0000
  H   H574      1.0  0.02267  0.99145  0.34671  1.0000
  H   H575      1.0  0.18215  0.99312  0.69283  1.0000
  H   H576      1.0  0.06954  0.99333  0.63791  1.0000
  H   H577      1.0  0.24579  0.98715  0.83335  1.0000
  H   H578      1.0  0.04522  0.99273  0.80550  1.0000
  H   H579      1.0  0.31040  0.00241  0.01794  1.0000
  H   H580      1.0  0.27162  0.13540  0.70317  1.0000
  H   H581      1.0  0.43568  0.03143  0.69709  1.0000
  H   H582      1.0  0.29925  0.08481  0.73752  1.0000
  H   H583      1.0  0.26379  0.22875  0.77789  1.0000
  H   H584      1.0  0.39994  0.01691  0.80123  1.0000
  Fe  Fe49      1.0  0.46971  0.09840  0.49872  1.0000
  S   S97       1.0  0.44775  0.09471  0.53959  1.0000
  S   S98       1.0  0.47631  0.07343  0.46772  1.0000
  Fe  Fe50      1.0  0.47541  0.13508  0.52729  1.0000
  S   S99       1.0  0.45342  0.13354  0.56888  1.0000
  H   H585      1.0  0.26960  0.12557  0.76888  1.0000
  Fe  Fe51      1.0  0.46432  0.10686  0.58034  1.0000
  S   S100      1.0  0.46933  0.09692  0.63831  1.0000
  Fe  Fe52      1.0  0.43845  0.12150  0.52445  1.0000
  S   S101      1.0  0.41060  0.12606  0.50515  1.0000
  H   H586      1.0  0.34343  0.11196  0.61658  1.0000
  S   S102      1.0  0.45970  0.12472  0.48125  1.0000
  Fe  Fe53      1.0  0.28010  0.15439  0.51946  1.0000
  S   S103      1.0  0.29911  0.17417  0.53555  1.0000
  H   H587      1.0  0.28452  0.22773  0.79770  1.0000
  Fe  Fe54      1.0  0.27605  0.14083  0.60136  1.0000
  S   S104      1.0  0.29426  0.15987  0.62182  1.0000
  S   S105      1.0  0.26311  0.11871  0.63388  1.0000
  Fe  Fe55      1.0  0.28111  0.17935  0.58436  1.0000
  S   S106      1.0  0.27021  0.20546  0.60416  1.0000
  Fe  Fe56      1.0  0.31128  0.15337  0.57211  1.0000
  S   S107      1.0  0.33949  0.14806  0.58850  1.0000
  S   S108      1.0  0.29363  0.13333  0.55346  1.0000
  S   S109      1.0  0.48702  0.10897  0.54123  1.0000
  S   S110      1.0  0.26654  0.07341  0.90133  1.0000
  Fe  Fe57      1.0  0.26703  0.04450  0.89807  1.0000
  S   S111      1.0  0.29114  0.02622  0.89685  1.0000
  C   C331      1.0  0.43230  0.00703  0.77743  1.0000
  H   H588      1.0  0.27416  0.22709  0.71862  1.0000
  H   H589      1.0  0.25622  0.23659  0.63493  1.0000
  H   H590      1.0  0.29224  0.21771  0.74087  1.0000
  H   H591      1.0  0.45462  0.00656  0.99406  1.0000
  H   H592      1.0  0.46503  0.23793  0.64377  1.0000
  C   C332      1.0  0.26208  0.11228  0.68181  1.0000
  H   H593      1.0  0.25243  0.15003  0.01364  1.0000
  C   C333      1.0  0.26585  0.11719  0.74744  1.0000
  C   C334      1.0  0.26707  0.12281  0.71005  1.0000
  H   H594      1.0  0.48545  0.02126  0.54328  1.0000
  H   H595      1.0  0.49207  0.23543  0.68210  1.0000
  C   C335      1.0  0.28041  0.22327  0.62272  1.0000
  C   C336      1.0  0.29833  0.22421  0.62397  1.0000
  H   H596      1.0  0.42701  0.03989  0.79538  1.0000
  H   H597      1.0  0.26725  0.09356  0.51023  1.0000
  H   H598      1.0  0.30646  0.21368  0.61396  1.0000
  H   H599      1.0  0.48883  0.04508  0.70580  1.0000
  C   C337      1.0  0.31529  0.14365  0.70787  1.0000
  C   C338      1.0  0.39097  0.13214  0.52902  1.0000
  C   C339      1.0  0.39029  0.13553  0.56675  1.0000
  C   C340      1.0  0.37446  0.14042  0.58425  1.0000
  C   C341      1.0  0.35906  0.14197  0.56446  1.0000
  C   C342      1.0  0.35972  0.13846  0.52679  1.0000
  C   C343      1.0  0.37557  0.13360  0.50925  1.0000
  H   H600      1.0  0.40197  0.13454  0.58237  1.0000
  H   H601      1.0  0.37419  0.14321  0.61331  1.0000
  H   H602      1.0  0.34806  0.13959  0.51110  1.0000
  H   H603      1.0  0.37589  0.13106  0.48007  1.0000
  C   C344      1.0  0.43315  0.03813  0.76761  1.0000
  H   H604      1.0  0.48176  0.22941  0.59642  1.0000
  H   H605      1.0  0.47977  0.03909  0.44197  1.0000
  C   C345      1.0  0.47443  0.03902  0.65820  1.0000
  C   C346      1.0  0.48145  0.05014  0.68285  1.0000
  C   C347      1.0  0.47930  0.06793  0.67717  1.0000
  C   C348      1.0  0.47042  0.07464  0.64651  1.0000
  C   C349      1.0  0.46307  0.06349  0.62238  1.0000
  C   C350      1.0  0.46495  0.04573  0.62842  1.0000
  H   H606      1.0  0.45606  0.06855  0.59892  1.0000
  H   H607      1.0  0.48254  0.99695  0.95835  1.0000
  S   S112      1.0  0.48889  0.01059  0.22711  1.0000
  H   H608      1.0  0.25801  0.00849  0.88484  1.0000
  H   H609      1.0  0.48954  0.07712  0.33315  1.0000
  C   C351      1.0  0.48117  0.06533  0.42283  1.0000
  C   C352      1.0  0.48394  0.07595  0.39182  1.0000
  C   C353      1.0  0.48804  0.05089  0.35229  1.0000
  H   H610      1.0  0.45160  0.01821  0.71938  1.0000
  C   C354      1.0  0.32992  0.99408  0.93529  1.0000
  H   H611      1.0  0.31225  0.14063  0.73733  1.0000
  C   C355      1.0  0.39716  0.02650  0.77896  1.0000
  C   C356      1.0  0.30504  0.01424  0.92756  1.0000
  H   H612      1.0  0.25941  0.10998  0.08568  1.0000
  S   S113      1.0  0.26151  0.16063  0.56648  1.0000
  H   H613      1.0  0.32039  0.15673  0.70656  1.0000
  C   C357      1.0  0.25884  0.15098  0.42055  1.0000
  H   H614      1.0  0.24764  0.19531  0.22773  1.0000
  S   S114      1.0  0.25277  0.04479  0.84427  1.0000
  H   H615      1.0  0.31511  0.07854  0.70370  1.0000
  Fe  Fe58      1.0  0.49403  0.01482  0.28722  1.0000
  H   H616      1.0  0.25175  0.11737  0.44950  1.0000
  S   S115      1.0  0.46413  0.00020  0.84218  1.0000
  C   C358      1.0  0.26719  0.10446  0.49015  1.0000
  H   H617      1.0  0.45962  0.21669  0.66094  1.0000
  S   S116      1.0  0.27307  0.14782  0.45912  1.0000
  C   C359      1.0  0.25075  0.14271  0.35807  1.0000
  C   C360      1.0  0.25964  0.10096  0.75748  1.0000
  H   H618      1.0  0.49177  0.07107  0.57555  1.0000
  H   H619      1.0  0.48160  0.20032  0.57410  1.0000
  H   H620      1.0  0.33938  0.12941  0.71286  1.0000
  H   H621      1.0  0.43945  0.00175  0.03119  1.0000
  C   C361      1.0  0.31910  0.00455  0.91261  1.0000
  C   C362      1.0  0.48607  0.22367  0.67247  1.0000
  H   H622      1.0  0.33502  0.13747  0.66775  1.0000
  H   H623      1.0  0.48497  0.07653  0.69596  1.0000
  H   H624      1.0  0.46204  0.00082  0.93538  1.0000
  H   H625      1.0  0.43512  0.00277  0.89256  1.0000
  C   C363      1.0  0.45263  0.03987  0.77312  1.0000
  C   C364      1.0  0.28445  0.22987  0.73808  1.0000
  H   H626      1.0  0.42873  0.04939  0.75041  1.0000
  C   C365      1.0  0.49514  0.22790  0.60632  1.0000
  H   H627      1.0  0.48642  0.21459  0.69653  1.0000
  H   H628      1.0  0.34650  0.10066  0.69876  1.0000
  H   H629      1.0  0.32158  0.00504  0.88315  1.0000
  C   C366      1.0  0.31287  0.00292  0.98846  1.0000
  C   C367      1.0  0.46692  0.22821  0.66617  1.0000
  H   H630      1.0  0.26944  0.23433  0.85124  1.0000
  H   H631      1.0  0.40611  0.03462  0.72474  1.0000
  C   C368      1.0  0.47638  0.19724  0.60215  1.0000
  H   H632      1.0  0.32156  0.10547  0.73931  1.0000
  N   N23       1.0  0.42779  0.02164  0.75106  1.0000
  H   H633      1.0  0.35754  0.12006  0.65032  1.0000
  H   H634      1.0  0.25772  0.09539  0.02576  1.0000
  H   H635      1.0  0.36036  0.09859  0.63536  1.0000
  H   H636      1.0  0.45839  0.02886  0.78884  1.0000
  H   H637      1.0  0.30196  0.11484  0.72284  1.0000
  C   C369      1.0  0.44262  0.00006  0.00142  1.0000
  H   H638      1.0  0.31673  0.10152  0.59872  1.0000
  H   H639      1.0  0.45938  0.03717  0.60941  1.0000
  H   H640      1.0  0.46472  0.20540  0.60752  1.0000
  H   H641      1.0  0.31609  0.12620  0.63015  1.0000
  H   H642      1.0  0.45465  0.05148  0.78925  1.0000
  C   C370      1.0  0.49033  0.19862  0.63148  1.0000
  C   C371      1.0  0.30534  0.08869  0.71069  1.0000
  H   H643      1.0  0.29136  0.02073  0.97788  1.0000
  H   H644      1.0  0.24916  0.16893  0.05886  1.0000
  S   S117      1.0  0.49234  0.04258  0.30737  1.0000
  C   C372      1.0  0.48193  0.04748  0.41830  1.0000
  S   S118      1.0  0.49571  0.01686  0.76750  1.0000
  C   C373      1.0  0.31311  0.10631  0.71488  1.0000
  H   H645      1.0  0.29534  0.10032  0.61573  1.0000
  H   H646      1.0  0.27154  0.11597  0.50371  1.0000
  H   H647      1.0  0.49050  0.03098  0.58515  1.0000
  H   H648      1.0  0.43213  0.00711  0.98648  1.0000
  H   H649      1.0  0.24975  0.13157  0.52416  1.0000
  H   H650      1.0  0.45973  0.04165  0.74649  1.0000
  H   H651      1.0  0.48354  0.08969  0.39473  1.0000
  H   H652      1.0  0.47233  0.18377  0.60152  1.0000
  H   H653      1.0  0.39831  0.03957  0.78966  1.0000
  H   H654      1.0  0.30326  0.14403  0.69215  1.0000
  H   H655      1.0  0.29482  0.08930  0.69053  1.0000
  H   H656      1.0  0.27273  0.13218  0.38768  1.0000
  S   S119      1.0  0.47802  0.01673  0.66236  1.0000
  C   C374      1.0  0.48527  0.04030  0.38334  1.0000
  H   H657      1.0  0.48572  0.02656  0.38040  1.0000
  C   C375      1.0  0.40873  0.02365  0.74427  1.0000
  C   C376      1.0  0.25590  0.09604  0.69180  1.0000
  N   N24       1.0  0.42634  0.08318  0.41486  1.0000
  C   C377      1.0  0.43382  0.06554  0.40633  1.0000
  C   C378      1.0  0.42565  0.08445  0.45628  1.0000
  C   C379      1.0  0.43862  0.09611  0.39918  1.0000
  C   C380      1.0  0.40885  0.08539  0.39769  1.0000
  C   C381      1.0  0.43775  0.06184  0.36530  1.0000
  C   C382      1.0  0.41462  0.07124  0.47719  1.0000
  C   C383      1.0  0.43322  0.11511  0.40358  1.0000
  C   C384      1.0  0.39605  0.09889  0.41473  1.0000
  H   H658      1.0  0.44598  0.06289  0.42141  1.0000
  H   H659      1.0  0.42495  0.05549  0.41620  1.0000
  H   H660      1.0  0.42099  0.09719  0.46533  1.0000
  H   H661      1.0  0.43889  0.08304  0.46732  1.0000
  H   H662      1.0  0.45153  0.09404  0.41164  1.0000
  H   H663      1.0  0.44064  0.09465  0.36900  1.0000
  H   H664      1.0  0.41031  0.08856  0.36770  1.0000
  H   H665      1.0  0.40211  0.07306  0.39939  1.0000
  H   H666      1.0  0.44078  0.04792  0.36240  1.0000
  H   H667      1.0  0.42668  0.06521  0.34753  1.0000
  H   H668      1.0  0.44938  0.06839  0.35492  1.0000
  H   H669      1.0  0.42135  0.05847  0.47826  1.0000
  H   H670      1.0  0.41262  0.07530  0.50620  1.0000
  H   H671      1.0  0.40175  0.07018  0.46522  1.0000
  H   H672      1.0  0.43059  0.11860  0.43260  1.0000
  H   H673      1.0  0.42198  0.11880  0.38648  1.0000
  H   H674      1.0  0.44398  0.12307  0.39349  1.0000
  H   H675      1.0  0.38869  0.10544  0.39226  1.0000
  H   H676      1.0  0.40184  0.10909  0.43026  1.0000
  H   H677      1.0  0.38625  0.09261  0.43268  1.0000
  N   N25       1.0  0.32276  0.11357  0.68181  1.0000
  C   C385      1.0  0.32904  0.13085  0.69212  1.0000
  C   C386      1.0  0.33852  0.10229  0.67369  1.0000
  H   H678      1.0  0.26224  0.00040  0.99422  1.0000
  C   C387      1.0  0.31116  0.11602  0.64914  1.0000
  H   H679      1.0  0.48570  0.19182  0.65696  1.0000
  C   C388      1.0  0.35048  0.10875  0.64214  1.0000
  S   S120      1.0  0.49019  0.16003  0.51998  1.0000
  C   C389      1.0  0.30891  0.10034  0.62465  1.0000
  H   H680      1.0  0.31160  0.08772  0.63789  1.0000
  C   C390      1.0  0.25341  0.99598  0.97305  1.0000
  H   H681      1.0  0.33523  0.08912  0.66699  1.0000
  H   H682      1.0  0.42994  0.01099  0.80649  1.0000
  C   C391      1.0  0.30204  0.01338  0.96577  1.0000
  H   H683      1.0  0.31966  0.23948  0.63817  1.0000
  H   H684      1.0  0.29813  0.12079  0.65831  1.0000
  H   H685      1.0  0.38347  0.02532  0.77162  1.0000
  H   H686      1.0  0.27706  0.10132  0.46842  1.0000
  C   C392      1.0  0.43752  0.01968  0.71481  1.0000
  S   S121      1.0  0.25831  0.09475  0.80553  1.0000
  C   C393      1.0  0.27010  0.23716  0.63581  1.0000
  C   C394      1.0  0.26177  0.14113  0.38873  1.0000
  Fe  Fe59      1.0  0.48962  0.00485  0.71400  1.0000
  H   H687      1.0  0.48784  0.05117  0.52818  1.0000
  C   C395      1.0  0.27664  0.23462  0.77639  1.0000
  H   H688      1.0  0.40370  0.01254  0.73032  1.0000
  H   H689      1.0  0.24922  0.20667  0.26939  1.0000
  H   H690      1.0  0.24992  0.07792  0.73617  1.0000
  H   H691      1.0  0.44099  0.00501  0.66518  1.0000
  C   C396      1.0  0.48738  0.06876  0.35686  1.0000
  Fe  Fe60      1.0  0.25115  0.07361  0.84894  1.0000
  C   C397      1.0  0.24693  0.10769  0.07460  1.0000
  C   C398      1.0  0.43333  0.00427  0.69143  1.0000
  H   H692      1.0  0.27397  0.99764  0.93316  1.0000
  H   H693      1.0  0.46122  0.23389  0.69170  1.0000
  N   N26       1.0  0.49619  0.21633  0.64015  1.0000
  H   H694      1.0  0.44633  0.00380  0.77543  1.0000
  C   C399      1.0  0.25474  0.09040  0.72919  1.0000
  H   H695      1.0  0.25021  0.17491  0.12460  1.0000
  H   H696      1.0  0.41966  0.00423  0.68362  1.0000
  H   H697      1.0  0.25338  0.13502  0.33404  1.0000
  C   C400      1.0  0.49569  0.02798  0.55736  1.0000
  C   C401      1.0  0.30578  0.23889  0.63772  1.0000
  H   H698      1.0  0.25193  0.08774  0.67045  1.0000
  H   H699      1.0  0.29308  0.23927  0.72519  1.0000
  Fe  Fe61      1.0  0.48263  0.99436  0.79434  1.0000
  C   C402      1.0  0.24957  0.10763  0.47177  1.0000
  C   C403      1.0  0.24790  0.99884  0.88853  1.0000
  H   H700      1.0  0.24672  0.09562  0.45753  1.0000
  H   H701      1.0  0.27956  0.99386  0.85438  1.0000
  Fe  Fe62      1.0  0.47749  0.35547  0.72567  1.0000
  S   S122      1.0  0.45481  0.36296  0.69060  1.0000
  C   C404      1.0  0.39231  0.43692  0.36437  1.0000
  Fe  Fe63      1.0  0.46286  0.37639  0.79161  1.0000
  S   S123      1.0  0.43879  0.38467  0.76159  1.0000
  S   S124      1.0  0.46829  0.38320  0.85151  1.0000
  Fe  Fe64      1.0  0.43813  0.35775  0.74123  1.0000
  S   S125      1.0  0.41492  0.34080  0.73336  1.0000
  Fe  Fe65      1.0  0.45686  0.38926  0.71305  1.0000
  S   S126      1.0  0.45225  0.41440  0.68194  1.0000
  S   S127      1.0  0.46094  0.34870  0.77535  1.0000
  S   S128      1.0  0.48085  0.38255  0.74419  1.0000
  S   S129      1.0  0.26893  0.37803  0.47161  1.0000
  H   H702      1.0  0.27803  0.38642  0.63233  1.0000
  C   C405      1.0  0.45772  0.49011  0.19559  1.0000
  H   H703      1.0  0.30525  0.26542  0.74674  1.0000
  C   C406      1.0  0.26192  0.26480  0.55947  1.0000
  H   H704      1.0  0.25033  0.24677  0.73087  1.0000
  H   H705      1.0  0.28332  0.30593  0.60602  1.0000
  H   H706      1.0  0.25784  0.39701  0.00396  1.0000
  H   H707      1.0  0.25777  0.36367  0.15167  1.0000
  Fe  Fe66      1.0  0.29631  0.29657  0.69160  1.0000
  S   S130      1.0  0.26893  0.30569  0.70213  1.0000
  S   S131      1.0  0.30569  0.27126  0.66604  1.0000
  Fe  Fe67      1.0  0.31101  0.32969  0.72045  1.0000
  S   S132      1.0  0.28419  0.34049  0.73385  1.0000
  S   S133      1.0  0.33235  0.34887  0.72781  1.0000
  Fe  Fe68      1.0  0.27802  0.31444  0.75754  1.0000
  N   N27       1.0  0.28084  0.29119  0.55679  1.0000
  Fe  Fe69      1.0  0.27734  0.33104  0.67777  1.0000
  H   H708      1.0  0.28323  0.40537  0.65528  1.0000
  S   S134      1.0  0.30535  0.30415  0.74752  1.0000
  S   S135      1.0  0.30415  0.32133  0.66387  1.0000
  H   H709      1.0  0.43199  0.42330  0.95358  1.0000
  S   S136      1.0  0.27277  0.39774  0.37328  1.0000
  C   C407      1.0  0.36598  0.45727  0.31653  1.0000
  H   H710      1.0  0.24766  0.34751  0.10104  1.0000
  Fe  Fe70      1.0  0.26634  0.42607  0.37372  1.0000
  S   S137      1.0  0.28732  0.44624  0.37440  1.0000
  N   N28       1.0  0.36060  0.44505  0.34714  1.0000
  H   H711      1.0  0.37005  0.42282  0.37804  1.0000
  Fe  Fe71      1.0  0.47257  0.48565  0.02809  1.0000
  H   H712      1.0  0.27268  0.25517  0.56270  1.0000
  S   S138      1.0  0.33396  0.49022  0.26182  1.0000
  H   H713      1.0  0.45587  0.47628  0.20113  1.0000
  C   C408      1.0  0.26358  0.35599  0.59134  1.0000
  C   C409      1.0  0.26633  0.36966  0.51777  1.0000
  C   C410      1.0  0.27904  0.35812  0.53205  1.0000
  C   C411      1.0  0.27769  0.35134  0.56849  1.0000
  C   C412      1.0  0.49334  0.47514  0.16290  1.0000
  H   H714      1.0  0.28761  0.34259  0.57897  1.0000
  H   H715      1.0  0.36607  0.48037  0.37127  1.0000
  H   H716      1.0  0.24894  0.34597  0.91235  1.0000
  H   H717      1.0  0.26943  0.26242  0.65902  1.0000
  C   C413      1.0  0.47541  0.40294  0.86834  1.0000
  C   C414      1.0  0.47854  0.41706  0.84504  1.0000
  C   C415      1.0  0.28425  0.30691  0.53333  1.0000
  C   C416      1.0  0.49554  0.33404  0.83586  1.0000
  C   C417      1.0  0.42564  0.48482  0.12153  1.0000
  H   H718      1.0  0.42693  0.47153  0.40855  1.0000
  H   H719      1.0  0.48721  0.44295  0.84104  1.0000
  H   H720      1.0  0.34784  0.42740  0.31223  1.0000
  H   H721      1.0  0.29494  0.27009  0.58345  1.0000
  H   H722      1.0  0.31083  0.29687  0.59824  1.0000
  C   C418      1.0  0.46398  0.41995  0.64137  1.0000
  C   C419      1.0  0.46318  0.43703  0.62870  1.0000
  C   C420      1.0  0.29701  0.28013  0.56174  1.0000
  C   C421      1.0  0.48089  0.42974  0.57480  1.0000
  C   C422      1.0  0.48164  0.41259  0.58732  1.0000
  C   C423      1.0  0.47337  0.40772  0.62077  1.0000
  H   H723      1.0  0.37570  0.42222  0.33131  1.0000
  H   H724      1.0  0.29507  0.25288  0.82488  1.0000
  S   S139      1.0  0.26331  0.30538  0.81091  1.0000
  H   H725      1.0  0.47405  0.39450  0.63030  1.0000
  C   C424      1.0  0.39193  0.34337  0.73282  1.0000
  C   C425      1.0  0.38222  0.32936  0.72326  1.0000
  C   C426      1.0  0.36405  0.33072  0.72184  1.0000
  C   C427      1.0  0.35528  0.34621  0.72975  1.0000
  C   C428      1.0  0.36498  0.36029  0.73892  1.0000
  C   C429      1.0  0.38314  0.35887  0.74075  1.0000
  H   H726      1.0  0.38881  0.31728  0.71713  1.0000
  H   H727      1.0  0.35685  0.31975  0.71473  1.0000
  H   H728      1.0  0.35838  0.37230  0.74540  1.0000
  H   H729      1.0  0.39028  0.36967  0.74897  1.0000
  H   H730      1.0  0.25613  0.26777  0.58689  1.0000
  H   H731      1.0  0.39334  0.43840  0.39460  1.0000
  H   H732      1.0  0.38073  0.43919  0.28075  1.0000
  C   C430      1.0  0.29144  0.30373  0.49389  1.0000
  C   C431      1.0  0.45400  0.44761  0.97534  1.0000
  N   N29       1.0  0.44307  0.43602  0.99919  1.0000
  H   H733      1.0  0.46753  0.46831  0.14378  1.0000
  Fe  Fe72      1.0  0.24830  0.39499  0.34142  1.0000
  C   C432      1.0  0.32085  0.47829  0.29346  1.0000
  C   C433      1.0  0.30916  0.46681  0.27978  1.0000
  C   C434      1.0  0.29862  0.45702  0.30388  1.0000
  C   C435      1.0  0.29946  0.45877  0.34209  1.0000
  C   C436      1.0  0.31084  0.47058  0.35568  1.0000
  C   C437      1.0  0.32159  0.48012  0.33167  1.0000
  H   H734      1.0  0.30834  0.46533  0.25030  1.0000
  H   H735      1.0  0.28992  0.44805  0.29290  1.0000
  H   H736      1.0  0.31150  0.47215  0.38516  1.0000
  S   S140      1.0  0.26115  0.34809  0.63782  1.0000
  H   H737      1.0  0.46669  0.44145  0.96842  1.0000
  H   H738      1.0  0.43467  0.39323  0.98578  1.0000
  H   H739      1.0  0.48214  0.48688  0.88761  1.0000
  H   H740      1.0  0.31785  0.29804  0.55014  1.0000
  H   H741      1.0  0.32870  0.43462  0.38612  1.0000
  C   C438      1.0  0.26655  0.37781  0.04538  1.0000
  H   H742      1.0  0.37735  0.46456  0.32359  1.0000
  H   H743      1.0  0.27989  0.38929  0.99814  1.0000
  H   H744      1.0  0.32364  0.27988  0.57868  1.0000
  C   C439      1.0  0.26084  0.25586  0.81440  1.0000
  H   H745      1.0  0.36284  0.47473  0.41860  1.0000
  C   C440      1.0  0.48453  0.41948  0.92074  1.0000
  H   H746      1.0  0.40338  0.44737  0.04326  1.0000
  N   N30       1.0  0.27472  0.25343  0.78481  1.0000
  H   H747      1.0  0.27218  0.31482  0.52964  1.0000
  H   H748      1.0  0.47107  0.45517  0.58650  1.0000
  H   H749      1.0  0.35866  0.44387  0.26663  1.0000
  H   H750      1.0  0.43449  0.40388  0.02781  1.0000
  H   H751      1.0  0.44500  0.42516  0.05506  1.0000
  H   H752      1.0  0.46807  0.40910  0.01693  1.0000
  H   H753      1.0  0.27398  0.25547  0.86760  1.0000
  C   C441      1.0  0.37021  0.44911  0.27892  1.0000
  H   H754      1.0  0.47633  0.39338  0.92449  1.0000
  H   H755      1.0  0.29004  0.35446  0.51472  1.0000
  H   H756      1.0  0.45191  0.48106  0.44333  1.0000
  S   S141      1.0  0.25132  0.42401  0.42796  1.0000
  H   H757      1.0  0.48022  0.48647  0.22734  1.0000
  H   H758      1.0  0.31178  0.24542  0.76999  1.0000
  H   H759      1.0  0.26983  0.35176  0.09454  1.0000
  C   C442      1.0  0.25541  0.32858  0.86814  1.0000
  H   H760      1.0  0.27427  0.28589  0.61445  1.0000
  H   H761      1.0  0.37469  0.45915  0.25920  1.0000
  S   S142      1.0  0.40453  0.48872  0.35653  1.0000
  S   S143      1.0  0.44845  0.47952  0.06293  1.0000
  H   H762      1.0  0.24987  0.35442  0.00111  1.0000
  H   H763      1.0  0.27725  0.36971  0.68988  1.0000
  H   H764      1.0  0.45593  0.44654  0.64447  1.0000
  H   H765      1.0  0.26383  0.38847  0.69296  1.0000
  Fe  Fe73      1.0  0.49547  0.46898  0.96609  1.0000
  N   N31       1.0  0.41320  0.37614  0.62396  1.0000
  C   C443      1.0  0.42852  0.37348  0.59793  1.0000
  C   C444      1.0  0.41057  0.35936  0.64434  1.0000
  C   C445      1.0  0.41756  0.38983  0.65055  1.0000
  C   C446      1.0  0.39787  0.38177  0.60144  1.0000
  C   C447      1.0  0.43497  0.38967  0.57748  1.0000
  C   C448      1.0  0.40567  0.34426  0.62071  1.0000
  C   C449      1.0  0.40790  0.39004  0.68813  1.0000
  C   C450      1.0  0.38023  0.38331  0.62187  1.0000
  H   H766      1.0  0.43974  0.36767  0.61300  1.0000
  H   H767      1.0  0.42571  0.36430  0.57612  1.0000
  H   H768      1.0  0.40047  0.36047  0.66623  1.0000
  H   H769      1.0  0.42242  0.35526  0.65930  1.0000
  H   H770      1.0  0.43142  0.38861  0.65749  1.0000
  H   H771      1.0  0.41577  0.40284  0.63776  1.0000
  H   H772      1.0  0.39988  0.39462  0.58861  1.0000
  H   H773      1.0  0.39653  0.37348  0.57723  1.0000
  H   H774      1.0  0.43906  0.39950  0.59664  1.0000
  H   H775      1.0  0.44655  0.38608  0.56037  1.0000
  H   H776      1.0  0.42527  0.39538  0.55847  1.0000
  H   H777      1.0  0.40331  0.33307  0.63942  1.0000
  H   H778      1.0  0.39360  0.34705  0.60566  1.0000
  H   H779      1.0  0.41624  0.34023  0.60137  1.0000
  H   H780      1.0  0.41126  0.40170  0.70291  1.0000
  H   H781      1.0  0.41218  0.37895  0.70567  1.0000
  H   H782      1.0  0.39375  0.39029  0.68591  1.0000
  H   H783      1.0  0.37810  0.39626  0.63345  1.0000
  H   H784      1.0  0.37838  0.37355  0.64400  1.0000
  H   H785      1.0  0.36988  0.38114  0.60213  1.0000
  H   H786      1.0  0.44540  0.44282  0.91895  1.0000
  N   N32       1.0  0.30474  0.38702  0.64904  1.0000
  C   C451      1.0  0.31413  0.39249  0.68269  1.0000
  C   C452      1.0  0.28574  0.39124  0.65511  1.0000
  C   C453      1.0  0.31051  0.39700  0.61512  1.0000
  C   C454      1.0  0.30701  0.36796  0.64422  1.0000
  C   C455      1.0  0.33287  0.39811  0.67704  1.0000
  C   C456      1.0  0.27749  0.38378  0.69079  1.0000
  C   C457      1.0  0.30156  0.39299  0.57892  1.0000
  C   C458      1.0  0.32497  0.36126  0.63106  1.0000
  H   H787      1.0  0.30728  0.40369  0.69569  1.0000
  H   H788      1.0  0.31422  0.38219  0.70451  1.0000
  S   S144      1.0  0.47646  0.48601  0.53743  1.0000
  H   H789      1.0  0.30853  0.41100  0.61963  1.0000
  H   H790      1.0  0.32454  0.39501  0.60946  1.0000
  H   H791      1.0  0.30405  0.36094  0.67051  1.0000
  H   H792      1.0  0.29761  0.36351  0.62436  1.0000
  H   H793      1.0  0.33325  0.41078  0.66263  1.0000
  H   H794      1.0  0.33864  0.39953  0.70449  1.0000
  H   H795      1.0  0.34123  0.38882  0.66192  1.0000
  H   H796      1.0  0.28388  0.38758  0.71616  1.0000
  C   C459      1.0  0.29547  0.25280  0.65054  1.0000
  H   H797      1.0  0.43368  0.46046  0.94143  1.0000
  H   H798      1.0  0.28773  0.39710  0.57935  1.0000
  H   H799      1.0  0.32902  0.36693  0.60413  1.0000
  H   H800      1.0  0.32462  0.34727  0.62709  1.0000
  H   H801      1.0  0.33480  0.36304  0.65198  1.0000
  H   H802      1.0  0.35567  0.46732  0.31202  1.0000
  C   C460      1.0  0.43081  0.40558  0.99871  1.0000
  C   C461      1.0  0.31312  0.28952  0.57275  1.0000
  C   C462      1.0  0.25086  0.36746  0.57704  1.0000
  N   N33       1.0  0.25298  0.36513  0.05541  1.0000
  H   H803      1.0  0.47987  0.42868  0.01426  1.0000
  H   H804      1.0  0.27317  0.33220  0.05152  1.0000
  H   H805      1.0  0.26523  0.38902  0.06367  1.0000
  C   C463      1.0  0.25221  0.37423  0.54062  1.0000
  H   H806      1.0  0.34273  0.46060  0.38003  1.0000
  H   H807      1.0  0.41661  0.40748  0.99716  1.0000
  H   H808      1.0  0.42330  0.47134  0.11967  1.0000
  H   H809      1.0  0.28918  0.27369  0.80737  1.0000
  H   H810      1.0  0.39626  0.44882  0.35008  1.0000
  C   C464      1.0  0.34466  0.43650  0.33475  1.0000
  S   S145      1.0  0.24849  0.37415  0.29668  1.0000
  H   H811      1.0  0.33532  0.44609  0.32274  1.0000
  H   H812      1.0  0.27881  0.26353  0.72873  1.0000
  C   C465      1.0  0.44005  0.42014  0.97793  1.0000
  H   H813      1.0  0.27974  0.37245  0.05108  1.0000
  H   H814      1.0  0.26916  0.33038  0.00381  1.0000
  H   H815      1.0  0.32366  0.42018  0.35140  1.0000
  H   H816      1.0  0.41409  0.42676  0.04545  1.0000
  C   C466      1.0  0.47175  0.44195  0.59582  1.0000
  C   C467      1.0  0.47843  0.40429  0.90627  1.0000
  C   C468      1.0  0.26773  0.28093  0.53802  1.0000
  C   C469      1.0  0.26471  0.24785  0.85275  1.0000
  C   C470      1.0  0.43103  0.48454  0.40510  1.0000
  C   C471      1.0  0.42624  0.44574  0.00753  1.0000
  C   C472      1.0  0.44635  0.45359  0.93806  1.0000
  C   C473      1.0  0.41624  0.44062  0.04309  1.0000
  H   H817      1.0  0.45686  0.45926  0.99071  1.0000
  H   H818      1.0  0.42834  0.45969  0.01019  1.0000
  H   H819      1.0  0.41723  0.44487  0.98430  1.0000
  H   H820      1.0  0.45522  0.46265  0.92420  1.0000
  H   H821      1.0  0.30295  0.37927  0.57212  1.0000
  H   H822      1.0  0.28078  0.30293  0.47420  1.0000
  C   C474      1.0  0.27755  0.25182  0.64961  1.0000
  H   H823      1.0  0.30769  0.40025  0.55574  1.0000
  C   C475      1.0  0.46988  0.42159  0.02982  1.0000
  H   H824      1.0  0.35555  0.44583  0.40625  1.0000
  C   C476      1.0  0.45280  0.43219  0.03418  1.0000
  H   H825      1.0  0.45576  0.44431  0.04775  1.0000
  C   C477      1.0  0.37421  0.43122  0.35459  1.0000
  C   C478      1.0  0.36730  0.46958  0.39159  1.0000
  C   C479      1.0  0.35593  0.45471  0.38181  1.0000
  H   H826      1.0  0.38099  0.46565  0.39447  1.0000
  C   C480      1.0  0.27440  0.29683  0.59433  1.0000
  H   H827      1.0  0.40208  0.42706  0.35532  1.0000
  C   C481      1.0  0.33459  0.42625  0.36458  1.0000
  C   C482      1.0  0.48467  0.43224  0.85951  1.0000
  H   H828      1.0  0.47639  0.41623  0.81578  1.0000
  C   C483      1.0  0.25569  0.37077  0.12514  1.0000
  H   H829      1.0  0.34259  0.41585  0.37750  1.0000
  H   H830      1.0  0.45223  0.41476  0.96524  1.0000
  H   H831      1.0  0.42288  0.44488  0.06787  1.0000
  C   C484      1.0  0.25456  0.31187  0.85533  1.0000
  C   C485      1.0  0.26932  0.26433  0.75191  1.0000
  C   C486      1.0  0.25325  0.35034  0.02953  1.0000
  H   H832      1.0  0.30043  0.27274  0.53662  1.0000
  H   H833      1.0  0.26591  0.38023  0.12253  1.0000
  C   C487      1.0  0.30722  0.25889  0.77375  1.0000
  S   S146      1.0  0.47380  0.48878  0.96636  1.0000
  H   H834      1.0  0.48676  0.32423  0.82646  1.0000
  H   H835      1.0  0.47513  0.41880  0.05762  1.0000
  H   H836      1.0  0.28133  0.34785  0.01809  1.0000
  H   H837      1.0  0.29978  0.29201  0.49173  1.0000
  H   H838      1.0  0.29282  0.31570  0.54721  1.0000
  H   H839      1.0  0.48719  0.34498  0.84536  1.0000
  C   C488      1.0  0.26662  0.38549  0.00582  1.0000
  C   C489      1.0  0.27037  0.33980  0.02603  1.0000
  C   C490      1.0  0.25668  0.35786  0.09349  1.0000
  Fe  Fe74      1.0  0.25665  0.39548  0.42575  1.0000
  H   H840      1.0  0.24997  0.26771  0.70970  1.0000
  H   H841      1.0  0.31786  0.26543  0.78683  1.0000
  H   H842      1.0  0.48584  0.30897  0.72036  1.0000
  C   C491      1.0  0.24822  0.33298  0.90319  1.0000
  C   C492      1.0  0.29117  0.26003  0.79942  1.0000
  H   H843      1.0  0.27289  0.27645  0.51086  1.0000
  H   H844      1.0  0.47866  0.47779  0.84304  1.0000
  H   H845      1.0  0.26884  0.27808  0.75917  1.0000
  H   H846      1.0  0.25264  0.24810  0.86987  1.0000
  H   H847      1.0  0.26339  0.37639  0.98446  1.0000
  H   H848      1.0  0.26155  0.33817  0.85098  1.0000
  H   H849      1.0  0.29967  0.31445  0.48498  1.0000
  H   H850      1.0  0.25776  0.26972  0.81849  1.0000
  C   C493      1.0  0.25634  0.30580  0.59594  1.0000
  H   H851      1.0  0.33044  0.48889  0.34279  1.0000
  H   H852      1.0  0.25568  0.31780  0.57910  1.0000
  C   C494      1.0  0.48131  0.46688  0.13578  1.0000
  H   H853      1.0  0.25079  0.34306  0.25547  1.0000
  H   H854      1.0  0.48744  0.41999  0.94963  1.0000
  C   C495      1.0  0.48760  0.43364  0.89748  1.0000
  S   S147      1.0  0.49293  0.46431  0.02769  1.0000
  S   S148      1.0  0.49104  0.43560  0.53244  1.0000
  H   H855      1.0  0.40772  0.48855  0.16775  1.0000
  C   C496      1.0  0.44519  0.48990  0.42480  1.0000
  H   H856      1.0  0.25606  0.28900  0.53128  1.0000
  C   C497      1.0  0.25162  0.26054  0.73624  1.0000
  Fe  Fe75      1.0  0.49457  0.46397  0.52232  1.0000
  H   H857      1.0  0.49464  0.25313  0.63315  1.0000
  C   C498      1.0  0.47820  0.48973  0.85896  1.0000
  H   H858      1.0  0.25333  0.30951  0.62482  1.0000
  H   H859      1.0  0.24858  0.25034  0.80606  1.0000
  H   H860      1.0  0.25189  0.25862  0.54364  1.0000
  H   H861      1.0  0.48331  0.47214  0.10737  1.0000
  H   H862      1.0  0.48871  0.40307  0.57125  1.0000
  C   C499      1.0  0.43752  0.49239  0.09675  1.0000
  H   H863      1.0  0.48935  0.48886  0.77407  1.0000
  H   H864      1.0  0.48460  0.45296  0.13464  1.0000
  H   H865      1.0  0.49356  0.46684  0.18827  1.0000
  S   S149      1.0  0.49629  0.45286  0.91359  1.0000
  H   H866      1.0  0.49630  0.27885  0.71127  1.0000
  Fe  Fe76      1.0  0.30844  0.69335  0.35114  1.0000
  S   S150      1.0  0.32572  0.71527  0.33707  1.0000
  S   S151      1.0  0.28572  0.70079  0.38980  1.0000
  Fe  Fe77      1.0  0.33224  0.66751  0.30884  1.0000
  S   S152      1.0  0.35094  0.68793  0.29277  1.0000
  S   S153      1.0  0.33446  0.64135  0.28105  1.0000
  Fe  Fe78      1.0  0.34748  0.69664  0.35217  1.0000
  S   S154      1.0  0.37061  0.70050  0.38989  1.0000
  Fe  Fe79      1.0  0.32769  0.70504  0.27897  1.0000
  S   S155      1.0  0.31966  0.71921  0.22431  1.0000
  S   S156      1.0  0.33009  0.67509  0.36839  1.0000
  S   S157      1.0  0.30911  0.68420  0.29300  1.0000
  H   H867      1.0  0.48398  0.55975  0.54634  1.0000
  H   H868      1.0  0.25721  0.71277  0.43522  1.0000
  S   S158      1.0  0.43612  0.73667  0.58472  1.0000
  H   H869      1.0  0.36105  0.67056  0.48028  1.0000
  S   S159      1.0  0.40823  0.72139  0.64567  1.0000
  H   H870      1.0  0.49051  0.63073  0.92083  1.0000
  Fe  Fe80      1.0  0.43733  0.72346  0.64104  1.0000
  S   S160      1.0  0.45771  0.70114  0.64109  1.0000
  C   C500      1.0  0.28320  0.73056  0.29755  1.0000
  H   H871      1.0  0.32368  0.72469  0.90091  1.0000
  H   H872      1.0  0.27816  0.73204  0.22163  1.0000
  Fe  Fe81      1.0  0.39095  0.51997  0.23546  1.0000
  S   S161      1.0  0.39900  0.53117  0.28899  1.0000
  S   S162      1.0  0.40855  0.52521  0.18482  1.0000
  Fe  Fe82      1.0  0.35774  0.50589  0.27216  1.0000
  S   S163      1.0  0.36371  0.51621  0.32721  1.0000
  H   H873      1.0  0.45444  0.51019  0.59221  1.0000
  Fe  Fe83      1.0  0.37124  0.54040  0.29625  1.0000
  S   S164      1.0  0.36375  0.56578  0.32455  1.0000
  Fe  Fe84      1.0  0.39082  0.50643  0.31532  1.0000
  C   C501      1.0  0.29128  0.51328  0.29562  1.0000
  S   S165      1.0  0.36349  0.53068  0.24130  1.0000
  H   H874      1.0  0.28292  0.54455  0.35045  1.0000
  H   H875      1.0  0.31162  0.68366  0.20100  1.0000
  C   C502      1.0  0.44171  0.51805  0.39631  1.0000
  H   H876      1.0  0.48693  0.56307  0.49787  1.0000
  C   C503      1.0  0.41953  0.51206  0.15154  1.0000
  C   C504      1.0  0.33166  0.72977  0.87763  1.0000
  H   H877      1.0  0.47326  0.59121  0.81466  1.0000
  C   C505      1.0  0.43134  0.51961  0.12660  1.0000
  C   C506      1.0  0.45508  0.52327  0.60323  1.0000
  H   H878      1.0  0.43350  0.53315  0.12818  1.0000
  H   H879      1.0  0.32369  0.56266  0.30990  1.0000
  H   H880      1.0  0.26866  0.70044  0.30893  1.0000
  C   C507      1.0  0.48392  0.62314  0.90013  1.0000
  C   C508      1.0  0.26289  0.70818  0.28584  1.0000
  H   H881      1.0  0.47463  0.61355  0.80636  1.0000
  C   C509      1.0  0.34268  0.73484  0.17356  1.0000
  H   H882      1.0  0.44922  0.51595  0.08042  1.0000
  C   C510      1.0  0.46795  0.68632  0.67267  1.0000
  C   C511      1.0  0.46485  0.68663  0.71084  1.0000
  C   C512      1.0  0.28348  0.55582  0.33159  1.0000
  C   C513      1.0  0.47976  0.67381  0.65866  1.0000
  H   H883      1.0  0.45586  0.69614  0.72213  1.0000
  H   H884      1.0  0.34931  0.71421  0.55176  1.0000
  H   H885      1.0  0.48225  0.67337  0.62922  1.0000
  H   H886      1.0  0.41542  0.56277  0.57117  1.0000
  H   H887      1.0  0.46941  0.57402  0.52096  1.0000
  C   C514      1.0  0.47626  0.49493  0.20373  1.0000
  H   H888      1.0  0.47567  0.50793  0.21569  1.0000
  H   H889      1.0  0.34874  0.63421  0.13376  1.0000
  H   H890      1.0  0.42054  0.54075  0.57539  1.0000
  H   H891      1.0  0.29119  0.72758  0.27279  1.0000
  C   C515      1.0  0.32579  0.73000  0.18164  1.0000
  H   H892      1.0  0.30691  0.70174  0.52083  1.0000
  H   H893      1.0  0.42090  0.52155  0.35809  1.0000
  H   H894      1.0  0.28871  0.72192  0.31947  1.0000
  H   H895      1.0  0.47080  0.67498  0.76386  1.0000
  H   H896      1.0  0.40698  0.73537  0.41917  1.0000
  H   H897      1.0  0.32994  0.70390  0.56508  1.0000
  H   H898      1.0  0.32979  0.72028  0.52937  1.0000
  C   C516      1.0  0.34327  0.62062  0.29360  1.0000
  C   C517      1.0  0.34810  0.61624  0.32962  1.0000
  C   C518      1.0  0.35439  0.59946  0.33835  1.0000
  C   C519      1.0  0.35621  0.58687  0.31123  1.0000
  C   C520      1.0  0.35160  0.59132  0.27508  1.0000
  C   C521      1.0  0.34506  0.60803  0.26646  1.0000
  H   H899      1.0  0.34681  0.62570  0.35085  1.0000
  H   H900      1.0  0.35793  0.59622  0.36638  1.0000
  H   H901      1.0  0.35310  0.58192  0.25378  1.0000
  H   H902      1.0  0.34140  0.61122  0.23849  1.0000
  C   C522      1.0  0.37474  0.71013  0.43310  1.0000
  C   C523      1.0  0.36492  0.72413  0.44658  1.0000
  C   C524      1.0  0.36879  0.73132  0.48076  1.0000
  C   C525      1.0  0.38263  0.72479  0.50202  1.0000
  C   C526      1.0  0.39261  0.71096  0.48826  1.0000
  C   C527      1.0  0.38872  0.70376  0.45412  1.0000
  H   H903      1.0  0.35233  0.65368  0.45536  1.0000
  Fe  Fe85      1.0  0.49418  0.50803  0.97306  1.0000
  H   H904      1.0  0.40338  0.70580  0.50392  1.0000
  H   H905      1.0  0.39660  0.69310  0.44396  1.0000
  C   C528      1.0  0.25790  0.68099  0.37302  1.0000
  C   C529      1.0  0.26407  0.69410  0.39403  1.0000
  H   H906      1.0  0.26652  0.67428  0.35396  1.0000
  H   H907      1.0  0.31731  0.69276  0.43524  1.0000
  N   N34       1.0  0.30908  0.54054  0.29640  1.0000
  H   H908      1.0  0.31740  0.51508  0.31357  1.0000
  H   H909      1.0  0.28474  0.70409  0.24600  1.0000
  C   C530      1.0  0.47459  0.60357  0.82859  1.0000
  C   C531      1.0  0.29332  0.55236  0.29493  1.0000
  H   H910      1.0  0.46332  0.52205  0.62784  1.0000
  H   H911      1.0  0.48956  0.53028  0.15373  1.0000
  H   H912      1.0  0.35444  0.72955  0.43045  1.0000
  C   C532      1.0  0.42222  0.49590  0.38085  1.0000
  H   H913      1.0  0.26368  0.70640  0.22539  1.0000
  H   H914      1.0  0.33483  0.71953  0.85795  1.0000
  H   H915      1.0  0.31760  0.72329  0.42899  1.0000
  C   C533      1.0  0.32341  0.54867  0.31643  1.0000
  H   H916      1.0  0.48589  0.63635  0.82752  1.0000
  H   H917      1.0  0.29682  0.56519  0.28397  1.0000
  H   H918      1.0  0.28395  0.54810  0.27461  1.0000
  C   C534      1.0  0.29535  0.68175  0.49227  1.0000
  H   H919      1.0  0.44884  0.56665  0.56329  1.0000
  C   C535      1.0  0.31742  0.74205  0.12071  1.0000
  H   H920      1.0  0.31108  0.55036  0.37230  1.0000
  H   H921      1.0  0.26201  0.72461  0.35227  1.0000
  C   C536      1.0  0.32206  0.55317  0.23555  1.0000
  H   H922      1.0  0.31186  0.56327  0.23127  1.0000
  H   H923      1.0  0.24917  0.70471  0.28510  1.0000
  C   C537      1.0  0.46753  0.63393  0.88978  1.0000
  C   C538      1.0  0.48907  0.50377  0.84051  1.0000
  C   C539      1.0  0.41679  0.49454  0.14892  1.0000
  S   S166      1.0  0.38451  0.49462  0.26163  1.0000
  C   C540      1.0  0.43088  0.53097  0.49564  1.0000
  H   H924      1.0  0.28882  0.50159  0.31268  1.0000
  H   H925      1.0  0.44850  0.49760  0.21340  1.0000
  H   H926      1.0  0.31583  0.66911  0.16490  1.0000
  H   H927      1.0  0.46764  0.54669  0.59025  1.0000
  C   C541      1.0  0.42760  0.51269  0.37659  1.0000
  C   C542      1.0  0.47869  0.52278  0.14467  1.0000
  H   H928      1.0  0.33277  0.64633  0.10969  1.0000
  S   S167      1.0  0.46802  0.51421  0.44488  1.0000
  H   H929      1.0  0.43545  0.52026  0.54908  1.0000
  H   H930      1.0  0.32724  0.53319  0.36725  1.0000
  C   C543      1.0  0.31530  0.53746  0.25723  1.0000
  C   C544      1.0  0.44031  0.50987  0.09948  1.0000
  C   C545      1.0  0.31888  0.71770  0.45730  1.0000
  H   H931      1.0  0.48966  0.59185  0.87080  1.0000
  C   C546      1.0  0.32348  0.54654  0.35884  1.0000
  H   H932      1.0  0.46452  0.49438  0.86067  1.0000
  H   H933      1.0  0.47453  0.53569  0.50404  1.0000
  H   H934      1.0  0.43629  0.56286  0.52515  1.0000
  H   H935      1.0  0.34930  0.73329  0.81124  1.0000
  C   C547      1.0  0.44140  0.55650  0.55067  1.0000
  C   C548      1.0  0.46350  0.53550  0.57474  1.0000
  H   H936      1.0  0.47564  0.52859  0.56570  1.0000
  H   H937      1.0  0.31191  0.71699  0.82645  1.0000
  H   H938      1.0  0.45257  0.51624  0.51772  1.0000
  C   C549      1.0  0.44336  0.52655  0.52729  1.0000
  Fe  Fe86      1.0  0.40724  0.73606  0.59109  1.0000
  C   C550      1.0  0.46565  0.54664  0.51155  1.0000
  H   H939      1.0  0.43748  0.53591  0.47043  1.0000
  C   C551      1.0  0.48819  0.66170  0.68223  1.0000
  H   H940      1.0  0.29671  0.72779  0.79854  1.0000
  H   H941      1.0  0.33618  0.54327  0.30685  1.0000
  H   H942      1.0  0.42474  0.51907  0.48753  1.0000
  H   H943      1.0  0.42038  0.54013  0.50419  1.0000
  H   H944      1.0  0.27889  0.52073  0.29404  1.0000
  H   H945      1.0  0.29709  0.66796  0.48628  1.0000
  H   H946      1.0  0.45899  0.55049  0.48576  1.0000
  C   C552      1.0  0.30540  0.52331  0.31376  1.0000
  H   H947      1.0  0.28502  0.71328  0.85673  1.0000
  H   H948      1.0  0.47451  0.52862  0.11798  1.0000
  H   H949      1.0  0.32663  0.54906  0.20776  1.0000
  H   H950      1.0  0.33339  0.55480  0.36980  1.0000
  Fe  Fe87      1.0  0.48469  0.49745  0.48252  1.0000
  C   C553      1.0  0.48504  0.66198  0.72034  1.0000
  H   H951      1.0  0.25912  0.74138  0.20263  1.0000
  H   H952      1.0  0.49633  0.53167  0.79601  1.0000
  C   C554      1.0  0.42613  0.55344  0.57769  1.0000
  H   H953      1.0  0.48754  0.51532  0.85783  1.0000
  H   H954      1.0  0.33067  0.64423  0.15835  1.0000
  H   H955      1.0  0.33325  0.55864  0.24879  1.0000
  H   H956      1.0  0.27006  0.68725  0.24973  1.0000
  H   H957      1.0  0.32098  0.66327  0.21263  1.0000
  H   H958      1.0  0.46312  0.60514  0.84713  1.0000
  H   H959      1.0  0.45669  0.63004  0.90828  1.0000
  N   N35       1.0  0.45306  0.54127  0.54169  1.0000
  H   H960      1.0  0.29543  0.50875  0.26793  1.0000
  H   H961      1.0  0.30165  0.52415  0.34331  1.0000
  C   C555      1.0  0.28952  0.72659  0.85620  1.0000
  H   H962      1.0  0.44217  0.52781  0.61294  1.0000
  C   C556      1.0  0.45058  0.50668  0.42035  1.0000
  H   H963      1.0  0.47970  0.61136  0.91514  1.0000
  H   H964      1.0  0.36107  0.74213  0.49071  1.0000
  H   H965      1.0  0.28379  0.68307  0.51079  1.0000
  C   C557      1.0  0.47336  0.67456  0.73446  1.0000
  H   H966      1.0  0.46757  0.52419  0.16428  1.0000
  N   N36       1.0  0.32766  0.68882  0.48972  1.0000
  C   C558      1.0  0.33240  0.67056  0.47967  1.0000
  C   C559      1.0  0.31096  0.68870  0.51184  1.0000
  C   C560      1.0  0.34194  0.69518  0.51290  1.0000
  C   C561      1.0  0.32591  0.69914  0.45424  1.0000
  C   C562      1.0  0.35051  0.66746  0.46178  1.0000
  C   C563      1.0  0.49641  0.55094  0.87086  1.0000
  H   H967      1.0  0.30489  0.53249  0.24041  1.0000
  C   C564      1.0  0.25262  0.70259  0.41883  1.0000
  H   H968      1.0  0.33166  0.66193  0.50453  1.0000
  H   H969      1.0  0.32318  0.66569  0.45977  1.0000
  H   H970      1.0  0.26979  0.55922  0.32568  1.0000
  H   H971      1.0  0.31272  0.68098  0.53781  1.0000
  H   H972      1.0  0.34776  0.68452  0.53000  1.0000
  H   H973      1.0  0.35271  0.69974  0.49507  1.0000
  H   H974      1.0  0.33849  0.69980  0.43921  1.0000
  H   H975      1.0  0.35211  0.67464  0.43535  1.0000
  N   N37       1.0  0.26446  0.72700  0.29261  1.0000
  H   H976      1.0  0.29230  0.68912  0.46664  1.0000
  C   C565      1.0  0.30336  0.72861  0.82530  1.0000
  H   H977      1.0  0.27805  0.73515  0.85114  1.0000
  H   H978      1.0  0.36653  0.69142  0.11636  1.0000
  H   H979      1.0  0.33489  0.71873  0.78984  1.0000
  H   H980      1.0  0.37072  0.63274  0.21905  1.0000
  H   H981      1.0  0.48281  0.55014  0.86580  1.0000
  H   H982      1.0  0.32584  0.52739  0.25670  1.0000
  H   H983      1.0  0.46316  0.63259  0.86132  1.0000
  H   H984      1.0  0.28902  0.56664  0.34598  1.0000
  C   C566      1.0  0.31322  0.73375  0.15486  1.0000
  H   H985      1.0  0.42994  0.55527  0.60661  1.0000
  H   H986      1.0  0.38396  0.65015  0.20674  1.0000
  H   H987      1.0  0.37335  0.63875  0.17131  1.0000
  S   S168      1.0  0.48961  0.53054  0.93208  1.0000
  N   N38       1.0  0.35353  0.66953  0.17424  1.0000
  C   C567      1.0  0.36955  0.67992  0.17250  1.0000
  C   C568      1.0  0.35606  0.65603  0.20421  1.0000
  C   C569      1.0  0.33864  0.68148  0.18503  1.0000
  C   C570      1.0  0.35094  0.66211  0.13682  1.0000
  C   C571      1.0  0.36944  0.69520  0.14472  1.0000
  C   C572      1.0  0.37200  0.64382  0.19950  1.0000
  C   C573      1.0  0.32094  0.67355  0.19110  1.0000
  C   C574      1.0  0.34018  0.64588  0.13555  1.0000
  H   H988      1.0  0.37221  0.68502  0.20020  1.0000
  H   H989      1.0  0.38108  0.67182  0.16467  1.0000
  H   H990      1.0  0.34487  0.64780  0.20745  1.0000
  H   H991      1.0  0.35703  0.66211  0.23152  1.0000
  H   H992      1.0  0.34153  0.68813  0.21087  1.0000
  H   H993      1.0  0.33654  0.69177  0.16373  1.0000
  H   H994      1.0  0.34492  0.67195  0.11795  1.0000
  H   H995      1.0  0.36368  0.65849  0.12385  1.0000
  H   H996      1.0  0.36035  0.70563  0.15350  1.0000
  H   H997      1.0  0.38241  0.70071  0.14354  1.0000
  C   C575      1.0  0.33723  0.70923  0.54102  1.0000
  C   C576      1.0  0.27092  0.70140  0.24956  1.0000
  H   H998      1.0  0.29446  0.72909  0.88386  1.0000
  H   H999      1.0  0.34403  0.73292  0.89010  1.0000
  C   C577      1.0  0.25520  0.73097  0.32874  1.0000
  C   C578      1.0  0.33966  0.73189  0.78956  1.0000
  C   C579      1.0  0.47702  0.56173  0.52027  1.0000
  H   H1000     1.0  0.35255  0.73231  0.19369  1.0000
  H   H1001     1.0  0.44579  0.53106  0.39276  1.0000
  H   H1002     1.0  0.30009  0.73018  0.16043  1.0000
  C   C580      1.0  0.26744  0.74138  0.22712  1.0000
  H   H1003     1.0  0.46923  0.64767  0.89521  1.0000
  H   H1004     1.0  0.30585  0.71857  0.47037  1.0000
  H   H1005     1.0  0.32786  0.72575  0.47161  1.0000
  H   H1006     1.0  0.49455  0.50340  0.11725  1.0000
  C   C581      1.0  0.49136  0.60252  0.85039  1.0000
  H   H1007     1.0  0.48256  0.50750  0.81457  1.0000
  S   S169      1.0  0.49095  0.50661  0.03526  1.0000
  H   H1008     1.0  0.42923  0.73948  0.42330  1.0000
  S   S170      1.0  0.38706  0.73477  0.54470  1.0000
  H   H1009     1.0  0.47296  0.49828  0.12499  1.0000
  H   H1010     1.0  0.41179  0.74157  0.48303  1.0000
  C   C582      1.0  0.25625  0.73783  0.26228  1.0000
  H   H1011     1.0  0.34675  0.73375  0.76283  1.0000
  C   C583      1.0  0.48398  0.50383  0.13859  1.0000
  H   H1012     1.0  0.40433  0.74206  0.78506  1.0000
  S   S171      1.0  0.49569  0.64731  0.75157  1.0000
  H   H1013     1.0  0.25282  0.74275  0.90262  1.0000
  C   C584      1.0  0.34688  0.74309  0.13940  1.0000
  H   H1014     1.0  0.45385  0.49345  0.16728  1.0000
  N   N39       1.0  0.48939  0.49362  0.17249  1.0000
  Fe  Fe88      1.0  0.32889  0.80290  0.96600  1.0000
  S   S172      1.0  0.35148  0.78546  0.98090  1.0000
  S   S173      1.0  0.32912  0.83220  0.95729  1.0000
  Fe  Fe89      1.0  0.30656  0.77253  0.94801  1.0000
  S   S174      1.0  0.28221  0.76018  0.92706  1.0000
  Fe  Fe90      1.0  0.33224  0.76906  0.01249  1.0000
  Fe  Fe91      1.0  0.34565  0.77104  0.92968  1.0000
  C   C585      1.0  0.46650  0.81191  0.56335  1.0000
  S   S175      1.0  0.30973  0.78750  0.00001  1.0000
  S   S176      1.0  0.32393  0.78912  0.91328  1.0000
  Fe  Fe92      1.0  0.43513  0.76130  0.61582  1.0000
  S   S177      1.0  0.44592  0.78593  0.58897  1.0000
  S   S178      1.0  0.40616  0.76135  0.61972  1.0000
  Fe  Fe93      1.0  0.37463  0.92328  0.00285  1.0000
  S   S179      1.0  0.37049  0.94412  0.04478  1.0000
  S   S180      1.0  0.37105  0.89468  0.01771  1.0000
  Fe  Fe94      1.0  0.39404  0.94799  0.95034  1.0000
  S   S181      1.0  0.39133  0.97026  0.98841  1.0000
  S   S182      1.0  0.40971  0.94600  0.89681  1.0000
  Fe  Fe95      1.0  0.39809  0.95126  0.03431  1.0000
  S   S183      1.0  0.42132  0.95119  0.07306  1.0000
  Fe  Fe96      1.0  0.36379  0.96177  0.99603  1.0000
  H   H1015     1.0  0.28361  0.75132  0.33733  1.0000
  S   S184      1.0  0.40242  0.92959  0.99511  1.0000
  S   S185      1.0  0.36628  0.94040  0.95506  1.0000
  S   S186      1.0  0.38820  0.75674  0.71759  1.0000
  H   H1016     1.0  0.44434  0.79759  0.45188  1.0000
  H   H1017     1.0  0.27187  0.96077  0.89978  1.0000
  H   H1018     1.0  0.28030  0.75872  0.29020  1.0000
  H   H1019     1.0  0.48820  0.97074  0.54721  1.0000
  S   S187      1.0  0.47477  0.98367  0.74078  1.0000
  H   H1020     1.0  0.42598  0.77878  0.52918  1.0000
  H   H1021     1.0  0.47903  0.96491  0.94647  1.0000
  C   C586      1.0  0.42855  0.96076  0.11399  1.0000
  C   C587      1.0  0.44469  0.95534  0.12793  1.0000
  C   C588      1.0  0.45124  0.96259  0.15980  1.0000
  C   C589      1.0  0.44148  0.97502  0.17908  1.0000
  C   C590      1.0  0.42517  0.98018  0.16556  1.0000
  C   C591      1.0  0.41883  0.97329  0.13302  1.0000
  H   H1022     1.0  0.45220  0.94540  0.11406  1.0000
  C   C592      1.0  0.26434  0.98804  0.94122  1.0000
  H   H1023     1.0  0.49212  0.90250  0.49710  1.0000
  H   H1024     1.0  0.40636  0.97758  0.12298  1.0000
  C   C593      1.0  0.42446  0.96140  0.88149  1.0000
  C   C594      1.0  0.43723  0.95681  0.85510  1.0000
  C   C595      1.0  0.44940  0.96863  0.84265  1.0000
  H   H1025     1.0  0.47492  0.94938  0.45847  1.0000
  S   S188      1.0  0.32822  0.75341  0.96207  1.0000
  C   C596      1.0  0.42368  0.97805  0.89478  1.0000
  H   H1026     1.0  0.43781  0.94399  0.84449  1.0000
  H   H1027     1.0  0.45931  0.96486  0.82265  1.0000
  S   S189      1.0  0.43783  0.74836  0.67198  1.0000
  H   H1028     1.0  0.48188  0.83293  0.54331  1.0000
  S   S190      1.0  0.34064  0.75734  0.06958  1.0000
  H   H1029     1.0  0.36965  0.80636  0.83712  1.0000
  C   C597      1.0  0.44239  0.98092  0.99170  1.0000
  S   S191      1.0  0.36783  0.76132  0.89085  1.0000
  H   H1030     1.0  0.48225  0.96984  0.46814  1.0000
  H   H1031     1.0  0.46757  0.76170  0.49487  1.0000
  C   C598      1.0  0.37330  0.76044  0.84249  1.0000
  C   C599      1.0  0.45666  0.95240  0.99364  1.0000
  C   C600      1.0  0.26045  0.78506  0.89358  1.0000
  C   C601      1.0  0.46535  0.79757  0.58746  1.0000
  H   H1032     1.0  0.39589  0.74415  0.85149  1.0000
  H   H1033     1.0  0.41549  0.98894  0.74810  1.0000
  H   H1034     1.0  0.48950  0.91801  0.55325  1.0000
  C   C602      1.0  0.44876  0.98519  0.85630  1.0000
  C   C603      1.0  0.47942  0.79317  0.60961  1.0000
  C   C604      1.0  0.48715  0.92608  0.52793  1.0000
  H   H1035     1.0  0.49244  0.93417  0.34700  1.0000
  H   H1036     1.0  0.47877  0.78225  0.62838  1.0000
  C   C605      1.0  0.34100  0.84930  0.97464  1.0000
  C   C606      1.0  0.35259  0.84697  0.00346  1.0000
  C   C607      1.0  0.36168  0.86096  0.01597  1.0000
  C   C608      1.0  0.35946  0.87747  0.99984  1.0000
  C   C609      1.0  0.34808  0.87972  0.97065  1.0000
  C   C610      1.0  0.33890  0.86576  0.95830  1.0000
  H   H1037     1.0  0.35439  0.83444  0.01639  1.0000
  H   H1038     1.0  0.37042  0.85900  0.03857  1.0000
  H   H1039     1.0  0.34617  0.89227  0.95791  1.0000
  H   H1040     1.0  0.33001  0.86777  0.93598  1.0000
  C   C611      1.0  0.48135  0.82185  0.56167  1.0000
  C   C612      1.0  0.36349  0.76901  0.81539  1.0000
  C   C613      1.0  0.36830  0.76774  0.77760  1.0000
  H   H1041     1.0  0.35223  0.77666  0.82348  1.0000
  H   H1042     1.0  0.36057  0.77442  0.75702  1.0000
  C   C614      1.0  0.26327  0.76785  0.90388  1.0000
  C   C615      1.0  0.33434  0.74683  0.11252  1.0000
  C   C616      1.0  0.28303  0.98178  0.86950  1.0000
  H   H1043     1.0  0.47518  0.98993  0.01452  1.0000
  H   H1044     1.0  0.45159  0.94329  0.93766  1.0000
  C   C617      1.0  0.38306  0.75801  0.76606  1.0000
  H   H1045     1.0  0.34061  0.98672  0.92322  1.0000
  H   H1046     1.0  0.37968  0.87276  0.90048  1.0000
  H   H1047     1.0  0.26989  0.79428  0.90009  1.0000
  H   H1048     1.0  0.31203  0.78001  0.78935  1.0000
  H   H1049     1.0  0.38873  0.77052  0.51199  1.0000
  H   H1050     1.0  0.36232  0.83698  0.85250  1.0000
  N   N40       1.0  0.37868  0.82770  0.89744  1.0000
  C   C618      1.0  0.46753  0.97374  0.95009  1.0000
  H   H1051     1.0  0.41418  0.98785  0.79776  1.0000
  C   C619      1.0  0.44517  0.94427  0.96522  1.0000
  H   H1052     1.0  0.34710  0.81141  0.84161  1.0000
  N   N41       1.0  0.25462  0.98277  0.90801  1.0000
  H   H1053     1.0  0.45183  0.76227  0.53122  1.0000
  C   C620      1.0  0.26709  0.97239  0.88417  1.0000
  H   H1054     1.0  0.40800  0.78512  0.44515  1.0000
  H   H1055     1.0  0.47504  0.93340  0.53430  1.0000
  C   C621      1.0  0.48128  0.95666  0.47993  1.0000
  H   H1056     1.0  0.37630  0.80198  0.92085  1.0000
  C   C622      1.0  0.49039  0.96002  0.56729  1.0000
  H   H1057     1.0  0.39799  0.75750  0.46227  1.0000
  C   C623      1.0  0.30761  0.77761  0.81829  1.0000
  H   H1058     1.0  0.44246  0.93099  0.97453  1.0000
  H   H1059     1.0  0.48369  0.92002  0.46898  1.0000
  C   C624      1.0  0.49528  0.81766  0.58435  1.0000
  S   S192      1.0  0.47871  0.99236  0.30673  1.0000
  C   C625      1.0  0.42286  0.99009  0.77344  1.0000
  H   H1060     1.0  0.39665  0.78205  0.54910  1.0000
  H   H1061     1.0  0.41367  0.98179  0.91456  1.0000
  H   H1062     1.0  0.47828  0.95345  0.57389  1.0000
  H   H1063     1.0  0.46814  0.95892  0.06421  1.0000
  C   C626      1.0  0.44140  0.75866  0.47652  1.0000
  C   C627      1.0  0.43074  0.79782  0.46209  1.0000
  H   H1064     1.0  0.29727  0.78741  0.82450  1.0000
  H   H1065     1.0  0.31829  0.77965  0.83711  1.0000
  H   H1066     1.0  0.29179  0.76023  0.84845  1.0000
  Fe  Fe97      1.0  0.40861  0.74694  0.67411  1.0000
  H   H1067     1.0  0.36383  0.81807  0.94431  1.0000
  H   H1068     1.0  0.49422  0.96587  0.59335  1.0000
  H   H1069     1.0  0.39432  0.84701  0.92079  1.0000
  C   C628      1.0  0.41611  0.74554  0.42487  1.0000
  H   H1070     1.0  0.43506  0.98002  0.96596  1.0000
  H   H1071     1.0  0.45431  0.78061  0.50075  1.0000
  H   H1072     1.0  0.41728  0.75847  0.53314  1.0000
  H   H1073     1.0  0.40591  0.82272  0.82041  1.0000
  C   C629      1.0  0.42171  0.78156  0.45092  1.0000
  C   C630      1.0  0.45432  0.76650  0.50225  1.0000
  C   C631      1.0  0.41717  0.77032  0.51556  1.0000
  C   C632      1.0  0.38080  0.84539  0.91235  1.0000
  H   H1074     1.0  0.29044  0.97345  0.84992  1.0000
  H   H1075     1.0  0.46365  0.95824  0.17004  1.0000
  H   H1076     1.0  0.37278  0.84721  0.93787  1.0000
  H   H1077     1.0  0.35745  0.79960  0.87776  1.0000
  H   H1078     1.0  0.49098  0.90662  0.38257  1.0000
  H   H1079     1.0  0.39064  0.82823  0.97321  1.0000
  C   C633      1.0  0.36254  0.82727  0.87521  1.0000
  H   H1080     1.0  0.26087  0.96735  0.85977  1.0000
  C   C634      1.0  0.39838  0.83143  0.83906  1.0000
  C   C635      1.0  0.37579  0.86088  0.88724  1.0000
  C   C636      1.0  0.47326  0.99182  0.93920  1.0000
  S   S193      1.0  0.44840  0.98351  0.22146  1.0000
  C   C637      1.0  0.41163  0.75271  0.46336  1.0000
  H   H1081     1.0  0.29186  0.98439  0.89204  1.0000
  H   H1082     1.0  0.47275  0.95763  0.50462  1.0000
  H   H1083     1.0  0.47000  0.90897  0.50128  1.0000
  H   H1084     1.0  0.35103  0.83075  0.89276  1.0000
  C   C638      1.0  0.37646  0.81546  0.92993  1.0000
  C   C639      1.0  0.39452  0.82182  0.87575  1.0000
  S   S194      1.0  0.33998  0.98003  0.00375  1.0000
  C   C640      1.0  0.38810  0.75080  0.83099  1.0000
  C   C641      1.0  0.35924  0.81009  0.85716  1.0000
  H   H1085     1.0  0.43427  0.97479  0.01367  1.0000
  H   H1086     1.0  0.27190  0.97695  0.95333  1.0000
  C   C642      1.0  0.43578  0.98991  0.88214  1.0000
  H   H1087     1.0  0.42726  0.77837  0.42327  1.0000
  H   H1088     1.0  0.45038  0.94976  0.02096  1.0000
  C   C643      1.0  0.48314  0.91385  0.49676  1.0000
  H   H1089     1.0  0.44721  0.75920  0.44817  1.0000
  H   H1090     1.0  0.39448  0.80785  0.87024  1.0000
  H   H1091     1.0  0.35999  0.74673  0.13379  1.0000
  H   H1092     1.0  0.39800  0.79131  0.50386  1.0000
  H   H1093     1.0  0.38676  0.83526  0.82350  1.0000
  H   H1094     1.0  0.40604  0.84286  0.84368  1.0000
  N   N42       1.0  0.45957  0.97130  0.98813  1.0000
  H   H1095     1.0  0.43253  0.95122  0.96269  1.0000
  C   C644      1.0  0.39032  0.81567  0.95972  1.0000
  Fe  Fe98      1.0  0.47513  0.98707  0.24591  1.0000
  H   H1096     1.0  0.42387  0.80923  0.44989  1.0000
  H   H1097     1.0  0.45843  0.97035  0.92853  1.0000
  H   H1098     1.0  0.45572  0.81551  0.54614  1.0000
  H   H1099     1.0  0.40623  0.82297  0.89236  1.0000
  N   N43       1.0  0.31327  0.74481  0.82607  1.0000
  N   N44       1.0  0.42318  0.76624  0.47678  1.0000
  H   H1100     1.0  0.40370  0.87236  0.14691  1.0000
  H   H1101     1.0  0.43035  0.80003  0.49209  1.0000
  C   C645      1.0  0.39908  0.77903  0.51961  1.0000
  H   H1102     1.0  0.27259  0.75442  0.22748  1.0000
  H   H1103     1.0  0.40330  0.81187  0.94874  1.0000
  H   H1104     1.0  0.38708  0.80615  0.98180  1.0000
  H   H1105     1.0  0.38218  0.86047  0.85972  1.0000
  H   H1106     1.0  0.36159  0.86215  0.88436  1.0000
  H   H1107     1.0  0.46917  0.94492  0.99370  1.0000
  C   C646      1.0  0.25077  0.75611  0.89502  1.0000
  N   N45       1.0  0.39511  0.90843  0.13273  1.0000
  C   C647      1.0  0.39340  0.92674  0.14507  1.0000
  C   C648      1.0  0.38171  0.90609  0.10409  1.0000
  C   C649      1.0  0.41305  0.90552  0.11606  1.0000
  C   C650      1.0  0.39238  0.89689  0.16609  1.0000
  C   C651      1.0  0.40688  0.93211  0.17276  1.0000
  C   C652      1.0  0.36278  0.90986  0.11607  1.0000
  C   C653      1.0  0.41523  0.89286  0.08403  1.0000
  C   C654      1.0  0.39145  0.87765  0.15884  1.0000
  H   H1108     1.0  0.39407  0.93574  0.12078  1.0000
  H   H1109     1.0  0.38066  0.92947  0.15874  1.0000
  H   H1110     1.0  0.38225  0.89286  0.09367  1.0000
  H   H1111     1.0  0.38447  0.91435  0.07946  1.0000
  H   H1112     1.0  0.41805  0.91767  0.10418  1.0000
  H   H1113     1.0  0.42240  0.90140  0.13761  1.0000
  H   H1114     1.0  0.40294  0.89805  0.18591  1.0000
  H   H1115     1.0  0.38037  0.90086  0.18147  1.0000
  H   H1116     1.0  0.42030  0.93019  0.16217  1.0000
  H   H1117     1.0  0.40490  0.94601  0.17786  1.0000
  H   H1118     1.0  0.40535  0.92547  0.19990  1.0000
  H   H1119     1.0  0.35890  0.90226  0.14083  1.0000
  H   H1120     1.0  0.36004  0.92369  0.12036  1.0000
  H   H1121     1.0  0.35436  0.90624  0.09338  1.0000
  H   H1122     1.0  0.40935  0.89834  0.05851  1.0000
  H   H1123     1.0  0.40972  0.88028  0.09029  1.0000
  H   H1124     1.0  0.42917  0.89063  0.07760  1.0000
  H   H1125     1.0  0.38051  0.87477  0.14123  1.0000
  H   H1126     1.0  0.38929  0.87074  0.18556  1.0000
  H   H1127     1.0  0.43249  0.97921  0.77374  1.0000
  H   H1128     1.0  0.44147  0.74480  0.48465  1.0000
  H   H1129     1.0  0.48489  0.96932  0.01183  1.0000
  H   H1130     1.0  0.41739  0.98966  0.18033  1.0000
  H   H1131     1.0  0.48010  0.99120  0.91199  1.0000
  C   C655      1.0  0.39295  0.74958  0.79320  1.0000
  H   H1132     1.0  0.45330  0.97737  0.06309  1.0000
  C   C656      1.0  0.46671  0.97275  0.05703  1.0000
  C   C657      1.0  0.30024  0.75964  0.82326  1.0000
  C   C658      1.0  0.47223  0.97622  0.01657  1.0000
  H   H1133     1.0  0.33339  0.75585  0.85713  1.0000
  H   H1134     1.0  0.29141  0.75794  0.79996  1.0000
  H   H1135     1.0  0.41451  0.75542  0.40268  1.0000
  C   C659      1.0  0.49422  0.80319  0.60812  1.0000
  H   H1136     1.0  0.33173  0.75800  0.79090  1.0000
  H   H1137     1.0  0.25222  0.75066  0.27289  1.0000
  C   C660      1.0  0.32507  0.74570  0.79245  1.0000
  H   H1138     1.0  0.31444  0.75157  0.88335  1.0000
  H   H1139     1.0  0.47524  0.97948  0.07556  1.0000
  H   H1140     1.0  0.31747  0.74533  0.76682  1.0000
  C   C661      1.0  0.32315  0.74639  0.86110  1.0000
  C   C662      1.0  0.28702  0.74901  0.30793  1.0000
  C   C663      1.0  0.32690  0.99316  0.97349  1.0000
  H   H1141     1.0  0.43742  0.99201  0.70508  1.0000
  H   H1142     1.0  0.30109  0.75087  0.30450  1.0000
  H   H1143     1.0  0.30753  0.74476  0.10069  1.0000
  H   H1144     1.0  0.25524  0.74490  0.33422  1.0000
  H   H1145     1.0  0.57123  0.00511  0.07185  1.0000
  Fe  Fe99      1.0  0.51945  0.99945  0.76716  1.0000
  H   H1146     1.0  0.58965  0.19698  0.44651  1.0000
  Fe  Fe100     1.0  0.61533  0.04978  0.98406  1.0000
  S   S195      1.0  0.63249  0.03541  0.02419  1.0000
  S   S196      1.0  0.61295  0.07846  0.96798  1.0000
  Fe  Fe101     1.0  0.59657  0.01687  0.96664  1.0000
  H   H1147     1.0  0.50007  0.05500  0.60531  1.0000
  C   C664      1.0  0.51556  0.15826  0.57351  1.0000
  Fe  Fe102     1.0  0.60876  0.02172  0.04459  1.0000
  S   S197      1.0  0.60203  0.01761  0.10611  1.0000
  Fe  Fe103     1.0  0.63522  0.01498  0.98092  1.0000
  H   H1148     1.0  0.63040  0.23479  0.92672  1.0000
  S   S198      1.0  0.59152  0.03759  0.00780  1.0000
  S   S199      1.0  0.61899  0.03006  0.93973  1.0000
  C   C665      1.0  0.59971  0.21829  0.98065  1.0000
  S   S200      1.0  0.55289  0.24077  0.59804  1.0000
  C   C666      1.0  0.51910  0.20152  0.68211  1.0000
  Fe  Fe104     1.0  0.64661  0.19968  0.92404  1.0000
  S   S201      1.0  0.66844  0.18002  0.91647  1.0000
  S   S202      1.0  0.62432  0.20545  0.88374  1.0000
  Fe  Fe105     1.0  0.65627  0.20663  0.00605  1.0000
  S   S203      1.0  0.67829  0.18717  0.00297  1.0000
  S   S204      1.0  0.64664  0.22308  0.05606  1.0000
  Fe  Fe106     1.0  0.68456  0.19835  0.94650  1.0000
  S   S205      1.0  0.71254  0.20594  0.93527  1.0000
  Fe  Fe107     1.0  0.66071  0.16996  0.97312  1.0000
  S   S206      1.0  0.66290  0.14117  0.98809  1.0000
  S   S207      1.0  0.66322  0.21883  0.95069  1.0000
  S   S208      1.0  0.63815  0.18861  0.97970  1.0000
  Fe  Fe108     1.0  0.56208  0.21583  0.62375  1.0000
  S   S209      1.0  0.55240  0.18930  0.61006  1.0000
  H   H1149     1.0  0.56241  0.24242  0.47086  1.0000
  S   S210      1.0  0.61000  0.22969  0.71532  1.0000
  S   S211      1.0  0.56008  0.22557  0.68185  1.0000
  S   S212      1.0  0.59030  0.22177  0.61785  1.0000
  Fe  Fe109     1.0  0.58753  0.23340  0.67450  1.0000
  S   S213      1.0  0.57221  0.00644  0.94362  1.0000
  H   H1150     1.0  0.60135  0.21365  0.95212  1.0000
  C   C667      1.0  0.65373  0.23063  0.09979  1.0000
  H   H1151     1.0  0.51513  0.08983  0.58659  1.0000
  C   C668      1.0  0.58764  0.19043  0.53597  1.0000
  H   H1152     1.0  0.51947  0.22716  0.66042  1.0000
  C   C669      1.0  0.52989  0.06791  0.16630  1.0000
  C   C670      1.0  0.62075  0.21218  0.83670  1.0000
  C   C671      1.0  0.63413  0.21670  0.81222  1.0000
  C   C672      1.0  0.63055  0.22202  0.77548  1.0000
  C   C673      1.0  0.61357  0.22289  0.76235  1.0000
  C   C674      1.0  0.60018  0.21845  0.78692  1.0000
  C   C675      1.0  0.60376  0.21320  0.82371  1.0000
  H   H1153     1.0  0.64726  0.21606  0.82150  1.0000
  H   H1154     1.0  0.58707  0.21902  0.77753  1.0000
  H   H1155     1.0  0.63168  0.22852  0.45957  1.0000
  C   C676      1.0  0.72807  0.18662  0.87884  1.0000
  C   C677      1.0  0.73018  0.19788  0.90763  1.0000
  C   C678      1.0  0.67569  0.23526  0.14567  1.0000
  H   H1156     1.0  0.71532  0.18256  0.87278  1.0000
  H   H1157     1.0  0.69663  0.15652  0.89264  1.0000
  C   C679      1.0  0.52596  0.19181  0.55884  1.0000
  C   C680      1.0  0.53458  0.18180  0.58565  1.0000
  C   C681      1.0  0.52929  0.16500  0.59271  1.0000
  H   H1158     1.0  0.54676  0.07513  0.12022  1.0000
  H   H1159     1.0  0.52986  0.20473  0.55293  1.0000
  C   C682      1.0  0.54504  0.06389  0.13907  1.0000
  H   H1160     1.0  0.53586  0.15710  0.61327  1.0000
  H   H1161     1.0  0.54545  0.04361  0.27747  1.0000
  H   H1162     1.0  0.55744  0.06155  0.15316  1.0000
  S   S214      1.0  0.61297  0.00024  0.00470  1.0000
  H   H1163     1.0  0.53621  0.03251  0.16387  1.0000
  H   H1164     1.0  0.50837  0.08092  0.62977  1.0000
  C   C683      1.0  0.64169  0.23909  0.12359  1.0000
  H   H1165     1.0  0.52935  0.00025  0.84890  1.0000
  C   C684      1.0  0.58464  0.22363  0.43155  1.0000
  C   C685      1.0  0.50931  0.05918  0.21467  1.0000
  H   H1166     1.0  0.69626  0.15692  0.96875  1.0000
  C   C686      1.0  0.69866  0.14260  0.88886  1.0000
  C   C687      1.0  0.62713  0.09566  0.97382  1.0000
  C   C688      1.0  0.62220  0.11220  0.96064  1.0000
  C   C689      1.0  0.63290  0.12624  0.96471  1.0000
  C   C690      1.0  0.64874  0.12397  0.98210  1.0000
  C   C691      1.0  0.65370  0.10742  0.99514  1.0000
  C   C692      1.0  0.64301  0.09338  0.99105  1.0000
  H   H1167     1.0  0.60998  0.11419  0.94728  1.0000
  H   H1168     1.0  0.62884  0.13882  0.95449  1.0000
  H   H1169     1.0  0.66585  0.10545  0.00877  1.0000
  H   H1170     1.0  0.64702  0.08081  0.00142  1.0000
  H   H1171     1.0  0.64105  0.22541  0.75694  1.0000
  H   H1172     1.0  0.70763  0.11963  0.91740  1.0000
  C   C693      1.0  0.61303  0.23144  0.99023  1.0000
  H   H1173     1.0  0.50278  0.22206  0.58311  1.0000
  C   C694      1.0  0.58164  0.01115  0.12415  1.0000
  H   H1174     1.0  0.52801  0.07292  0.60868  1.0000
  C   C695      1.0  0.52388  0.03717  0.17692  1.0000
  C   C696      1.0  0.51246  0.18494  0.53908  1.0000
  H   H1175     1.0  0.60040  0.19205  0.52229  1.0000
  H   H1176     1.0  0.53988  0.99970  0.91292  1.0000
  C   C697      1.0  0.74248  0.18081  0.85747  1.0000
  H   H1177     1.0  0.53327  0.20059  0.68541  1.0000
  C   C698      1.0  0.71020  0.15784  0.96145  1.0000
  C   C699      1.0  0.67083  0.22880  0.11130  1.0000
  C   C700      1.0  0.73099  0.22755  0.79442  1.0000
  N   N46       1.0  0.51268  0.05586  0.55091  1.0000
  C   C701      1.0  0.55735  0.23739  0.49749  1.0000
  C   C702      1.0  0.65142  0.99420  0.07344  1.0000
  H   H1178     1.0  0.57962  0.01360  0.80862  1.0000
  C   C703      1.0  0.52396  0.06414  0.48502  1.0000
  H   H1179     1.0  0.52819  0.07563  0.46918  1.0000
  C   C704      1.0  0.51473  0.07767  0.60293  1.0000
  C   C705      1.0  0.62491  0.24065  0.46425  1.0000
  C   C706      1.0  0.53027  0.03667  0.59767  1.0000
  H   H1180     1.0  0.68349  0.00302  0.07009  1.0000
  H   H1181     1.0  0.50425  0.07757  0.51675  1.0000
  H   H1182     1.0  0.51841  0.07130  0.14947  1.0000
  C   C707      1.0  0.54983  0.00000  0.15508  1.0000
  H   H1183     1.0  0.58002  0.22547  0.52134  1.0000
  H   H1184     1.0  0.58825  0.17795  0.55126  1.0000
  H   H1185     1.0  0.59325  0.20975  0.84216  1.0000
  H   H1186     1.0  0.56103  0.18706  0.52432  1.0000
  H   H1187     1.0  0.53771  0.02440  0.59395  1.0000
  H   H1188     1.0  0.72184  0.22886  0.77136  1.0000
  H   H1189     1.0  0.51168  0.14533  0.57942  1.0000
  H   H1190     1.0  0.51419  0.05834  0.46789  1.0000
  H   H1191     1.0  0.71942  0.17899  0.99266  1.0000
  H   H1192     1.0  0.54341  0.23505  0.49546  1.0000
  H   H1193     1.0  0.54259  0.05293  0.12133  1.0000
  C   C708      1.0  0.51624  0.06986  0.52261  1.0000
  H   H1194     1.0  0.60159  0.20685  0.99908  1.0000
  H   H1195     1.0  0.53313  0.03724  0.53811  1.0000
  H   H1196     1.0  0.51776  0.03332  0.61040  1.0000
  H   H1197     1.0  0.53757  0.04385  0.61777  1.0000
  H   H1198     1.0  0.73356  0.24050  0.80396  1.0000
  H   H1199     1.0  0.55274  0.04785  0.20571  1.0000
  H   H1200     1.0  0.53537  0.05532  0.48786  1.0000
  C   C709      1.0  0.57693  0.01032  0.86777  1.0000
  S   S215      1.0  0.66292  0.00603  0.96511  1.0000
  H   H1201     1.0  0.50607  0.19270  0.51804  1.0000
  H   H1202     1.0  0.71026  0.16289  0.02090  1.0000
  N   N47       1.0  0.56991  0.20656  0.48547  1.0000
  H   H1203     1.0  0.73179  0.15996  0.00162  1.0000
  C   C710      1.0  0.70667  0.12358  0.00452  1.0000
  H   H1204     1.0  0.61029  0.23441  0.01963  1.0000
  H   H1205     1.0  0.68896  0.23369  0.15388  1.0000
  H   H1206     1.0  0.71178  0.11627  0.02876  1.0000
  H   H1207     1.0  0.59383  0.22058  0.40846  1.0000
  C   C711      1.0  0.70364  0.13297  0.92493  1.0000
  H   H1208     1.0  0.68634  0.13773  0.87916  1.0000
  H   H1209     1.0  0.50972  0.02371  0.13655  1.0000
  H   H1210     1.0  0.54262  0.20231  0.48364  1.0000
  H   H1211     1.0  0.71082  0.16788  0.93931  1.0000
  C   C712      1.0  0.52946  0.04651  0.56005  1.0000
  S   S216      1.0  0.51925  0.99967  0.28391  1.0000
  C   C713      1.0  0.56889  0.00543  0.10137  1.0000
  H   H1212     1.0  0.73214  0.13268  0.99542  1.0000
  H   H1213     1.0  0.61332  0.23223  0.51636  1.0000
  H   H1214     1.0  0.52319  0.21140  0.62663  1.0000
  H   H1215     1.0  0.52076  0.02719  0.19813  1.0000
  C   C714      1.0  0.73289  0.14321  0.92255  1.0000
  H   H1216     1.0  0.69142  0.13184  0.94127  1.0000
  H   H1217     1.0  0.72713  0.11606  0.96647  1.0000
  H   H1218     1.0  0.52542  0.07901  0.53327  1.0000
  H   H1219     1.0  0.51340  0.20552  0.70901  1.0000
  H   H1220     1.0  0.49721  0.07705  0.25321  1.0000
  C   C715      1.0  0.72176  0.12825  0.97811  1.0000
  C   C716      1.0  0.50978  0.03681  0.14781  1.0000
  C   C717      1.0  0.51040  0.07370  0.24243  1.0000
  H   H1221     1.0  0.69976  0.23659  0.40337  1.0000
  H   H1222     1.0  0.50364  0.04806  0.22957  1.0000
  H   H1223     1.0  0.74066  0.17220  0.83511  1.0000
  H   H1224     1.0  0.54391  0.02639  0.24545  1.0000
  H   H1225     1.0  0.54353  0.99526  0.09877  1.0000
  H   H1226     1.0  0.58833  0.23591  0.44332  1.0000
  N   N48       1.0  0.57280  0.06275  0.87892  1.0000
  C   C718      1.0  0.57461  0.05419  0.91651  1.0000
  C   C719      1.0  0.58926  0.05881  0.85725  1.0000
  C   C720      1.0  0.55763  0.05524  0.86055  1.0000
  C   C721      1.0  0.56975  0.08166  0.88467  1.0000
  C   C722      1.0  0.55806  0.05401  0.94113  1.0000
  C   C723      1.0  0.60566  0.06642  0.87207  1.0000
  C   C724      1.0  0.55728  0.05607  0.81804  1.0000
  C   C725      1.0  0.56927  0.09338  0.84990  1.0000
  H   H1227     1.0  0.57929  0.04064  0.91386  1.0000
  H   H1228     1.0  0.58446  0.06038  0.93288  1.0000
  H   H1229     1.0  0.58851  0.06332  0.82816  1.0000
  H   H1230     1.0  0.59161  0.04470  0.85564  1.0000
  H   H1231     1.0  0.55681  0.04138  0.86792  1.0000
  H   H1232     1.0  0.54528  0.06131  0.87084  1.0000
  H   H1233     1.0  0.55720  0.08416  0.89931  1.0000
  H   H1234     1.0  0.57923  0.08672  0.90389  1.0000
  H   H1235     1.0  0.56103  0.04726  0.96758  1.0000
  H   H1236     1.0  0.55325  0.06707  0.94811  1.0000
  H   H1237     1.0  0.54772  0.04679  0.92885  1.0000
  H   H1238     1.0  0.60474  0.08059  0.87279  1.0000
  H   H1239     1.0  0.60883  0.06118  0.89973  1.0000
  H   H1240     1.0  0.61678  0.06292  0.85358  1.0000
  H   H1241     1.0  0.55868  0.06913  0.80642  1.0000
  H   H1242     1.0  0.54469  0.05154  0.80905  1.0000
  H   H1243     1.0  0.56727  0.04725  0.80575  1.0000
  H   H1244     1.0  0.55606  0.09452  0.83884  1.0000
  H   H1245     1.0  0.57848  0.08933  0.82784  1.0000
  H   H1246     1.0  0.57328  0.10633  0.85723  1.0000
  H   H1247     1.0  0.51567  0.08543  0.22957  1.0000
  H   H1248     1.0  0.54415  0.06477  0.23194  1.0000
  C   C726      1.0  0.50407  0.06437  0.58378  1.0000
  N   N49       1.0  0.71727  0.14089  0.94744  1.0000
  C   C727      1.0  0.71862  0.16489  0.99601  1.0000
  H   H1249     1.0  0.65511  0.00647  0.06007  1.0000
  H   H1250     1.0  0.51807  0.06959  0.26671  1.0000
  C   C728      1.0  0.54861  0.00271  0.89018  1.0000
  H   H1251     1.0  0.58636  0.22326  0.98609  1.0000
  H   H1252     1.0  0.71276  0.00462  0.04482  1.0000
  H   H1253     1.0  0.51524  0.18842  0.67595  1.0000
  H   H1254     1.0  0.74330  0.20847  0.76077  1.0000
  H   H1255     1.0  0.55493  0.17700  0.45066  1.0000
  C   C729      1.0  0.56247  0.00596  0.17790  1.0000
  H   H1256     1.0  0.54005  0.05573  0.56014  1.0000
  H   H1257     1.0  0.70846  0.14027  0.86660  1.0000
  C   C730      1.0  0.54262  0.00298  0.85392  1.0000
  N   N50       1.0  0.52595  0.05412  0.19471  1.0000
  C   C731      1.0  0.55318  0.99980  0.11679  1.0000
  C   C732      1.0  0.56571  0.00650  0.89732  1.0000
  C   C733      1.0  0.57292  0.19031  0.50820  1.0000
  C   C734      1.0  0.51485  0.21474  0.65093  1.0000
  H   H1258     1.0  0.58528  0.20031  0.55697  1.0000
  H   H1259     1.0  0.60860  0.23478  0.91533  1.0000
  H   H1260     1.0  0.68036  0.22240  0.09370  1.0000
  H   H1261     1.0  0.56022  0.21701  0.53712  1.0000
  C   C735      1.0  0.53860  0.03923  0.25311  1.0000
  H   H1262     1.0  0.52508  0.03788  0.26252  1.0000
  H   H1263     1.0  0.69755  0.11522  0.99115  1.0000
  C   C736      1.0  0.54077  0.05224  0.22072  1.0000
  C   C737      1.0  0.57830  0.01141  0.16251  1.0000
  H   H1264     1.0  0.59692  0.21161  0.47744  1.0000
  H   H1265     1.0  0.58807  0.01578  0.18040  1.0000
  H   H1266     1.0  0.51221  0.04570  0.12420  1.0000
  H   H1267     1.0  0.59020  0.01298  0.87298  1.0000
  C   C738      1.0  0.55435  0.18973  0.43653  1.0000
  H   H1268     1.0  0.54226  0.19035  0.42074  1.0000
  C   C739      1.0  0.56739  0.22123  0.51170  1.0000
  H   H1269     1.0  0.69767  0.99733  0.94200  1.0000
  H   H1270     1.0  0.69945  0.13501  0.01504  1.0000
  C   C740      1.0  0.55372  0.20443  0.46418  1.0000
  H   H1271     1.0  0.53295  0.07997  0.17998  1.0000
  C   C741      1.0  0.50712  0.16813  0.54628  1.0000
  C   C742      1.0  0.55372  0.00702  0.82441  1.0000
  H   H1272     1.0  0.72457  0.22091  0.81816  1.0000
  H   H1273     1.0  0.54993  0.21617  0.44822  1.0000
  C   C743      1.0  0.57092  0.01060  0.83140  1.0000
  H   H1274     1.0  0.62588  0.22461  0.98958  1.0000
  H   H1275     1.0  0.49926  0.06341  0.19471  1.0000
  H   H1276     1.0  0.57199  0.22538  0.41848  1.0000
  H   H1277     1.0  0.72966  0.15158  0.89837  1.0000
  H   H1278     1.0  0.56517  0.19081  0.41622  1.0000
  S   S217      1.0  0.54642  0.00789  0.77866  1.0000
  C   C744      1.0  0.58556  0.20898  0.46072  1.0000
  H   H1279     1.0  0.56020  0.00616  0.20735  1.0000
  H   H1280     1.0  0.50691  0.01884  0.55939  1.0000
  H   H1281     1.0  0.57599  0.17921  0.49029  1.0000
  H   H1282     1.0  0.73746  0.13070  0.91112  1.0000
  H   H1283     1.0  0.50131  0.19046  0.62073  1.0000
  H   H1284     1.0  0.50519  0.03905  0.50768  1.0000
  H   H1285     1.0  0.68522  0.23480  0.44284  1.0000
  H   H1286     1.0  0.58265  0.23974  0.93480  1.0000
  H   H1287     1.0  0.49677  0.03950  0.16004  1.0000
  H   H1288     1.0  0.68549  0.99635  0.02367  1.0000
  H   H1289     1.0  0.65368  0.99443  0.10345  1.0000
  H   H1290     1.0  0.67734  0.24011  0.39862  1.0000
  C   C745      1.0  0.68809  0.24224  0.41740  1.0000
  H   H1291     1.0  0.73037  0.24256  0.47925  1.0000
  H   H1292     1.0  0.62841  0.24057  0.11551  1.0000
  C   C746      1.0  0.61443  0.24268  0.49650  1.0000
  C   C747      1.0  0.50019  0.04405  0.53439  1.0000
  H   H1293     1.0  0.74551  0.16504  0.94596  1.0000
  C   C748      1.0  0.61827  0.24284  0.92740  1.0000
  H   H1294     1.0  0.69997  0.24337  0.48699  1.0000
  Fe  Fe110     1.0  0.51299  0.99368  0.22566  1.0000
  Fe  Fe111     1.0  0.52252  0.48723  0.49231  1.0000
  C   C749      1.0  0.70171  0.28501  0.45662  1.0000
  S   S218      1.0  0.57984  0.25965  0.65088  1.0000
  S   S219      1.0  0.52733  0.26356  0.67967  1.0000
  C   C750      1.0  0.54274  0.40967  0.43084  1.0000
  H   H1295     1.0  0.66180  0.24859  0.46644  1.0000
  Fe  Fe112     1.0  0.65121  0.26745  0.34966  1.0000
  S   S220      1.0  0.66051  0.29392  0.35774  1.0000
  C   C751      1.0  0.54713  0.41781  0.39266  1.0000
  Fe  Fe113     1.0  0.66536  0.26658  0.26764  1.0000
  S   S221      1.0  0.67601  0.29300  0.27263  1.0000
  H   H1296     1.0  0.61051  0.26796  0.90200  1.0000
  Fe  Fe114     1.0  0.68519  0.28463  0.32904  1.0000
  S   S222      1.0  0.71038  0.29442  0.35153  1.0000
  Fe  Fe115     1.0  0.65085  0.30036  0.30093  1.0000
  S   S223      1.0  0.63371  0.32376  0.28432  1.0000
  S   S224      1.0  0.67638  0.25781  0.32281  1.0000
  S   S225      1.0  0.63966  0.27427  0.29411  1.0000
  Fe  Fe116     1.0  0.59706  0.45019  0.29383  1.0000
  S   S226      1.0  0.60238  0.47133  0.25254  1.0000
  S   S227      1.0  0.57161  0.45002  0.32590  1.0000
  Fe  Fe117     1.0  0.62756  0.42754  0.26779  1.0000
  S   S228      1.0  0.63467  0.44694  0.22367  1.0000
  S   S229      1.0  0.64629  0.40447  0.27768  1.0000
  Fe  Fe118     1.0  0.63043  0.46703  0.26683  1.0000
  H   H1297     1.0  0.61932  0.28033  0.42533  1.0000
  Fe  Fe119     1.0  0.60631  0.45028  0.21201  1.0000
  S   S230      1.0  0.59758  0.45253  0.15188  1.0000
  S   S231      1.0  0.62463  0.44748  0.31198  1.0000
  S   S232      1.0  0.59966  0.42910  0.25242  1.0000
  H   H1298     1.0  0.59877  0.48796  0.17836  1.0000
  C   C752      1.0  0.62087  0.25790  0.89984  1.0000
  C   C753      1.0  0.55297  0.44457  0.49971  1.0000
  C   C754      1.0  0.64654  0.24542  0.15808  1.0000
  H   H1299     1.0  0.53752  0.36815  0.77618  1.0000
  C   C755      1.0  0.54802  0.35666  0.84768  1.0000
  C   C756      1.0  0.56626  0.46219  0.36509  1.0000
  C   C757      1.0  0.57880  0.46847  0.38767  1.0000
  C   C758      1.0  0.57381  0.47686  0.42039  1.0000
  C   C759      1.0  0.55630  0.47910  0.43045  1.0000
  C   C760      1.0  0.54383  0.47326  0.40729  1.0000
  C   C761      1.0  0.54879  0.46473  0.37492  1.0000
  H   H1300     1.0  0.59230  0.46652  0.38032  1.0000
  C   C762      1.0  0.50852  0.31990  0.69593  1.0000
  H   H1301     1.0  0.53313  0.33145  0.75009  1.0000
  H   H1302     1.0  0.51812  0.39019  0.79091  1.0000
  C   C763      1.0  0.57767  0.46114  0.13458  1.0000
  C   C764      1.0  0.56564  0.47002  0.15697  1.0000
  H   H1303     1.0  0.50247  0.41558  0.45686  1.0000
  C   C765      1.0  0.54691  0.47589  0.10408  1.0000
  C   C766      1.0  0.55885  0.46683  0.08175  1.0000
  C   C767      1.0  0.57419  0.45965  0.09687  1.0000
  H   H1304     1.0  0.56808  0.47125  0.18600  1.0000
  S   S233      1.0  0.64024  0.25068  0.39773  1.0000
  C   C768      1.0  0.52347  0.43387  0.45210  1.0000
  H   H1305     1.0  0.53941  0.49137  0.90148  1.0000
  C   C769      1.0  0.63756  0.34614  0.28310  1.0000
  C   C770      1.0  0.62398  0.35780  0.27389  1.0000
  C   C771      1.0  0.62635  0.37563  0.27227  1.0000
  C   C772      1.0  0.64244  0.38208  0.27958  1.0000
  C   C773      1.0  0.65607  0.37041  0.28846  1.0000
  C   C774      1.0  0.65367  0.35258  0.29031  1.0000
  H   H1306     1.0  0.61146  0.35301  0.26820  1.0000
  H   H1307     1.0  0.61573  0.38437  0.26534  1.0000
  H   H1308     1.0  0.66859  0.37518  0.29407  1.0000
  H   H1309     1.0  0.66427  0.34383  0.29734  1.0000
  H   H1310     1.0  0.50686  0.36635  0.85494  1.0000
  H   H1311     1.0  0.70036  0.26550  0.40240  1.0000
  C   C775      1.0  0.73020  0.28527  0.36843  1.0000
  H   H1312     1.0  0.68475  0.29663  0.41436  1.0000
  H   H1313     1.0  0.67351  0.24521  0.50913  1.0000
  H   H1314     1.0  0.72494  0.25904  0.35814  1.0000
  S   S234      1.0  0.64857  0.48980  0.26195  1.0000
  C   C776      1.0  0.52056  0.28543  0.68561  1.0000
  C   C777      1.0  0.53076  0.29902  0.67417  1.0000
  C   C778      1.0  0.52476  0.31610  0.67929  1.0000
  H   H1315     1.0  0.54325  0.29637  0.66128  1.0000
  H   H1316     1.0  0.52590  0.34336  0.86566  1.0000
  C   C779      1.0  0.61806  0.26977  0.44491  1.0000
  H   H1317     1.0  0.69903  0.31094  0.43395  1.0000
  C   C780      1.0  0.66633  0.25463  0.49152  1.0000
  H   H1318     1.0  0.63697  0.25155  0.17596  1.0000
  H   H1319     1.0  0.53242  0.40036  0.42782  1.0000
  H   H1320     1.0  0.59174  0.25750  0.99864  1.0000
  S   S235      1.0  0.59125  0.26147  0.54222  1.0000
  H   H1321     1.0  0.52893  0.42065  0.51811  1.0000
  H   H1322     1.0  0.55666  0.44073  0.44173  1.0000
  H   H1323     1.0  0.51553  0.24624  0.61436  1.0000
  H   H1324     1.0  0.52309  0.40350  0.49104  1.0000
  S   S236      1.0  0.50089  0.47447  0.46530  1.0000
  C   C781      1.0  0.53392  0.41198  0.49601  1.0000
  C   C782      1.0  0.55413  0.43252  0.46666  1.0000
  H   H1325     1.0  0.54155  0.48454  0.15928  1.0000
  N   N51       1.0  0.65307  0.30458  0.16482  1.0000
  C   C783      1.0  0.67093  0.31062  0.17228  1.0000
  C   C784      1.0  0.64245  0.32007  0.15208  1.0000
  C   C785      1.0  0.65480  0.29162  0.13463  1.0000
  C   C786      1.0  0.64603  0.29665  0.20010  1.0000
  C   C787      1.0  0.68532  0.29655  0.17623  1.0000
  C   C788      1.0  0.63922  0.33405  0.18102  1.0000
  C   C789      1.0  0.63822  0.28642  0.11613  1.0000
  C   C790      1.0  0.62670  0.29263  0.20216  1.0000
  H   H1326     1.0  0.67541  0.31953  0.14990  1.0000
  H   H1327     1.0  0.67094  0.31810  0.19805  1.0000
  H   H1328     1.0  0.62960  0.31674  0.14273  1.0000
  H   H1329     1.0  0.64865  0.32613  0.12729  1.0000
  H   H1330     1.0  0.66340  0.29642  0.11190  1.0000
  H   H1331     1.0  0.66112  0.27950  0.14519  1.0000
  H   H1332     1.0  0.65323  0.28449  0.20682  1.0000
  H   H1333     1.0  0.64840  0.30484  0.22393  1.0000
  H   H1334     1.0  0.69696  0.30219  0.18744  1.0000
  H   H1335     1.0  0.68161  0.28605  0.19536  1.0000
  H   H1336     1.0  0.68916  0.29108  0.14916  1.0000
  H   H1337     1.0  0.63161  0.34492  0.16852  1.0000
  H   H1338     1.0  0.63152  0.32929  0.20500  1.0000
  H   H1339     1.0  0.65129  0.33932  0.19077  1.0000
  H   H1340     1.0  0.62898  0.28055  0.13578  1.0000
  H   H1341     1.0  0.64177  0.27637  0.09586  1.0000
  H   H1342     1.0  0.63198  0.29715  0.10032  1.0000
  H   H1343     1.0  0.62507  0.27863  0.20069  1.0000
  H   H1344     1.0  0.61868  0.29914  0.18108  1.0000
  H   H1345     1.0  0.62110  0.29678  0.22916  1.0000
  H   H1346     1.0  0.56099  0.42083  0.39022  1.0000
  C   C791      1.0  0.69065  0.30002  0.44045  1.0000
  H   H1347     1.0  0.64052  0.25051  0.97856  1.0000
  C   C792      1.0  0.51016  0.36812  0.82506  1.0000
  H   H1348     1.0  0.49921  0.34315  0.78004  1.0000
  H   H1349     1.0  0.71349  0.28408  0.43858  1.0000
  H   H1350     1.0  0.68054  0.30461  0.46038  1.0000
  S   S237      1.0  0.50195  0.34179  0.70226  1.0000
  C   C793      1.0  0.54844  0.40039  0.51255  1.0000
  N   N52       1.0  0.68318  0.43695  0.31418  1.0000
  C   C794      1.0  0.67195  0.44704  0.28741  1.0000
  C   C795      1.0  0.67164  0.43122  0.34588  1.0000
  C   C796      1.0  0.69093  0.42167  0.29396  1.0000
  C   C797      1.0  0.69704  0.44840  0.32632  1.0000
  C   C798      1.0  0.68103  0.45369  0.25182  1.0000
  C   C799      1.0  0.66393  0.44550  0.37061  1.0000
  C   C800      1.0  0.69637  0.40573  0.31733  1.0000
  C   C801      1.0  0.70889  0.44133  0.35704  1.0000
  H   H1351     1.0  0.66115  0.43919  0.27885  1.0000
  H   H1352     1.0  0.66580  0.45848  0.30036  1.0000
  H   H1353     1.0  0.67835  0.42204  0.36485  1.0000
  H   H1354     1.0  0.66074  0.42400  0.33540  1.0000
  H   H1355     1.0  0.68169  0.41693  0.27384  1.0000
  H   H1356     1.0  0.70244  0.42533  0.27710  1.0000
  H   H1357     1.0  0.70586  0.45158  0.30274  1.0000
  H   H1358     1.0  0.69161  0.46118  0.33456  1.0000
  H   H1359     1.0  0.67120  0.45983  0.23359  1.0000
  H   H1360     1.0  0.69019  0.46376  0.25766  1.0000
  H   H1361     1.0  0.68757  0.44330  0.23594  1.0000
  H   H1362     1.0  0.65492  0.45432  0.35570  1.0000
  H   H1363     1.0  0.65629  0.43955  0.39345  1.0000
  H   H1364     1.0  0.67402  0.45287  0.38344  1.0000
  H   H1365     1.0  0.70488  0.40866  0.34011  1.0000
  H   H1366     1.0  0.70356  0.39647  0.29936  1.0000
  H   H1367     1.0  0.68489  0.39907  0.32837  1.0000
  H   H1368     1.0  0.72005  0.43383  0.34524  1.0000
  H   H1369     1.0  0.70223  0.43350  0.37829  1.0000
  H   H1370     1.0  0.71381  0.45223  0.37225  1.0000
  C   C802      1.0  0.74231  0.29617  0.38266  1.0000
  H   H1371     1.0  0.62087  0.25296  0.87132  1.0000
  H   H1372     1.0  0.70615  0.28912  0.48390  1.0000
  C   C803      1.0  0.70531  0.25610  0.48157  1.0000
  H   H1373     1.0  0.60053  0.28382  0.48137  1.0000
  C   C804      1.0  0.60539  0.25821  0.50290  1.0000
  H   H1374     1.0  0.54188  0.45383  0.49762  1.0000
  H   H1375     1.0  0.53033  0.47527  0.41428  1.0000
  H   H1376     1.0  0.51939  0.36145  0.75361  1.0000
  H   H1377     1.0  0.59918  0.27164  0.96303  1.0000
  H   H1378     1.0  0.52717  0.44402  0.43186  1.0000
  H   H1379     1.0  0.62544  0.47510  0.17636  1.0000
  H   H1380     1.0  0.53789  0.33260  0.83141  1.0000
  H   H1381     1.0  0.67894  0.27709  0.50819  1.0000
  H   H1382     1.0  0.53278  0.32646  0.67018  1.0000
  H   H1383     1.0  0.55249  0.38985  0.49401  1.0000
  H   H1384     1.0  0.52476  0.48049  0.80693  1.0000
  H   H1385     1.0  0.61384  0.27226  0.02447  1.0000
  H   H1386     1.0  0.55222  0.43750  0.52650  1.0000
  H   H1387     1.0  0.56603  0.42424  0.46937  1.0000
  H   H1388     1.0  0.66124  0.48304  0.33750  1.0000
  H   H1389     1.0  0.49757  0.36963  0.81114  1.0000
  H   H1390     1.0  0.50268  0.32821  0.85934  1.0000
  H   H1391     1.0  0.50648  0.47364  0.15000  1.0000
  C   C805      1.0  0.67657  0.27064  0.48182  1.0000
  H   H1392     1.0  0.51890  0.47788  0.20997  1.0000
  C   C806      1.0  0.52912  0.35712  0.77422  1.0000
  H   H1393     1.0  0.55978  0.40764  0.51993  1.0000
  C   C807      1.0  0.58208  0.25305  0.94434  1.0000
  C   C808      1.0  0.49834  0.30632  0.70749  1.0000
  C   C809      1.0  0.73395  0.26763  0.36931  1.0000
  N   N53       1.0  0.69323  0.26794  0.46011  1.0000
  H   H1394     1.0  0.55331  0.36376  0.82356  1.0000
  H   H1395     1.0  0.70721  0.26119  0.50956  1.0000
  C   C810      1.0  0.62684  0.25416  0.43813  1.0000
  C   C811      1.0  0.50764  0.33906  0.80324  1.0000
  H   H1396     1.0  0.53938  0.42960  0.38640  1.0000
  C   C812      1.0  0.50754  0.42535  0.43727  1.0000
  Fe  Fe120     1.0  0.51164  0.48536  0.03402  1.0000
  H   H1397     1.0  0.54619  0.34752  0.73045  1.0000
  H   H1398     1.0  0.73131  0.26440  0.46467  1.0000
  H   H1399     1.0  0.54348  0.39431  0.53849  1.0000
  H   H1400     1.0  0.54696  0.48702  0.59347  1.0000
  C   C813      1.0  0.50432  0.28922  0.70228  1.0000
  H   H1401     1.0  0.58125  0.26194  0.92004  1.0000
  C   C814      1.0  0.68982  0.26175  0.42191  1.0000
  C   C815      1.0  0.51499  0.49120  0.21714  1.0000
  C   C816      1.0  0.54054  0.34269  0.75697  1.0000
  S   S238      1.0  0.67071  0.25182  0.21272  1.0000
  H   H1402     1.0  0.50716  0.47143  0.82960  1.0000
  N   N54       1.0  0.61356  0.24754  0.96654  1.0000
  H   H1403     1.0  0.56476  0.45217  0.49976  1.0000
  C   C817      1.0  0.60737  0.27171  0.47685  1.0000
  H   H1404     1.0  0.54413  0.40882  0.37067  1.0000
  C   C818      1.0  0.62797  0.25793  0.98040  1.0000
  S   S239      1.0  0.51746  0.47503  0.54785  1.0000
  H   H1405     1.0  0.53152  0.38595  0.83056  1.0000
  N   N55       1.0  0.52030  0.35271  0.81056  1.0000
  H   H1406     1.0  0.55423  0.40140  0.43772  1.0000
  H   H1407     1.0  0.51890  0.44096  0.47690  1.0000
  N   N56       1.0  0.53858  0.42199  0.46136  1.0000
  H   H1408     1.0  0.49892  0.25369  0.58464  1.0000
  H   H1409     1.0  0.56958  0.25481  0.95959  1.0000
  C   C819      1.0  0.53272  0.34560  0.83878  1.0000
  H   H1410     1.0  0.58341  0.45285  0.07923  1.0000
  H   H1411     1.0  0.51037  0.39529  0.83604  1.0000
  H   H1412     1.0  0.55140  0.33865  0.77482  1.0000
  C   C820      1.0  0.59682  0.25792  0.96965  1.0000
  H   H1413     1.0  0.73961  0.30984  0.38211  1.0000
  H   H1414     1.0  0.63360  0.26356  0.90317  1.0000
  H   H1415     1.0  0.55891  0.34817  0.85714  1.0000
  H   H1416     1.0  0.55640  0.46553  0.05275  1.0000
  H   H1417     1.0  0.54442  0.36574  0.86992  1.0000
  H   H1418     1.0  0.66742  0.27927  0.46632  1.0000
  Fe  Fe121     1.0  0.55240  0.25116  0.65556  1.0000
  H   H1419     1.0  0.50707  0.49121  0.24298  1.0000
  C   C821      1.0  0.55051  0.47749  0.14170  1.0000
  H   H1420     1.0  0.51434  0.32697  0.79441  1.0000
  H   H1421     1.0  0.60891  0.48499  0.11718  1.0000
  Fe  Fe122     1.0  0.58104  0.24734  0.59472  1.0000
  H   H1422     1.0  0.72267  0.24884  0.43480  1.0000
  C   C822      1.0  0.62583  0.26435  0.02028  1.0000
  H   H1423     1.0  0.55842  0.24777  0.51755  1.0000
  C   C823      1.0  0.51829  0.38574  0.82021  1.0000
  C   C824      1.0  0.50144  0.24620  0.61047  1.0000
  S   S240      1.0  0.55033  0.48863  0.47268  1.0000
  H   H1424     1.0  0.51020  0.41970  0.40989  1.0000
  S   S241      1.0  0.51612  0.48841  0.97204  1.0000
  H   H1425     1.0  0.62641  0.25378  0.04112  1.0000
  H   H1426     1.0  0.63607  0.47619  0.13149  1.0000
  H   H1427     1.0  0.64798  0.47868  0.17241  1.0000
  H   H1428     1.0  0.58354  0.48144  0.43812  1.0000
  C   C825      1.0  0.72335  0.25294  0.46369  1.0000
  C   C826      1.0  0.63535  0.48163  0.15949  1.0000
  H   H1429     1.0  0.62965  0.26967  0.96301  1.0000
  H   H1430     1.0  0.51060  0.48723  0.75269  1.0000
  H   H1431     1.0  0.51057  0.48441  0.88558  1.0000
  H   H1432     1.0  0.53904  0.46006  0.35734  1.0000
  H   H1433     1.0  0.65450  0.25860  0.50748  1.0000
  H   H1434     1.0  0.67797  0.26825  0.41083  1.0000
  C   C827      1.0  0.66894  0.49274  0.32441  1.0000
  H   H1435     1.0  0.49956  0.46864  0.76937  1.0000
  C   C828      1.0  0.51079  0.48295  0.81284  1.0000
  S   S242      1.0  0.52768  0.48607  0.08662  1.0000
  C   C829      1.0  0.50211  0.48218  0.77517  1.0000
  H   H1436     1.0  0.63678  0.27253  0.02598  1.0000
  H   H1437     1.0  0.54034  0.48250  0.85675  1.0000
  H   H1438     1.0  0.49708  0.43530  0.43366  1.0000
  C   C830      1.0  0.66364  0.24362  0.16957  1.0000
  Fe  Fe123     1.0  0.68318  0.64291  0.71118  1.0000
  S   S243      1.0  0.70963  0.62961  0.71108  1.0000
  S   S244      1.0  0.66035  0.62665  0.73002  1.0000
  Fe  Fe124     1.0  0.69825  0.67692  0.68565  1.0000
  S   S245      1.0  0.72544  0.66589  0.68433  1.0000
  S   S246      1.0  0.68792  0.70394  0.67001  1.0000
  Fe  Fe125     1.0  0.71443  0.64318  0.65638  1.0000
  S   S247      1.0  0.72989  0.63299  0.60526  1.0000
  Fe  Fe126     1.0  0.71882  0.65302  0.73942  1.0000
  N   N57       1.0  0.50793  0.49914  0.83428  1.0000
  S   S248      1.0  0.68750  0.65506  0.65502  1.0000
  S   S249      1.0  0.69211  0.66547  0.74223  1.0000
  C   C831      1.0  0.53397  0.67074  0.65454  1.0000
  C   C832      1.0  0.67502  0.51182  0.27298  1.0000
  S   S250      1.0  0.72143  0.58406  0.46646  1.0000
  Fe  Fe127     1.0  0.72862  0.54300  0.35955  1.0000
  C   C833      1.0  0.66523  0.49853  0.28854  1.0000
  S   S251      1.0  0.70925  0.52131  0.35461  1.0000
  H   H1439     1.0  0.51971  0.64814  0.85720  1.0000
  H   H1440     1.0  0.68707  0.63743  0.57145  1.0000
  C   C834      1.0  0.68736  0.73660  0.64000  1.0000
  S   S252      1.0  0.72352  0.57178  0.35733  1.0000
  Fe  Fe128     1.0  0.52940  0.59580  0.69330  1.0000
  S   S253      1.0  0.51033  0.59757  0.74110  1.0000
  S   S254      1.0  0.52512  0.58417  0.63784  1.0000
  Fe  Fe129     1.0  0.55537  0.61918  0.72790  1.0000
  S   S255      1.0  0.53813  0.62229  0.77825  1.0000
  S   S256      1.0  0.57815  0.63689  0.71799  1.0000
  Fe  Fe130     1.0  0.53392  0.59393  0.77580  1.0000
  S   S257      1.0  0.53730  0.57705  0.82802  1.0000
  Fe  Fe131     1.0  0.51587  0.62576  0.73953  1.0000
  H   H1441     1.0  0.51568  0.56672  0.57405  1.0000
  S   S258      1.0  0.55284  0.59055  0.72771  1.0000
  S   S259      1.0  0.53319  0.62410  0.68957  1.0000
  H   H1442     1.0  0.67428  0.68525  0.54896  1.0000
  H   H1443     1.0  0.73034  0.67420  0.91222  1.0000
  C   C835      1.0  0.73959  0.61907  0.53795  1.0000
  H   H1444     1.0  0.51293  0.58751  0.90292  1.0000
  H   H1445     1.0  0.68382  0.69995  0.48220  1.0000
  C   C836      1.0  0.63190  0.50116  0.15804  1.0000
  C   C837      1.0  0.51701  0.56369  0.63307  1.0000
  H   H1446     1.0  0.54640  0.54580  0.48354  1.0000
  H   H1447     1.0  0.61425  0.53204  0.20400  1.0000
  H   H1448     1.0  0.52670  0.68298  0.64934  1.0000
  C   C838      1.0  0.72216  0.73607  0.61969  1.0000
  C   C839      1.0  0.51451  0.55260  0.66336  1.0000
  H   H1449     1.0  0.58567  0.52121  0.20923  1.0000
  H   H1450     1.0  0.50973  0.70729  0.73624  1.0000
  C   C840      1.0  0.51568  0.49606  0.87179  1.0000
  H   H1451     1.0  0.51700  0.55680  0.69085  1.0000
  C   C841      1.0  0.52419  0.56265  0.85386  1.0000
  C   C842      1.0  0.50674  0.56085  0.84671  1.0000
  H   H1452     1.0  0.52717  0.68278  0.78607  1.0000
  S   S260      1.0  0.73844  0.54345  0.41764  1.0000
  C   C843      1.0  0.52113  0.54317  0.90759  1.0000
  C   C844      1.0  0.53133  0.55354  0.88412  1.0000
  H   H1453     1.0  0.69458  0.65920  0.83151  1.0000
  H   H1454     1.0  0.52679  0.53650  0.93108  1.0000
  H   H1455     1.0  0.54482  0.55478  0.88992  1.0000
  C   C845      1.0  0.55693  0.53619  0.60670  1.0000
  H   H1456     1.0  0.71462  0.60106  0.79932  1.0000
  C   C846      1.0  0.55076  0.67693  0.75310  1.0000
  C   C847      1.0  0.69224  0.51310  0.32835  1.0000
  C   C848      1.0  0.68834  0.51911  0.29270  1.0000
  H   H1457     1.0  0.73637  0.69362  0.58320  1.0000
  H   H1458     1.0  0.58672  0.49813  0.54935  1.0000
  H   H1459     1.0  0.74383  0.53337  0.54333  1.0000
  H   H1460     1.0  0.51539  0.50194  0.16183  1.0000
  C   C849      1.0  0.59099  0.50422  0.09892  1.0000
  C   C850      1.0  0.60885  0.49918  0.11410  1.0000
  H   H1461     1.0  0.59616  0.51397  0.52068  1.0000
  H   H1462     1.0  0.52370  0.61159  0.86257  1.0000
  C   C851      1.0  0.51517  0.69641  0.72001  1.0000
  H   H1463     1.0  0.50182  0.59818  0.83076  1.0000
  C   C852      1.0  0.51377  0.55813  0.59751  1.0000
  H   H1464     1.0  0.52973  0.50952  0.80382  1.0000
  H   H1465     1.0  0.53927  0.54528  0.54821  1.0000
  C   C853      1.0  0.69592  0.69249  0.47589  1.0000
  H   H1466     1.0  0.50728  0.52730  0.68133  1.0000
  H   H1467     1.0  0.69533  0.68915  0.44635  1.0000
  H   H1468     1.0  0.68974  0.71332  0.53234  1.0000
  H   H1469     1.0  0.73876  0.52932  0.49720  1.0000
  C   C854      1.0  0.63755  0.62971  0.72552  1.0000
  C   C855      1.0  0.62677  0.61639  0.73693  1.0000
  C   C856      1.0  0.60864  0.61824  0.73450  1.0000
  C   C857      1.0  0.60099  0.63353  0.72088  1.0000
  C   C858      1.0  0.61178  0.64688  0.70963  1.0000
  C   C859      1.0  0.62991  0.64498  0.71178  1.0000
  H   H1470     1.0  0.63247  0.60451  0.74755  1.0000
  H   H1471     1.0  0.60060  0.60785  0.74331  1.0000
  H   H1472     1.0  0.60608  0.65878  0.69905  1.0000
  H   H1473     1.0  0.63796  0.65536  0.70297  1.0000
  C   C860      1.0  0.72711  0.61932  0.56688  1.0000
  N   N58       1.0  0.61365  0.50721  0.14967  1.0000
  H   H1474     1.0  0.53622  0.70536  0.68674  1.0000
  C   C861      1.0  0.72395  0.59807  0.50435  1.0000
  C   C862      1.0  0.71143  0.59839  0.53320  1.0000
  C   C863      1.0  0.71296  0.60890  0.56413  1.0000
  H   H1475     1.0  0.70048  0.59032  0.53172  1.0000
  H   H1476     1.0  0.70325  0.60878  0.58602  1.0000
  C   C864      1.0  0.71528  0.72190  0.63894  1.0000
  C   C865      1.0  0.69774  0.72196  0.64866  1.0000
  H   H1477     1.0  0.54684  0.65618  0.69742  1.0000
  H   H1478     1.0  0.72348  0.71087  0.64583  1.0000
  C   C866      1.0  0.68570  0.64898  0.55317  1.0000
  H   H1479     1.0  0.71582  0.60264  0.84891  1.0000
  H   H1480     1.0  0.72989  0.66130  0.22661  1.0000
  C   C867      1.0  0.51526  0.60016  0.91439  1.0000
  H   H1481     1.0  0.52868  0.66103  0.76892  1.0000
  C   C868      1.0  0.73820  0.66574  0.89505  1.0000
  C   C869      1.0  0.56416  0.55409  0.61134  1.0000
  H   H1482     1.0  0.51987  0.52371  0.83619  1.0000
  N   N59       1.0  0.70109  0.67737  0.53945  1.0000
  H   H1483     1.0  0.58054  0.49934  0.11712  1.0000
  H   H1484     1.0  0.58100  0.69352  0.73492  1.0000
  H   H1485     1.0  0.51632  0.53319  0.77148  1.0000
  H   H1486     1.0  0.52859  0.59928  0.92488  1.0000
  H   H1487     1.0  0.50311  0.65978  0.83329  1.0000
  C   C870      1.0  0.68893  0.70729  0.56007  1.0000
  H   H1488     1.0  0.73474  0.60853  0.17507  1.0000
  C   C871      1.0  0.50626  0.53024  0.62217  1.0000
  C   C872      1.0  0.54907  0.51255  0.56899  1.0000
  H   H1489     1.0  0.73740  0.68981  0.20923  1.0000
  H   H1490     1.0  0.57468  0.50299  0.19669  1.0000
  C   C873      1.0  0.60191  0.50162  0.18114  1.0000
  H   H1491     1.0  0.60870  0.50233  0.20776  1.0000
  H   H1492     1.0  0.57075  0.67368  0.69020  1.0000
  H   H1493     1.0  0.57950  0.51851  0.16195  1.0000
  C   C874      1.0  0.55279  0.53551  0.50053  1.0000
  C   C875      1.0  0.53808  0.66773  0.69565  1.0000
  H   H1494     1.0  0.56036  0.66596  0.75259  1.0000
  H   H1495     1.0  0.56289  0.52786  0.62858  1.0000
  H   H1496     1.0  0.68432  0.66994  0.49610  1.0000
  C   C876      1.0  0.69962  0.62862  0.89953  1.0000
  N   N60       1.0  0.68676  0.62344  0.83505  1.0000
  C   C877      1.0  0.67974  0.60836  0.81585  1.0000
  C   C878      1.0  0.70483  0.62578  0.82029  1.0000
  C   C879      1.0  0.67572  0.63902  0.82456  1.0000
  C   C880      1.0  0.68604  0.62007  0.87628  1.0000
  C   C881      1.0  0.66051  0.60501  0.82349  1.0000
  C   C882      1.0  0.71702  0.60974  0.82225  1.0000
  C   C883      1.0  0.68110  0.65630  0.83905  1.0000
  H   H1497     1.0  0.68163  0.60976  0.78535  1.0000
  H   H1498     1.0  0.68688  0.59628  0.82380  1.0000
  H   H1499     1.0  0.71119  0.63605  0.83465  1.0000
  H   H1500     1.0  0.70463  0.63021  0.79091  1.0000
  H   H1501     1.0  0.67515  0.64040  0.79399  1.0000
  H   H1502     1.0  0.66217  0.63769  0.83447  1.0000
  H   H1503     1.0  0.67312  0.62396  0.88793  1.0000
  H   H1504     1.0  0.68754  0.60611  0.88289  1.0000
  H   H1505     1.0  0.65757  0.59233  0.81252  1.0000
  H   H1506     1.0  0.65714  0.60482  0.85336  1.0000
  H   H1507     1.0  0.65205  0.61452  0.80872  1.0000
  H   H1508     1.0  0.71892  0.69808  0.53216  1.0000
  H   H1509     1.0  0.73353  0.69075  0.14894  1.0000
  H   H1510     1.0  0.73058  0.61368  0.81881  1.0000
  H   H1511     1.0  0.67869  0.65713  0.86919  1.0000
  H   H1512     1.0  0.67291  0.66663  0.82611  1.0000
  H   H1513     1.0  0.56733  0.71104  0.71693  1.0000
  H   H1514     1.0  0.51883  0.62615  0.89863  1.0000
  C   C884      1.0  0.58466  0.51193  0.18677  1.0000
  H   H1515     1.0  0.67379  0.73682  0.64749  1.0000
  H   H1516     1.0  0.62202  0.52982  0.11995  1.0000
  H   H1517     1.0  0.73569  0.73576  0.61178  1.0000
  C   C885      1.0  0.73353  0.66339  0.85794  1.0000
  H   H1518     1.0  0.69568  0.52929  0.28023  1.0000
  H   H1519     1.0  0.56020  0.69057  0.66483  1.0000
  C   C886      1.0  0.56277  0.68577  0.69336  1.0000
  H   H1520     1.0  0.50838  0.69728  0.69338  1.0000
  H   H1521     1.0  0.63448  0.53485  0.17939  1.0000
  H   H1522     1.0  0.69638  0.62660  0.92928  1.0000
  C   C887      1.0  0.68243  0.49981  0.34389  1.0000
  S   S261      1.0  0.50692  0.51111  0.50567  1.0000
  C   C888      1.0  0.55298  0.49920  0.59993  1.0000
  H   H1523     1.0  0.67749  0.71314  0.57460  1.0000
  H   H1524     1.0  0.71272  0.62281  0.89488  1.0000
  C   C889      1.0  0.57444  0.69893  0.71017  1.0000
  C   C890      1.0  0.68720  0.68768  0.55990  1.0000
  H   H1525     1.0  0.56337  0.55737  0.64100  1.0000
  H   H1526     1.0  0.70028  0.71088  0.57553  1.0000
  H   H1527     1.0  0.68413  0.64427  0.52488  1.0000
  H   H1528     1.0  0.67390  0.65617  0.56258  1.0000
  C   C891      1.0  0.55276  0.54119  0.54084  1.0000
  H   H1529     1.0  0.70492  0.65965  0.58557  1.0000
  H   H1530     1.0  0.52587  0.66030  0.64544  1.0000
  C   C892      1.0  0.61377  0.52638  0.14439  1.0000
  C   C893      1.0  0.62025  0.53622  0.17743  1.0000
  Fe  Fe132     1.0  0.50002  0.49788  0.55905  1.0000
  H   H1531     1.0  0.51205  0.50677  0.89043  1.0000
  N   N61       1.0  0.54612  0.68237  0.71427  1.0000
  C   C894      1.0  0.51405  0.61474  0.88496  1.0000
  S   S262      1.0  0.50029  0.50903  0.61607  1.0000
  H   H1532     1.0  0.63581  0.50574  0.18536  1.0000
  H   H1533     1.0  0.73676  0.59319  0.23580  1.0000
  H   H1534     1.0  0.73175  0.67151  0.58897  1.0000
  H   H1535     1.0  0.56607  0.53382  0.48897  1.0000
  H   H1536     1.0  0.55701  0.68740  0.76728  1.0000
  H   H1537     1.0  0.58914  0.51815  0.09352  1.0000
  H   H1538     1.0  0.50648  0.53716  0.56444  1.0000
  H   H1539     1.0  0.71601  0.68773  0.60310  1.0000
  C   C895      1.0  0.57865  0.52459  0.56283  1.0000
  H   H1540     1.0  0.52703  0.49771  0.22317  1.0000
  C   C896      1.0  0.73798  0.60868  0.50686  1.0000
  H   H1541     1.0  0.58526  0.53646  0.55404  1.0000
  C   C897      1.0  0.50743  0.52393  0.78469  1.0000
  H   H1542     1.0  0.53506  0.51610  0.57129  1.0000
  H   H1543     1.0  0.70726  0.70048  0.47834  1.0000
  Fe  Fe133     1.0  0.73484  0.57215  0.41451  1.0000
  C   C898      1.0  0.50853  0.54143  0.59202  1.0000
  C   C899      1.0  0.51700  0.51390  0.81564  1.0000
  H   H1544     1.0  0.51149  0.68467  0.73511  1.0000
  H   H1545     1.0  0.68647  0.68359  0.58958  1.0000
  C   C900      1.0  0.58388  0.51056  0.53487  1.0000
  C   C901      1.0  0.69698  0.67582  0.49926  1.0000
  H   H1546     1.0  0.56029  0.55301  0.54030  1.0000
  H   H1547     1.0  0.54537  0.52392  0.49684  1.0000
  H   H1548     1.0  0.55628  0.56415  0.59671  1.0000
  H   H1549     1.0  0.52599  0.66384  0.70962  1.0000
  H   H1550     1.0  0.61704  0.55010  0.17343  1.0000
  H   H1551     1.0  0.57785  0.55465  0.60220  1.0000
  H   H1552     1.0  0.55044  0.50575  0.54268  1.0000
  H   H1553     1.0  0.54585  0.67016  0.63695  1.0000
  H   H1554     1.0  0.50308  0.51568  0.76276  1.0000
  H   H1555     1.0  0.54301  0.53718  0.61441  1.0000
  H   H1556     1.0  0.70020  0.64258  0.89453  1.0000
  H   H1557     1.0  0.54720  0.50339  0.62669  1.0000
  C   C902      1.0  0.74145  0.53972  0.51633  1.0000
  H   H1558     1.0  0.72229  0.67013  0.84711  1.0000
  C   C903      1.0  0.50585  0.50102  0.18522  1.0000
  H   H1559     1.0  0.54147  0.66703  0.80586  1.0000
  H   H1560     1.0  0.58467  0.52029  0.58921  1.0000
  H   H1561     1.0  0.60089  0.53201  0.13789  1.0000
  H   H1562     1.0  0.58482  0.70209  0.68978  1.0000
  H   H1563     1.0  0.53905  0.70751  0.73486  1.0000
  C   C904      1.0  0.53593  0.67171  0.77938  1.0000
  C   C905      1.0  0.50906  0.53592  0.65789  1.0000
  H   H1564     1.0  0.67229  0.51657  0.24542  1.0000
  C   C906      1.0  0.72596  0.68433  0.58183  1.0000
  N   N62       1.0  0.55960  0.52837  0.56915  1.0000
  C   C907      1.0  0.70206  0.65944  0.55578  1.0000
  C   C908      1.0  0.71870  0.68464  0.54252  1.0000
  C   C909      1.0  0.53480  0.69852  0.71388  1.0000
  H   H1565     1.0  0.68512  0.49517  0.37155  1.0000
  H   H1566     1.0  0.50645  0.60251  0.93839  1.0000
  H   H1567     1.0  0.64123  0.50653  0.13742  1.0000
  S   S263      1.0  0.73826  0.64892  0.78738  1.0000
  H   H1568     1.0  0.72968  0.54821  0.51904  1.0000
  H   H1569     1.0  0.70669  0.66706  0.48550  1.0000
  C   C910      1.0  0.50350  0.54211  0.90158  1.0000
  C   C911      1.0  0.50553  0.64943  0.85429  1.0000
  H   H1570     1.0  0.50670  0.62827  0.81735  1.0000
  H   H1571     1.0  0.58962  0.49790  0.07209  1.0000
  C   C912      1.0  0.49825  0.63271  0.84062  1.0000
  H   H1572     1.0  0.71291  0.65182  0.54275  1.0000
  H   H1573     1.0  0.61859  0.50202  0.09193  1.0000
  H   H1574     1.0  0.50111  0.56742  0.82311  1.0000
  C   C913      1.0  0.74357  0.65265  0.83480  1.0000
  H   H1575     1.0  0.50353  0.51432  0.19484  1.0000
  H   H1576     1.0  0.54206  0.50540  0.86262  1.0000
  H   H1577     1.0  0.73916  0.66003  0.18131  1.0000
  H   H1578     1.0  0.57462  0.50868  0.51292  1.0000
  H   H1579     1.0  0.72829  0.67750  0.52474  1.0000
  C   C914      1.0  0.74208  0.66268  0.21034  1.0000
  H   H1580     1.0  0.74477  0.71771  0.19208  1.0000
  H   H1581     1.0  0.49938  0.65357  0.88062  1.0000
  H   H1582     1.0  0.56698  0.49645  0.60282  1.0000
  H   H1583     1.0  0.74497  0.69155  0.10600  1.0000
  C   C915      1.0  0.74593  0.69432  0.13573  1.0000
  C   C916      1.0  0.53551  0.49374  0.87249  1.0000
  N   N63       1.0  0.49644  0.61851  0.86913  1.0000
  C   C917      1.0  0.74614  0.60967  0.19126  1.0000
  H   H1584     1.0  0.49700  0.65206  0.67082  1.0000
  Fe  Fe134     1.0  0.71248  0.79590  0.57450  1.0000
  S   S264      1.0  0.73523  0.81258  0.56335  1.0000
  S   S265      1.0  0.72119  0.76794  0.58585  1.0000
  Fe  Fe135     1.0  0.68689  0.82647  0.56632  1.0000
  S   S266      1.0  0.70835  0.84468  0.55521  1.0000
  S   S267      1.0  0.65988  0.83918  0.57416  1.0000
  Fe  Fe136     1.0  0.71997  0.82462  0.51680  1.0000
  H   H1585     1.0  0.57393  0.83428  0.62598  1.0000
  Fe  Fe137     1.0  0.72187  0.83119  0.60255  1.0000
  H   H1586     1.0  0.69544  0.94734  0.11696  1.0000
  S   S268      1.0  0.69768  0.80702  0.52585  1.0000
  S   S269      1.0  0.70001  0.81388  0.61569  1.0000
  N   N64       1.0  0.55296  0.94471  0.24369  1.0000
  H   H1587     1.0  0.55302  0.96323  0.69356  1.0000
  Fe  Fe138     1.0  0.72778  0.92475  0.90542  1.0000
  S   S270      1.0  0.70142  0.93440  0.92895  1.0000
  H   H1588     1.0  0.74541  0.83860  0.07707  1.0000
  S   S271      1.0  0.73095  0.89588  0.90410  1.0000
  Fe  Fe139     1.0  0.56094  0.86034  0.51629  1.0000
  S   S272      1.0  0.53610  0.85103  0.49403  1.0000
  S   S273      1.0  0.58589  0.84538  0.49933  1.0000
  Fe  Fe140     1.0  0.54123  0.88828  0.56010  1.0000
  S   S274      1.0  0.51523  0.88024  0.54267  1.0000
  S   S275      1.0  0.54607  0.91264  0.59051  1.0000
  Fe  Fe141     1.0  0.52532  0.85302  0.55206  1.0000
  H   H1589     1.0  0.71480  0.98218  0.03891  1.0000
  Fe  Fe142     1.0  0.52791  0.87894  0.48592  1.0000
  S   S276      1.0  0.51300  0.88968  0.43587  1.0000
  S   S277      1.0  0.55057  0.86145  0.57444  1.0000
  S   S278      1.0  0.55350  0.88792  0.50308  1.0000
  H   H1590     1.0  0.74276  0.81705  0.13105  1.0000
  H   H1591     1.0  0.65878  0.98050  0.02447  1.0000
  H   H1592     1.0  0.70042  0.95861  0.04276  1.0000
  N   N65       1.0  0.56360  0.80159  0.56674  1.0000
  H   H1593     1.0  0.68647  0.96633  0.00888  1.0000
  C   C918      1.0  0.53271  0.92044  0.62687  1.0000
  C   C919      1.0  0.52125  0.90998  0.64623  1.0000
  C   C920      1.0  0.51147  0.91650  0.67630  1.0000
  C   C921      1.0  0.51278  0.93359  0.68661  1.0000
  C   C922      1.0  0.52381  0.94418  0.66640  1.0000
  C   C923      1.0  0.53393  0.93755  0.63702  1.0000
  H   H1594     1.0  0.52024  0.89677  0.63866  1.0000
  H   H1595     1.0  0.72437  0.83049  0.12266  1.0000
  H   H1596     1.0  0.54273  0.94572  0.62203  1.0000
  C   C924      1.0  0.51466  0.90959  0.41108  1.0000
  C   C925      1.0  0.50172  0.91478  0.38622  1.0000
  H   H1597     1.0  0.69952  0.77739  0.71753  1.0000
  N   N66       1.0  0.73552  0.78921  0.69743  1.0000
  H   H1598     1.0  0.59153  0.91944  0.25018  1.0000
  H   H1599     1.0  0.55019  0.97238  0.29702  1.0000
  C   C926      1.0  0.55148  0.96396  0.23917  1.0000
  H   H1600     1.0  0.67044  0.96356  0.11285  1.0000
  C   C927      1.0  0.73366  0.92482  0.73080  1.0000
  C   C928      1.0  0.71173  0.75062  0.61059  1.0000
  C   C929      1.0  0.72526  0.80357  0.71599  1.0000
  C   C930      1.0  0.69065  0.95479  0.93416  1.0000
  C   C931      1.0  0.69947  0.97006  0.93346  1.0000
  C   C932      1.0  0.66388  0.97113  0.94981  1.0000
  C   C933      1.0  0.67279  0.95548  0.94205  1.0000
  S   S279      1.0  0.52970  0.99261  0.17252  1.0000
  H   H1601     1.0  0.66583  0.94376  0.94269  1.0000
  C   C934      1.0  0.68135  0.97151  0.10325  1.0000
  C   C935      1.0  0.71684  0.86850  0.73572  1.0000
  C   C936      1.0  0.52850  0.92025  0.41528  1.0000
  C   C937      1.0  0.55706  0.96924  0.71919  1.0000
  H   H1602     1.0  0.53546  0.95736  0.74495  1.0000
  H   H1603     1.0  0.65022  0.97135  0.95635  1.0000
  S   S280      1.0  0.72798  0.88517  0.79689  1.0000
  H   H1604     1.0  0.57184  0.97133  0.27717  1.0000
  H   H1605     1.0  0.57404  0.94041  0.28163  1.0000
  C   C938      1.0  0.63921  0.84007  0.55364  1.0000
  C   C939      1.0  0.62634  0.85147  0.56775  1.0000
  C   C940      1.0  0.60993  0.85313  0.55185  1.0000
  C   C941      1.0  0.60619  0.84348  0.52130  1.0000
  C   C942      1.0  0.61899  0.83194  0.50737  1.0000
  C   C943      1.0  0.63534  0.83015  0.52357  1.0000
  H   H1606     1.0  0.62913  0.85919  0.59107  1.0000
  H   H1607     1.0  0.60027  0.86205  0.56296  1.0000
  H   H1608     1.0  0.61623  0.82435  0.48386  1.0000
  H   H1609     1.0  0.64493  0.82111  0.51282  1.0000
  C   C944      1.0  0.73515  0.85422  0.68910  1.0000
  H   H1610     1.0  0.56681  0.93599  0.71634  1.0000
  C   C945      1.0  0.66072  0.97880  0.05464  1.0000
  S   S281      1.0  0.73858  0.84257  0.64730  1.0000
  H   H1611     1.0  0.56416  0.81556  0.64467  1.0000
  C   C946      1.0  0.67714  0.94498  0.04069  1.0000
  C   C947      1.0  0.73122  0.87247  0.75649  1.0000
  C   C948      1.0  0.53914  0.92033  0.28251  1.0000
  H   H1612     1.0  0.54583  0.79177  0.50477  1.0000
  H   H1613     1.0  0.54520  0.92544  0.49947  1.0000
  C   C949      1.0  0.52927  0.93589  0.39512  1.0000
  H   H1614     1.0  0.50293  0.90824  0.69176  1.0000
  H   H1615     1.0  0.52677  0.93451  0.17020  1.0000
  H   H1616     1.0  0.55381  0.76553  0.57936  1.0000
  H   H1617     1.0  0.68612  0.76198  0.61458  1.0000
  H   H1618     1.0  0.71320  0.96977  0.92763  1.0000
  H   H1619     1.0  0.54040  0.80166  0.60143  1.0000
  H   H1620     1.0  0.53872  0.91634  0.43371  1.0000
  H   H1621     1.0  0.73556  0.89894  0.70599  1.0000
  C   C950      1.0  0.54376  0.77593  0.58194  1.0000
  H   H1622     1.0  0.55886  0.90809  0.77539  1.0000
  C   C951      1.0  0.54114  0.80438  0.51464  1.0000
  H   H1623     1.0  0.56942  0.96645  0.82683  1.0000
  H   H1624     1.0  0.54592  0.94452  0.30192  1.0000
  H   H1625     1.0  0.56258  0.82058  0.52179  1.0000
  C   C952      1.0  0.55385  0.81293  0.53965  1.0000
  C   C953      1.0  0.72755  0.91090  0.70505  1.0000
  H   H1626     1.0  0.54008  0.94396  0.39862  1.0000
  S   S282      1.0  0.50108  0.94103  0.72580  1.0000
  H   H1627     1.0  0.73788  0.84171  0.00387  1.0000
  H   H1628     1.0  0.58041  0.94907  0.23797  1.0000
  H   H1629     1.0  0.53949  0.81232  0.48909  1.0000
  S   S283      1.0  0.51834  0.96089  0.34535  1.0000
  H   H1630     1.0  0.55813  0.78940  0.61982  1.0000
  H   H1631     1.0  0.56711  0.90548  0.72950  1.0000
  C   C954      1.0  0.71055  0.76867  0.70974  1.0000
  H   H1632     1.0  0.70409  0.87264  0.74528  1.0000
  C   C955      1.0  0.72280  0.77744  0.68163  1.0000
  H   H1633     1.0  0.54895  0.92300  0.20885  1.0000
  H   H1634     1.0  0.74032  0.77953  0.75251  1.0000
  C   C956      1.0  0.74086  0.82814  0.41740  1.0000
  H   H1635     1.0  0.70114  0.96492  0.14318  1.0000
  C   C957      1.0  0.68666  0.96190  0.03811  1.0000
  H   H1636     1.0  0.50483  0.79981  0.62594  1.0000
  H   H1637     1.0  0.51638  0.91788  0.48989  1.0000
  S   S284      1.0  0.50685  0.97778  0.79772  1.0000
  C   C958      1.0  0.57861  0.92214  0.23842  1.0000
  C   C959      1.0  0.50251  0.93042  0.36596  1.0000
  H   H1638     1.0  0.73169  0.77627  0.06972  1.0000
  C   C960      1.0  0.54775  0.93718  0.20788  1.0000
  H   H1639     1.0  0.71421  0.90754  0.71334  1.0000
  H   H1640     1.0  0.67506  0.94049  0.06959  1.0000
  H   H1641     1.0  0.71459  0.78449  0.66112  1.0000
  S   S285      1.0  0.73566  0.92766  0.84572  1.0000
  H   H1642     1.0  0.70497  0.75748  0.69675  1.0000
  H   H1643     1.0  0.50343  0.94194  0.46126  1.0000
  C   C961      1.0  0.69061  0.98568  0.94167  1.0000
  H   H1644     1.0  0.53434  0.94469  0.48420  1.0000
  H   H1645     1.0  0.51973  0.91706  0.53794  1.0000
  H   H1646     1.0  0.53785  0.96843  0.23575  1.0000
  H   H1647     1.0  0.68033  0.98332  0.11986  1.0000
  H   H1648     1.0  0.65329  0.96742  0.06317  1.0000
  H   H1649     1.0  0.53389  0.91399  0.25845  1.0000
  H   H1650     1.0  0.55694  0.98810  0.26409  1.0000
  H   H1651     1.0  0.70752  0.85658  0.68696  1.0000
  H   H1652     1.0  0.55304  0.82884  0.61118  1.0000
  C   C962      1.0  0.73566  0.81594  0.73857  1.0000
  H   H1653     1.0  0.53640  0.77721  0.55635  1.0000
  H   H1654     1.0  0.74482  0.87719  0.08663  1.0000
  N   N67       1.0  0.50206  0.93756  0.52032  1.0000
  C   C963      1.0  0.56583  0.82345  0.61908  1.0000
  C   C964      1.0  0.49967  0.94908  0.48667  1.0000
  C   C965      1.0  0.54128  0.93960  0.27559  1.0000
  H   H1655     1.0  0.70943  0.96332  0.09736  1.0000
  H   H1656     1.0  0.52814  0.94554  0.27231  1.0000
  C   C966      1.0  0.57159  0.93978  0.25156  1.0000
  H   H1657     1.0  0.71555  0.79852  0.73595  1.0000
  S   S286      1.0  0.51417  0.83007  0.58480  1.0000
  H   H1658     1.0  0.52970  0.91859  0.30572  1.0000
  H   H1659     1.0  0.73108  0.80060  0.03365  1.0000
  H   H1660     1.0  0.71779  0.81140  0.69531  1.0000
  C   C967      1.0  0.69785  0.96124  0.11488  1.0000
  H   H1661     1.0  0.72630  0.93661  0.72222  1.0000
  H   H1662     1.0  0.57042  0.91146  0.24704  1.0000
  C   C968      1.0  0.51632  0.94109  0.37029  1.0000
  H   H1663     1.0  0.57473  0.97761  0.78409  1.0000
  C   C969      1.0  0.53503  0.93514  0.50722  1.0000
  H   H1664     1.0  0.50825  0.93892  0.57799  1.0000
  C   C970      1.0  0.56677  0.91420  0.75329  1.0000
  S   S287      1.0  0.51451  0.98939  0.71081  1.0000
  C   C971      1.0  0.52923  0.94162  0.19556  1.0000
  C   C972      1.0  0.55809  0.97425  0.27146  1.0000
  H   H1665     1.0  0.54626  0.82302  0.55432  1.0000
  H   H1666     1.0  0.52735  0.95537  0.18806  1.0000
  C   C973      1.0  0.55144  0.79282  0.59368  1.0000
  H   H1667     1.0  0.53449  0.77172  0.60385  1.0000
  Fe  Fe143     1.0  0.50016  0.96897  0.74121  1.0000
  H   H1668     1.0  0.54601  0.92965  0.72947  1.0000
  H   H1669     1.0  0.53955  0.94106  0.53253  1.0000
  H   H1670     1.0  0.55661  0.94135  0.18500  1.0000
  C   C974      1.0  0.74575  0.79725  0.66607  1.0000
  C   C975      1.0  0.57494  0.81291  0.58820  1.0000
  C   C976      1.0  0.57521  0.78857  0.54741  1.0000
  C   C977      1.0  0.58909  0.79592  0.52097  1.0000
  H   H1671     1.0  0.58555  0.80525  0.60161  1.0000
  H   H1672     1.0  0.58147  0.82228  0.56945  1.0000
  H   H1673     1.0  0.56782  0.77976  0.53097  1.0000
  H   H1674     1.0  0.58202  0.78023  0.56817  1.0000
  H   H1675     1.0  0.55131  0.91384  0.29124  1.0000
  H   H1676     1.0  0.58338  0.80366  0.49801  1.0000
  H   H1677     1.0  0.59835  0.80362  0.53560  1.0000
  H   H1678     1.0  0.59669  0.78517  0.50831  1.0000
  N   N68       1.0  0.55802  0.94531  0.76958  1.0000
  C   C978      1.0  0.54854  0.93934  0.80405  1.0000
  C   C979      1.0  0.57606  0.94941  0.78008  1.0000
  C   C980      1.0  0.55896  0.93173  0.74074  1.0000
  C   C981      1.0  0.54850  0.96078  0.75363  1.0000
  C   C982      1.0  0.53041  0.93260  0.79873  1.0000
  C   C983      1.0  0.57771  0.96608  0.80154  1.0000
  H   H1679     1.0  0.54571  0.97068  0.77471  1.0000
  H   H1680     1.0  0.58021  0.91513  0.76239  1.0000
  H   H1681     1.0  0.55615  0.92911  0.81893  1.0000
  H   H1682     1.0  0.54686  0.94993  0.82392  1.0000
  H   H1683     1.0  0.58488  0.95008  0.75550  1.0000
  H   H1684     1.0  0.58186  0.93892  0.79758  1.0000
  H   H1685     1.0  0.52469  0.95739  0.67370  1.0000
  H   H1686     1.0  0.51944  0.93775  0.21652  1.0000
  C   C984      1.0  0.73975  0.82596  0.07307  1.0000
  H   H1687     1.0  0.57127  0.96873  0.71954  1.0000
  H   H1688     1.0  0.52530  0.92772  0.82568  1.0000
  H   H1689     1.0  0.52130  0.94295  0.78961  1.0000
  H   H1690     1.0  0.72721  0.91566  0.67600  1.0000
  H   H1691     1.0  0.66463  0.94621  0.02652  1.0000
  H   H1692     1.0  0.59123  0.96704  0.81033  1.0000
  Fe  Fe144     1.0  0.50374  0.97674  0.30096  1.0000
  H   H1693     1.0  0.50850  0.95995  0.48723  1.0000
  H   H1694     1.0  0.58036  0.92218  0.20793  1.0000
  S   S288      1.0  0.72906  0.83457  0.45866  1.0000
  C   C985      1.0  0.67281  0.98632  0.95033  1.0000
  C   C986      1.0  0.51788  0.92608  0.51407  1.0000
  H   H1695     1.0  0.72878  0.92175  0.75933  1.0000
  N   N69       1.0  0.67941  0.85819  0.44674  1.0000
  C   C987      1.0  0.68952  0.85463  0.41139  1.0000
  C   C988      1.0  0.67796  0.84131  0.46736  1.0000
  C   C989      1.0  0.68972  0.86995  0.46922  1.0000
  C   C990      1.0  0.66215  0.86642  0.43700  1.0000
  C   C991      1.0  0.69488  0.87037  0.38800  1.0000
  C   C992      1.0  0.66916  0.82719  0.44661  1.0000
  C   C993      1.0  0.68168  0.87555  0.50645  1.0000
  C   C994      1.0  0.64732  0.86503  0.46614  1.0000
  H   H1696     1.0  0.70152  0.84689  0.41707  1.0000
  H   H1697     1.0  0.68208  0.84676  0.39275  1.0000
  H   H1698     1.0  0.67107  0.84261  0.49424  1.0000
  H   H1699     1.0  0.69101  0.83613  0.47468  1.0000
  H   H1700     1.0  0.70271  0.86395  0.47474  1.0000
  H   H1701     1.0  0.69206  0.88213  0.45391  1.0000
  H   H1702     1.0  0.66353  0.88024  0.43005  1.0000
  H   H1703     1.0  0.65732  0.86062  0.41166  1.0000
  H   H1704     1.0  0.70575  0.87677  0.40054  1.0000
  H   H1705     1.0  0.69970  0.86603  0.36054  1.0000
  H   H1706     1.0  0.68398  0.87966  0.38334  1.0000
  H   H1707     1.0  0.66698  0.81621  0.46593  1.0000
  H   H1708     1.0  0.65650  0.83159  0.43583  1.0000
  H   H1709     1.0  0.67757  0.82212  0.42391  1.0000
  H   H1710     1.0  0.67833  0.86467  0.52495  1.0000
  H   H1711     1.0  0.67026  0.88429  0.50251  1.0000
  H   H1712     1.0  0.69124  0.88287  0.52123  1.0000
  H   H1713     1.0  0.63946  0.87720  0.46609  1.0000
  H   H1714     1.0  0.65128  0.86269  0.49487  1.0000
  H   H1715     1.0  0.63832  0.85507  0.45852  1.0000
  C   C995      1.0  0.71875  0.85943  0.70241  1.0000
  H   H1716     1.0  0.53028  0.92188  0.77935  1.0000
  H   H1717     1.0  0.52833  0.80334  0.52870  1.0000
  H   H1718     1.0  0.55848  0.96830  0.21359  1.0000
  H   H1719     1.0  0.55333  0.98309  0.71805  1.0000
  H   H1720     1.0  0.71204  0.99116  0.08490  1.0000
  C   C996      1.0  0.50511  0.94772  0.55423  1.0000
  H   H1721     1.0  0.68496  0.93494  0.02597  1.0000
  H   H1722     1.0  0.71710  0.76386  0.73488  1.0000
  H   H1723     1.0  0.72930  0.76712  0.66565  1.0000
  C   C997      1.0  0.68843  0.99234  0.05258  1.0000
  H   H1724     1.0  0.72682  0.82644  0.74859  1.0000
  H   H1725     1.0  0.73408  0.96193  0.73792  1.0000
  N   N70       1.0  0.67964  0.97595  0.06272  1.0000
  H   H1726     1.0  0.72823  0.82857  0.05594  1.0000
  C   C998      1.0  0.69431  0.75089  0.62126  1.0000
  H   H1727     1.0  0.73504  0.85206  0.38873  1.0000
  H   H1728     1.0  0.51641  0.95588  0.55002  1.0000
  C   C999      1.0  0.73256  0.81993  0.11085  1.0000
  H   H1729     1.0  0.73690  0.80390  0.64619  1.0000
  Fe  Fe145     1.0  0.74042  0.89907  0.84495  1.0000
  C   C1000     1.0  0.74154  0.83963  0.38679  1.0000
  H   H1730     1.0  0.72415  0.80893  0.10828  1.0000
  H   H1731     1.0  0.73563  0.82036  0.98603  1.0000
  S   S289      1.0  0.49899  0.96978  0.24201  1.0000
  H   H1732     1.0  0.74126  0.80953  0.76335  1.0000
  C   C1001     1.0  0.74485  0.83023  0.99267  1.0000
  H   H1733     1.0  0.74600  0.82210  0.72226  1.0000
  C   C1002     1.0  0.74444  0.79782  0.04312  1.0000
  H   H1734     1.0  0.74374  0.78739  0.10174  1.0000
  C   C1003     1.0  0.74371  0.78329  0.07284  1.0000
  C   C1004     1.0  0.70814  0.99217  0.05573  1.0000
  H   H1735     1.0  0.74633  0.75240  0.73377  1.0000
  H   H1736     1.0  0.63730  0.99342  0.07005  1.0000
  Fe  Fe146     1.0  0.86421  0.00842  0.80327  1.0000
  S   S290      1.0  0.87061  0.03372  0.82685  1.0000
  C   C1005     1.0  0.93061  0.99992  0.86511  1.0000
  Fe  Fe147     1.0  0.88939  0.01437  0.73680  1.0000
  S   S291      1.0  0.89678  0.04022  0.75581  1.0000
  H   H1737     1.0  0.78038  0.20678  0.78528  1.0000
  Fe  Fe148     1.0  0.89811  0.02694  0.81159  1.0000
  H   H1738     1.0  0.80068  0.23098  0.64589  1.0000
  Fe  Fe149     1.0  0.86856  0.04505  0.76976  1.0000
  S   S292      1.0  0.85038  0.06828  0.75766  1.0000
  H   H1739     1.0  0.97057  0.08864  0.06095  1.0000
  S   S293      1.0  0.86081  0.02001  0.74640  1.0000
  H   H1740     1.0  0.77929  0.03488  0.87696  1.0000
  C   C1006     1.0  0.99520  0.05220  0.12565  1.0000
  H   H1741     1.0  0.96837  0.99915  0.80406  1.0000
  Fe  Fe150     1.0  0.83830  0.20378  0.84876  1.0000
  S   S294      1.0  0.82821  0.17728  0.85862  1.0000
  S   S295      1.0  0.85038  0.22091  0.89203  1.0000
  Fe  Fe151     1.0  0.82651  0.20554  0.76604  1.0000
  S   S296      1.0  0.81620  0.17898  0.77211  1.0000
  S   S297      1.0  0.81980  0.21947  0.71005  1.0000
  Fe  Fe152     1.0  0.80480  0.18695  0.82728  1.0000
  S   S298      1.0  0.77668  0.17891  0.83545  1.0000
  Fe  Fe153     1.0  0.84010  0.17122  0.80270  1.0000
  S   S299      1.0  0.85826  0.14787  0.79081  1.0000
  S   S300      1.0  0.81403  0.21381  0.82018  1.0000
  S   S301      1.0  0.85136  0.19740  0.79395  1.0000
  Fe  Fe154     1.0  0.94031  0.22292  0.13954  1.0000
  S   S302      1.0  0.96533  0.20819  0.15597  1.0000
  Fe  Fe155     1.0  0.91148  0.22980  0.08271  1.0000
  S   S303      1.0  0.89763  0.21557  0.03692  1.0000
  C   C1007     1.0  0.98225  0.15344  0.19540  1.0000
  S   S304      1.0  0.91232  0.21627  0.13881  1.0000
  S   S305      1.0  0.98417  0.03033  0.07399  1.0000
  C   C1008     1.0  0.82631  0.23024  0.66756  1.0000
  C   C1009     1.0  0.76897  0.23204  0.83756  1.0000
  H   H1742     1.0  0.75915  0.15162  0.91841  1.0000
  S   S306      1.0  0.89222  0.00086  0.79218  1.0000
  C   C1010     1.0  0.94922  0.00673  0.61339  1.0000
  H   H1743     1.0  0.75156  0.22910  0.71456  1.0000
  N   N71       1.0  0.85170  0.22897  0.09494  1.0000
  C   C1011     1.0  0.86369  0.21899  0.93211  1.0000
  C   C1012     1.0  0.86897  0.20320  0.94799  1.0000
  C   C1013     1.0  0.87935  0.20247  0.97969  1.0000
  C   C1014     1.0  0.88477  0.21746  0.99617  1.0000
  H   H1744     1.0  0.98459  0.03006  0.85855  1.0000
  C   C1015     1.0  0.88127  0.02092  0.92634  1.0000
  H   H1745     1.0  0.86509  0.19151  0.93581  1.0000
  H   H1746     1.0  0.88329  0.19014  0.99144  1.0000
  C   C1016     1.0  0.75916  0.18624  0.86435  1.0000
  C   C1017     1.0  0.76126  0.19744  0.89321  1.0000
  H   H1747     1.0  0.95699  0.01244  0.94935  1.0000
  H   H1748     1.0  0.77398  0.20167  0.89910  1.0000
  H   H1749     1.0  0.85783  0.02416  0.66005  1.0000
  C   C1018     1.0  0.79848  0.02420  0.83710  1.0000
  H   H1750     1.0  0.97918  0.00917  0.15831  1.0000
  H   H1751     1.0  0.78501  0.01280  0.88409  1.0000
  H   H1752     1.0  0.85559  0.03880  0.62197  1.0000
  S   S307      1.0  0.91857  0.03318  0.85186  1.0000
  C   C1019     1.0  0.98685  0.11097  0.06369  1.0000
  C   C1020     1.0  0.96482  0.15747  0.18796  1.0000
  C   C1021     1.0  0.95937  0.17406  0.17581  1.0000
  C   C1022     1.0  0.97131  0.18691  0.17094  1.0000
  H   H1753     1.0  0.77310  0.20971  0.70200  1.0000
  H   H1754     1.0  0.86831  0.02137  0.93978  1.0000
  H   H1755     1.0  0.95542  0.14771  0.19186  1.0000
  H   H1756     1.0  0.94592  0.17695  0.17050  1.0000
  C   C1023     1.0  0.94985  0.00891  0.92565  1.0000
  H   H1757     1.0  0.96679  0.14739  0.10714  1.0000
  H   H1758     1.0  0.81794  0.04781  0.76821  1.0000
  H   H1759     1.0  0.77695  0.22003  0.83898  1.0000
  C   C1024     1.0  0.97523  0.99695  0.83036  1.0000
  C   C1025     1.0  0.74741  0.21708  0.78256  1.0000
  C   C1026     1.0  0.93115  0.01515  0.66704  1.0000
  H   H1760     1.0  0.96075  0.11739  0.10694  1.0000
  H   H1761     1.0  0.83710  0.20155  0.02789  1.0000
  H   H1762     1.0  0.83425  0.04846  0.81981  1.0000
  H   H1763     1.0  0.92891  0.02320  0.69064  1.0000
  C   C1027     1.0  0.93084  0.01707  0.87513  1.0000
  H   H1764     1.0  0.79896  0.08371  0.82701  1.0000
  C   C1028     1.0  0.94070  0.02153  0.90507  1.0000
  H   H1765     1.0  0.79961  0.02828  0.89745  1.0000
  H   H1766     1.0  0.87294  0.02256  0.62265  1.0000
  N   N72       1.0  0.76246  0.22728  0.76910  1.0000
  H   H1767     1.0  0.95567  0.09674  0.15509  1.0000
  H   H1768     1.0  0.87382  0.00145  0.89077  1.0000
  C   C1029     1.0  0.96908  0.09686  0.14379  1.0000
  C   C1030     1.0  0.85260  0.09019  0.76913  1.0000
  C   C1031     1.0  0.83827  0.10172  0.76617  1.0000
  C   C1032     1.0  0.83954  0.11926  0.77400  1.0000
  C   C1033     1.0  0.85531  0.12561  0.78415  1.0000
  C   C1034     1.0  0.86966  0.11409  0.78670  1.0000
  C   C1035     1.0  0.86830  0.09650  0.77968  1.0000
  H   H1769     1.0  0.82609  0.09711  0.75766  1.0000
  H   H1770     1.0  0.82842  0.12792  0.77148  1.0000
  H   H1771     1.0  0.88196  0.11882  0.79433  1.0000
  H   H1772     1.0  0.87948  0.08790  0.78200  1.0000
  H   H1773     1.0  0.84172  0.04683  0.88048  1.0000
  H   H1774     1.0  0.74866  0.21202  0.93665  1.0000
  H   H1775     1.0  0.81962  0.04965  0.89027  1.0000
  H   H1776     1.0  0.76492  0.19369  0.73450  1.0000
  H   H1777     1.0  0.92324  0.99638  0.84179  1.0000
  H   H1778     1.0  0.89247  0.04041  0.58621  1.0000
  H   H1779     1.0  0.92607  0.04799  0.62533  1.0000
  C   C1036     1.0  0.77526  0.20282  0.72861  1.0000
  C   C1037     1.0  0.97855  0.14783  0.08924  1.0000
  C   C1038     1.0  0.97203  0.11436  0.12464  1.0000
  C   C1039     1.0  0.86594  0.22550  0.12190  1.0000
  C   C1040     1.0  0.77745  0.21504  0.76078  1.0000
  C   C1041     1.0  0.84336  0.23465  0.65968  1.0000
  S   S308      1.0  0.99368  0.00731  0.97807  1.0000
  H   H1780     1.0  0.97549  0.11775  0.05123  1.0000
  H   H1781     1.0  0.98168  0.05456  0.13222  1.0000
  H   H1782     1.0  0.89969  0.08329  0.70487  1.0000
  H   H1783     1.0  0.86664  0.19778  0.13376  1.0000
  H   H1784     1.0  0.92336  0.03930  0.58110  1.0000
  H   H1785     1.0  0.94094  0.03478  0.91293  1.0000
  N   N73       1.0  0.88824  0.05499  0.63632  1.0000
  C   C1042     1.0  0.87645  0.04418  0.66008  1.0000
  C   C1043     1.0  0.89944  0.06442  0.66184  1.0000
  C   C1044     1.0  0.89919  0.04311  0.61208  1.0000
  C   C1045     1.0  0.87712  0.06706  0.61330  1.0000
  C   C1046     1.0  0.86519  0.03185  0.63940  1.0000
  C   C1047     1.0  0.88998  0.07675  0.68885  1.0000
  C   C1048     1.0  0.91758  0.04855  0.60113  1.0000
  C   C1049     1.0  0.88657  0.08053  0.58974  1.0000
  H   H1786     1.0  0.88409  0.03623  0.68011  1.0000
  H   H1787     1.0  0.86732  0.05226  0.67693  1.0000
  H   H1788     1.0  0.90891  0.07223  0.64626  1.0000
  H   H1789     1.0  0.90734  0.05507  0.67864  1.0000
  H   H1790     1.0  0.90126  0.03039  0.62596  1.0000
  H   H1791     1.0  0.87314  0.21051  0.17075  1.0000
  H   H1792     1.0  0.86951  0.05987  0.59369  1.0000
  H   H1793     1.0  0.86741  0.07401  0.63105  1.0000
  H   H1794     1.0  0.89611  0.00540  0.88822  1.0000
  S   S309      1.0  0.96811  0.01000  0.58555  1.0000
  C   C1050     1.0  0.80696  0.07247  0.81775  1.0000
  H   H1795     1.0  0.75598  0.22973  0.84962  1.0000
  H   H1796     1.0  0.78739  0.19500  0.72490  1.0000
  H   H1797     1.0  0.88182  0.06994  0.70942  1.0000
  H   H1798     1.0  0.97080  0.08604  0.12488  1.0000
  S   S310      1.0  0.98833  0.13206  0.20943  1.0000
  H   H1799     1.0  0.75344  0.14425  0.96375  1.0000
  H   H1800     1.0  0.89419  0.08897  0.60658  1.0000
  H   H1801     1.0  0.87687  0.08891  0.57535  1.0000
  H   H1802     1.0  0.89481  0.07451  0.56800  1.0000
  H   H1803     1.0  0.79598  0.04223  0.76870  1.0000
  H   H1804     1.0  0.85071  0.20967  0.16128  1.0000
  H   H1805     1.0  0.97767  0.09481  0.16768  1.0000
  H   H1806     1.0  0.99611  0.03720  0.89668  1.0000
  H   H1807     1.0  0.89131  0.02446  0.94558  1.0000
  H   H1808     1.0  0.82942  0.02822  0.89110  1.0000
  C   C1051     1.0  0.74686  0.20328  0.91452  1.0000
  C   C1052     1.0  0.98876  0.18283  0.17814  1.0000
  N   N74       1.0  0.85933  0.17207  0.67864  1.0000
  C   C1053     1.0  0.84402  0.18457  0.67862  1.0000
  C   C1054     1.0  0.87125  0.17740  0.70812  1.0000
  C   C1055     1.0  0.85269  0.15467  0.68897  1.0000
  C   C1056     1.0  0.86768  0.17217  0.64054  1.0000
  C   C1057     1.0  0.82911  0.18033  0.65345  1.0000
  C   C1058     1.0  0.87650  0.19625  0.70563  1.0000
  C   C1059     1.0  0.86619  0.13984  0.69253  1.0000
  C   C1060     1.0  0.88722  0.16772  0.63784  1.0000
  H   H1809     1.0  0.83852  0.18600  0.70706  1.0000
  H   H1810     1.0  0.84795  0.19757  0.66958  1.0000
  H   H1811     1.0  0.88329  0.16932  0.70866  1.0000
  H   H1812     1.0  0.86523  0.17533  0.73596  1.0000
  H   H1813     1.0  0.84525  0.15524  0.71567  1.0000
  H   H1814     1.0  0.84353  0.15044  0.66829  1.0000
  H   H1815     1.0  0.86118  0.16325  0.62239  1.0000
  H   H1816     1.0  0.86598  0.18498  0.62663  1.0000
  H   H1817     1.0  0.83367  0.17717  0.62514  1.0000
  H   H1818     1.0  0.82143  0.16982  0.66555  1.0000
  H   H1819     1.0  0.82015  0.19171  0.65111  1.0000
  H   H1820     1.0  0.88001  0.20042  0.67711  1.0000
  H   H1821     1.0  0.86593  0.20491  0.71623  1.0000
  H   H1822     1.0  0.88775  0.19793  0.72335  1.0000
  H   H1823     1.0  0.87183  0.13634  0.66530  1.0000
  H   H1824     1.0  0.85963  0.12833  0.70340  1.0000
  H   H1825     1.0  0.87633  0.14236  0.71244  1.0000
  H   H1826     1.0  0.89489  0.17808  0.64862  1.0000
  H   H1827     1.0  0.89110  0.16641  0.60832  1.0000
  H   H1828     1.0  0.89099  0.15558  0.65215  1.0000
  C   C1061     1.0  0.80875  0.03853  0.78045  1.0000
  C   C1062     1.0  0.99227  0.02555  0.88250  1.0000
  C   C1063     1.0  0.88513  0.00359  0.90804  1.0000
  H   H1829     1.0  0.82534  0.23898  0.09384  1.0000
  H   H1830     1.0  0.78943  0.22204  0.75504  1.0000
  H   H1831     1.0  0.95759  0.99920  0.39529  1.0000
  H   H1832     1.0  0.86379  0.20920  0.06086  1.0000
  H   H1833     1.0  0.88105  0.03113  0.90454  1.0000
  C   C1064     1.0  0.83870  0.21455  0.03869  1.0000
  S   S311      1.0  0.89888  0.00185  0.68311  1.0000
  H   H1834     1.0  0.98417  0.01840  0.90249  1.0000
  Fe  Fe156     1.0  0.99237  0.00736  0.03995  1.0000
  H   H1835     1.0  0.80776  0.07337  0.78722  1.0000
  H   H1836     1.0  0.86927  0.24079  0.05579  1.0000
  H   H1837     1.0  0.81996  0.07380  0.82911  1.0000
  H   H1838     1.0  0.78520  0.05606  0.82099  1.0000
  C   C1065     1.0  0.98367  0.99560  0.15549  1.0000
  C   C1066     1.0  0.82914  0.04091  0.87664  1.0000
  H   H1839     1.0  0.78753  0.02153  0.81904  1.0000
  C   C1067     1.0  0.79851  0.05593  0.83185  1.0000
  C   C1068     1.0  0.98434  0.09179  0.05750  1.0000
  C   C1069     1.0  0.87944  0.23326  0.98036  1.0000
  C   C1070     1.0  0.86898  0.23399  0.94880  1.0000
  H   H1840     1.0  0.88217  0.08689  0.67448  1.0000
  H   H1841     1.0  0.79665  0.05724  0.86203  1.0000
  H   H1842     1.0  0.83293  0.02659  0.82795  1.0000
  H   H1843     1.0  0.98875  0.08862  0.02902  1.0000
  C   C1071     1.0  0.82635  0.03892  0.83506  1.0000
  H   H1844     1.0  0.80374  0.01163  0.76820  1.0000
  S   S312      1.0  0.94004  0.23493  0.08220  1.0000
  Fe  Fe157     1.0  0.90622  0.24224  0.16356  1.0000
  C   C1072     1.0  0.76798  0.23945  0.79788  1.0000
  C   C1073     1.0  0.86373  0.20993  0.14823  1.0000
  H   H1845     1.0  0.95536  0.02628  0.65131  1.0000
  H   H1846     1.0  0.82573  0.21992  0.04622  1.0000
  H   H1847     1.0  0.82605  0.01535  0.77645  1.0000
  H   H1848     1.0  0.80703  0.01241  0.83690  1.0000
  C   C1074     1.0  0.74847  0.15145  0.93938  1.0000
  H   H1849     1.0  0.90081  0.00212  0.97713  1.0000
  H   H1850     1.0  0.81657  0.02247  0.73421  1.0000
  C   C1075     1.0  0.79031  0.02541  0.87619  1.0000
  C   C1076     1.0  0.81389  0.23434  0.64061  1.0000
  C   C1077     1.0  0.81411  0.02093  0.76439  1.0000
  C   C1078     1.0  0.84782  0.24297  0.62575  1.0000
  N   N75       1.0  0.80806  0.03943  0.82209  1.0000
  H   H1851     1.0  0.84648  0.20211  0.08900  1.0000
  H   H1852     1.0  0.97081  0.12374  0.14719  1.0000
  C   C1079     1.0  0.94613  0.01688  0.64461  1.0000
  H   H1853     1.0  0.86806  0.23661  0.13917  1.0000
  H   H1854     1.0  0.97603  0.23992  0.11918  1.0000
  N   N76       1.0  0.98876  0.11637  0.10294  1.0000
  H   H1855     1.0  0.98695  0.99994  0.37481  1.0000
  C   C1080     1.0  0.91889  0.00335  0.65822  1.0000
  H   H1856     1.0  0.87080  0.00662  0.99178  1.0000
  H   H1857     1.0  0.97423  0.99857  0.33559  1.0000
  H   H1858     1.0  0.87846  0.22342  0.10677  1.0000
  C   C1081     1.0  0.85079  0.21320  0.07187  1.0000
  H   H1859     1.0  0.98319  0.16105  0.09095  1.0000
  H   H1860     1.0  0.84441  0.22214  0.01551  1.0000
  H   H1861     1.0  0.99227  0.08315  0.07531  1.0000
  H   H1862     1.0  0.82836  0.22007  0.12136  1.0000
  H   H1863     1.0  0.91798  0.06142  0.58808  1.0000
  H   H1864     1.0  0.96994  0.00661  0.84970  1.0000
  H   H1865     1.0  0.97612  0.24122  0.18555  1.0000
  C   C1082     1.0  0.83433  0.23240  0.11351  1.0000
  S   S313      1.0  0.97870  0.99357  0.47920  1.0000
  H   H1866     1.0  0.97521  0.14593  0.06015  1.0000
  C   C1083     1.0  0.99422  0.16623  0.19023  1.0000
  H   H1867     1.0  0.85313  0.23181  0.67985  1.0000
  C   C1084     1.0  0.99297  0.13508  0.10228  1.0000
  C   C1085     1.0  0.75723  0.23744  0.73514  1.0000
  H   H1868     1.0  0.83287  0.23434  0.17405  1.0000
  C   C1086     1.0  0.99483  0.99808  0.82291  1.0000
  C   C1087     1.0  0.93717  0.99464  0.60513  1.0000
  H   H1869     1.0  0.77500  0.24137  0.85536  1.0000
  H   H1870     1.0  0.75107  0.20807  0.80546  1.0000
  H   H1871     1.0  0.91453  0.99754  0.93936  1.0000
  C   C1088     1.0  0.81837  0.24263  0.60662  1.0000
  Fe  Fe158     1.0  0.98218  0.99385  0.54097  1.0000
  H   H1872     1.0  0.78234  0.23884  0.70503  1.0000
  C   C1089     1.0  0.83396  0.24290  0.14929  1.0000
  Fe  Fe159     1.0  0.85448  0.45575  0.48012  1.0000
  S   S314      1.0  0.86949  0.44061  0.43689  1.0000
  S   S315      1.0  0.82691  0.46486  0.46496  1.0000
  Fe  Fe160     1.0  0.88500  0.45261  0.53493  1.0000
  S   S316      1.0  0.90149  0.43734  0.49499  1.0000
  S   S317      1.0  0.89425  0.46388  0.58896  1.0000
  Fe  Fe161     1.0  0.89190  0.45620  0.45180  1.0000
  S   S318      1.0  0.90887  0.47377  0.41767  1.0000
  Fe  Fe162     1.0  0.87745  0.42271  0.48374  1.0000
  S   S319      1.0  0.88081  0.39334  0.47843  1.0000
  S   S320      1.0  0.87645  0.47225  0.49203  1.0000
  S   S321      1.0  0.86135  0.43698  0.52668  1.0000
  S   S322      1.0  0.97427  0.46866  0.79399  1.0000
  S   S323      1.0  0.88313  0.24729  0.20437  1.0000
  Fe  Fe163     1.0  0.97632  0.47328  0.73209  1.0000
  H   H1873     1.0  0.95940  0.43642  0.09931  1.0000
  C   C1090     1.0  0.96404  0.46692  0.42928  1.0000
  Fe  Fe164     1.0  0.97780  0.47553  0.26527  1.0000
  S   S324      1.0  0.95290  0.46138  0.27075  1.0000
  C   C1091     1.0  0.97542  0.42335  0.47628  1.0000
  Fe  Fe165     1.0  0.82882  0.30336  0.45550  1.0000
  S   S325      1.0  0.85145  0.28562  0.46723  1.0000
  S   S326      1.0  0.82832  0.33279  0.45810  1.0000
  Fe  Fe166     1.0  0.80606  0.27344  0.43749  1.0000
  S   S327      1.0  0.82792  0.25387  0.44783  1.0000
  S   S328      1.0  0.78031  0.26267  0.42041  1.0000
  Fe  Fe167     1.0  0.83287  0.26870  0.49911  1.0000
  S   S329      1.0  0.84205  0.25775  0.55629  1.0000
  Fe  Fe168     1.0  0.84469  0.27212  0.41516  1.0000
  S   S330      1.0  0.86777  0.26630  0.37490  1.0000
  S   S331      1.0  0.81039  0.28746  0.49009  1.0000
  S   S332      1.0  0.82265  0.29070  0.40234  1.0000
  C   C1092     1.0  0.80089  0.48562  0.43547  1.0000
  S   S333      1.0  0.90409  0.25533  0.10740  1.0000
  Fe  Fe169     1.0  0.93269  0.25956  0.11055  1.0000
  S   S334      1.0  0.94360  0.28642  0.10284  1.0000
  H   H1874     1.0  0.95951  0.32650  0.95970  1.0000
  C   C1093     1.0  0.85644  0.48124  0.38688  1.0000
  N   N77       1.0  0.98629  0.43084  0.08513  1.0000
  C   C1094     1.0  0.97639  0.36302  0.97006  1.0000
  H   H1875     1.0  0.84456  0.26637  0.09595  1.0000
  C   C1095     1.0  0.87161  0.26118  0.32720  1.0000
  C   C1096     1.0  0.85831  0.25948  0.30230  1.0000
  H   H1876     1.0  0.97550  0.46067  0.04019  1.0000
  H   H1877     1.0  0.98119  0.47608  0.56582  1.0000
  H   H1878     1.0  0.77706  0.25699  0.73377  1.0000
  H   H1879     1.0  0.82213  0.25133  0.14994  1.0000
  C   C1097     1.0  0.76150  0.27192  0.39923  1.0000
  C   C1098     1.0  0.75787  0.28959  0.39780  1.0000
  H   H1880     1.0  0.76694  0.29816  0.40880  1.0000
  H   H1881     1.0  0.88578  0.47558  0.35439  1.0000
  H   H1882     1.0  0.97745  0.38719  0.08204  1.0000
  C   C1099     1.0  0.99612  0.33879  0.95494  1.0000
  C   C1100     1.0  0.96879  0.43857  0.07612  1.0000
  C   C1101     1.0  0.93169  0.48232  0.36314  1.0000
  H   H1883     1.0  0.89921  0.26018  0.33262  1.0000
  C   C1102     1.0  0.97207  0.28576  0.05408  1.0000
  C   C1103     1.0  0.96245  0.29472  0.08096  1.0000
  C   C1104     1.0  0.96788  0.31090  0.09098  1.0000
  C   C1105     1.0  0.98296  0.31785  0.07517  1.0000
  H   H1884     1.0  0.96780  0.27354  0.04534  1.0000
  H   H1885     1.0  0.96051  0.31802  0.11156  1.0000
  C   C1106     1.0  0.98713  0.29271  0.03820  1.0000
  C   C1107     1.0  0.92014  0.47005  0.37580  1.0000
  C   C1108     1.0  0.91808  0.45541  0.35520  1.0000
  C   C1109     1.0  0.92797  0.45295  0.32252  1.0000
  C   C1110     1.0  0.94008  0.46495  0.31079  1.0000
  H   H1886     1.0  0.97998  0.43052  0.16418  1.0000
  H   H1887     1.0  0.96872  0.47419  0.45277  1.0000
  H   H1888     1.0  0.90902  0.44598  0.36452  1.0000
  H   H1889     1.0  0.92648  0.44159  0.30665  1.0000
  H   H1890     1.0  0.97477  0.41188  0.12167  1.0000
  C   C1111     1.0  0.97755  0.46938  0.39774  1.0000
  C   C1112     1.0  0.91386  0.46305  0.61405  1.0000
  C   C1113     1.0  0.92759  0.45150  0.60597  1.0000
  C   C1114     1.0  0.94251  0.45091  0.62763  1.0000
  C   C1115     1.0  0.94408  0.46191  0.65754  1.0000
  C   C1116     1.0  0.93052  0.47369  0.66516  1.0000
  C   C1117     1.0  0.91552  0.47416  0.64371  1.0000
  H   H1891     1.0  0.92649  0.44270  0.58369  1.0000
  S   S335      1.0  0.96341  0.46048  0.68362  1.0000
  H   H1892     1.0  0.94010  0.41963  0.38392  1.0000
  H   H1893     1.0  0.94316  0.43571  0.47882  1.0000
  C   C1118     1.0  0.86596  0.37672  0.47243  1.0000
  C   C1119     1.0  0.84830  0.38008  0.46801  1.0000
  C   C1120     1.0  0.83711  0.36650  0.46324  1.0000
  C   C1121     1.0  0.84331  0.34934  0.46289  1.0000
  C   C1122     1.0  0.86098  0.34595  0.46724  1.0000
  C   C1123     1.0  0.87219  0.35953  0.47193  1.0000
  H   H1894     1.0  0.84324  0.39316  0.46828  1.0000
  H   H1895     1.0  0.82348  0.36936  0.45999  1.0000
  H   H1896     1.0  0.86601  0.33287  0.46728  1.0000
  H   H1897     1.0  0.88580  0.35673  0.47538  1.0000
  H   H1898     1.0  0.88348  0.24496  0.99222  1.0000
  C   C1124     1.0  0.98347  0.44286  0.15094  1.0000
  N   N78       1.0  0.84040  0.31820  0.57497  1.0000
  C   C1125     1.0  0.85439  0.31881  0.54533  1.0000
  C   C1126     1.0  0.82604  0.33050  0.56308  1.0000
  C   C1127     1.0  0.83421  0.30010  0.57736  1.0000
  C   C1128     1.0  0.84810  0.32308  0.61076  1.0000
  C   C1129     1.0  0.86953  0.30552  0.54925  1.0000
  C   C1130     1.0  0.83042  0.34959  0.56110  1.0000
  C   C1131     1.0  0.81586  0.29741  0.59305  1.0000
  C   C1132     1.0  0.83570  0.32497  0.64437  1.0000
  H   H1899     1.0  0.84887  0.31698  0.51771  1.0000
  H   H1900     1.0  0.86033  0.33152  0.54385  1.0000
  H   H1901     1.0  0.81449  0.32976  0.58146  1.0000
  H   H1902     1.0  0.82139  0.32699  0.53555  1.0000
  H   H1903     1.0  0.83433  0.29447  0.54944  1.0000
  H   H1904     1.0  0.84313  0.29167  0.59391  1.0000
  H   H1905     1.0  0.85809  0.31333  0.61942  1.0000
  H   H1906     1.0  0.85542  0.33502  0.60748  1.0000
  H   H1907     1.0  0.87703  0.30746  0.57429  1.0000
  H   H1908     1.0  0.86528  0.29214  0.54888  1.0000
  H   H1909     1.0  0.87853  0.30709  0.52524  1.0000
  H   H1910     1.0  0.84090  0.35230  0.54085  1.0000
  H   H1911     1.0  0.81892  0.35721  0.55163  1.0000
  H   H1912     1.0  0.83369  0.35439  0.58846  1.0000
  H   H1913     1.0  0.81350  0.30309  0.62035  1.0000
  H   H1914     1.0  0.81399  0.28343  0.59642  1.0000
  H   H1915     1.0  0.80598  0.30235  0.57348  1.0000
  H   H1916     1.0  0.83432  0.31248  0.65920  1.0000
  H   H1917     1.0  0.82284  0.33046  0.63750  1.0000
  H   H1918     1.0  0.84097  0.33417  0.66364  1.0000
  C   C1133     1.0  0.94881  0.45928  0.50383  1.0000
  C   C1134     1.0  0.96332  0.32712  0.93018  1.0000
  H   H1919     1.0  0.93143  0.48224  0.68795  1.0000
  H   H1920     1.0  0.76637  0.25453  0.69129  1.0000
  H   H1921     1.0  0.97272  0.46579  0.08853  1.0000
  C   C1135     1.0  0.81694  0.48513  0.45282  1.0000
  H   H1922     1.0  0.97166  0.45096  0.14641  1.0000
  H   H1923     1.0  0.96711  0.43286  0.39282  1.0000
  C   C1136     1.0  0.98563  0.25011  0.11590  1.0000
  C   C1137     1.0  0.89257  0.25486  0.27659  1.0000
  C   C1138     1.0  0.88875  0.25894  0.31385  1.0000
  H   H1924     1.0  0.79487  0.47373  0.42998  1.0000
  H   H1925     1.0  0.96077  0.45531  0.51821  1.0000
  H   H1926     1.0  0.97246  0.37619  0.88350  1.0000
  H   H1927     1.0  0.84719  0.24572  0.04716  1.0000
  H   H1928     1.0  0.96343  0.43214  0.05216  1.0000
  H   H1929     1.0  0.97761  0.26195  0.11201  1.0000
  N   N79       1.0  0.87590  0.32135  0.35667  1.0000
  C   C1139     1.0  0.88814  0.32040  0.38851  1.0000
  C   C1140     1.0  0.87635  0.33938  0.34101  1.0000
  C   C1141     1.0  0.88278  0.30899  0.32807  1.0000
  C   C1142     1.0  0.85825  0.31657  0.37080  1.0000
  C   C1143     1.0  0.89104  0.30269  0.40754  1.0000
  C   C1144     1.0  0.86938  0.35355  0.36699  1.0000
  C   C1145     1.0  0.87205  0.30732  0.29329  1.0000
  C   C1146     1.0  0.84262  0.32218  0.34694  1.0000
  H   H1930     1.0  0.90109  0.32485  0.37958  1.0000
  H   H1931     1.0  0.88354  0.32911  0.41073  1.0000
  H   H1932     1.0  0.86933  0.34102  0.31497  1.0000
  H   H1933     1.0  0.88981  0.34253  0.33277  1.0000
  H   H1934     1.0  0.89608  0.31227  0.31892  1.0000
  H   H1935     1.0  0.88386  0.29577  0.33980  1.0000
  H   H1936     1.0  0.85780  0.30246  0.37497  1.0000
  H   H1937     1.0  0.85558  0.32181  0.39877  1.0000
  H   H1938     1.0  0.87881  0.29674  0.41569  1.0000
  H   H1939     1.0  0.89897  0.29380  0.39012  1.0000
  H   H1940     1.0  0.89828  0.30422  0.43320  1.0000
  H   H1941     1.0  0.85647  0.35090  0.37904  1.0000
  H   H1942     1.0  0.87838  0.35571  0.38953  1.0000
  H   H1943     1.0  0.86810  0.36584  0.35114  1.0000
  H   H1944     1.0  0.85961  0.30134  0.29993  1.0000
  H   H1945     1.0  0.87913  0.29842  0.27427  1.0000
  H   H1946     1.0  0.87001  0.31956  0.27783  1.0000
  H   H1947     1.0  0.83543  0.31078  0.33970  1.0000
  H   H1948     1.0  0.84564  0.32885  0.32064  1.0000
  H   H1949     1.0  0.83348  0.33053  0.36311  1.0000
  H   H1950     1.0  0.99245  0.25164  0.20902  1.0000
  H   H1951     1.0  0.95284  0.44167  0.62149  1.0000
  N   N80       1.0  0.98385  0.35227  0.93909  1.0000
  H   H1952     1.0  0.98720  0.43916  0.43423  1.0000
  C   C1147     1.0  0.96975  0.34479  0.91721  1.0000
  H   H1953     1.0  0.86104  0.24629  0.62035  1.0000
  C   C1148     1.0  0.94614  0.44886  0.46900  1.0000
  C   C1149     1.0  0.96815  0.45788  0.06608  1.0000
  H   H1954     1.0  0.97209  0.47118  0.60982  1.0000
  H   H1955     1.0  0.90581  0.25303  0.26716  1.0000
  H   H1956     1.0  0.98652  0.24878  0.05607  1.0000
  N   N81       1.0  0.96068  0.44861  0.44060  1.0000
  H   H1957     1.0  0.96521  0.27108  0.16245  1.0000
  C   C1150     1.0  0.96678  0.35360  0.00162  1.0000
  H   H1958     1.0  0.87123  0.47652  0.31756  1.0000
  H   H1959     1.0  0.95455  0.46208  0.06124  1.0000
  H   H1960     1.0  0.97390  0.34322  0.88782  1.0000
  H   H1961     1.0  0.97425  0.46312  0.37188  1.0000
  S   S336      1.0  0.93427  0.24795  0.16793  1.0000
  H   H1962     1.0  0.86644  0.26135  0.11051  1.0000
  H   H1963     1.0  0.93787  0.45712  0.52352  1.0000
  H   H1964     1.0  0.96382  0.36277  0.02403  1.0000
  H   H1965     1.0  0.95179  0.32418  0.91432  1.0000
  H   H1966     1.0  0.85477  0.45891  0.35103  1.0000
  H   H1967     1.0  0.99064  0.46491  0.40605  1.0000
  H   H1968     1.0  0.98231  0.44958  0.47653  1.0000
  H   H1969     1.0  0.98708  0.33017  0.08369  1.0000
  C   C1151     1.0  0.98428  0.37968  0.89755  1.0000
  H   H1970     1.0  0.90501  0.48311  0.65040  1.0000
  C   C1152     1.0  0.97364  0.26875  0.18633  1.0000
  C   C1153     1.0  0.97707  0.44080  0.45625  1.0000
  C   C1154     1.0  0.84627  0.46751  0.36790  1.0000
  H   H1971     1.0  0.75943  0.25119  0.79876  1.0000
  H   H1972     1.0  0.92878  0.43206  0.41772  1.0000
  H   H1973     1.0  0.95421  0.34919  0.99263  1.0000
  H   H1974     1.0  0.99136  0.44257  0.87716  1.0000
  C   C1155     1.0  0.98489  0.25218  0.18340  1.0000
  C   C1156     1.0  0.94153  0.42587  0.41081  1.0000
  H   H1975     1.0  0.84506  0.26116  0.31180  1.0000
  S   S337      1.0  0.98941  0.48315  0.20984  1.0000
  H   H1976     1.0  0.94850  0.47323  0.49749  1.0000
  H   H1977     1.0  0.84488  0.25131  0.15261  1.0000
  H   H1978     1.0  0.94441  0.41562  0.43139  1.0000
  H   H1979     1.0  0.96705  0.37298  0.95954  1.0000
  C   C1157     1.0  0.98420  0.41256  0.09817  1.0000
  H   H1980     1.0  0.86645  0.47458  0.40404  1.0000
  C   C1158     1.0  0.94181  0.47967  0.33115  1.0000
  H   H1981     1.0  0.95185  0.47369  0.42089  1.0000
  H   H1982     1.0  0.83571  0.47325  0.35114  1.0000
  H   H1983     1.0  0.97312  0.31674  0.92467  1.0000
  H   H1984     1.0  0.95051  0.44834  0.38515  1.0000
  C   C1159     1.0  0.74943  0.26103  0.38480  1.0000
  C   C1160     1.0  0.99556  0.24697  0.07919  1.0000
  C   C1161     1.0  0.87927  0.25290  0.25181  1.0000
  H   H1985     1.0  0.96475  0.40376  0.06009  1.0000
  H   H1986     1.0  0.99139  0.42652  0.02677  1.0000
  H   H1987     1.0  0.96491  0.26761  0.21092  1.0000
  H   H1988     1.0  0.95828  0.35376  0.91626  1.0000
  H   H1989     1.0  0.97454  0.34294  0.01430  1.0000
  H   H1990     1.0  0.86254  0.27053  0.06611  1.0000
  C   C1162     1.0  0.95567  0.43922  0.40650  1.0000
  H   H1991     1.0  0.97066  0.42493  0.50517  1.0000
  H   H1992     1.0  0.93413  0.45423  0.45643  1.0000
  C   C1163     1.0  0.97794  0.40022  0.06923  1.0000
  H   H1993     1.0  0.75210  0.24735  0.38558  1.0000
  C   C1164     1.0  0.86213  0.25535  0.26505  1.0000
  C   C1165     1.0  0.85752  0.26133  0.08720  1.0000
  H   H1994     1.0  0.98154  0.27999  0.19070  1.0000
  H   H1995     1.0  0.84014  0.45927  0.38943  1.0000
  H   H1996     1.0  0.86508  0.24631  0.93696  1.0000
  H   H1997     1.0  0.84745  0.48721  0.40727  1.0000
  H   H1998     1.0  0.96770  0.41436  0.46140  1.0000
  H   H1999     1.0  0.97828  0.48327  0.39089  1.0000
  C   C1166     1.0  0.83542  0.24705  0.59875  1.0000
  H   H2000     1.0  0.98683  0.39922  0.04498  1.0000
  H   H2001     1.0  0.98954  0.28454  0.13024  1.0000
  H   H2002     1.0  0.99573  0.47194  0.64743  1.0000
  H   H2003     1.0  0.99118  0.44953  0.17115  1.0000
  H   H2004     1.0  0.80860  0.24556  0.58643  1.0000
  H   H2005     1.0  0.98767  0.42576  0.93571  1.0000
  H   H2006     1.0  0.95082  0.48914  0.32201  1.0000
  H   H2007     1.0  0.85167  0.25390  0.24640  1.0000
  H   H2008     1.0  0.98104  0.38934  0.91876  1.0000
  H   H2009     1.0  0.99272  0.38611  0.87671  1.0000
  C   C1167     1.0  0.87770  0.48463  0.33740  1.0000
  H   H2010     1.0  0.99451  0.28557  0.01764  1.0000
  C   C1168     1.0  0.97574  0.48204  0.59129  1.0000
  H   H2011     1.0  0.98850  0.41721  0.47854  1.0000
  H   H2012     1.0  0.74673  0.24700  0.74205  1.0000
  H   H2013     1.0  0.98927  0.32909  0.97185  1.0000
  C   C1169     1.0  0.99275  0.30874  0.04878  1.0000
  H   H2014     1.0  0.98679  0.37009  0.98290  1.0000
  H   H2015     1.0  0.95069  0.48232  0.56615  1.0000
  C   C1170     1.0  0.95881  0.49140  0.58025  1.0000
  H   H2016     1.0  0.89867  0.48699  0.29698  1.0000
  C   C1171     1.0  0.99420  0.36390  0.91396  1.0000
  C   C1172     1.0  0.77172  0.24742  0.71556  1.0000
  C   C1173     1.0  0.99446  0.44041  0.11530  1.0000
  N   N82       1.0  0.98895  0.49263  0.60909  1.0000
  H   H2017     1.0  0.78099  0.24428  0.79078  1.0000
  C   C1174     1.0  0.85656  0.24369  0.06961  1.0000
  H   H2018     1.0  0.99641  0.40698  0.10938  1.0000
  Fe  Fe170     1.0  0.77672  0.65637  0.00713  1.0000
  S   S338      1.0  0.80380  0.66598  0.01352  1.0000
  H   H2019     1.0  0.83836  0.52541  0.36289  1.0000
  Fe  Fe171     1.0  0.77529  0.64297  0.08935  1.0000
  S   S339      1.0  0.80181  0.65154  0.09969  1.0000
  H   H2020     1.0  0.77549  0.59654  0.06650  1.0000
  Fe  Fe172     1.0  0.79433  0.67596  0.06882  1.0000
  S   S340      1.0  0.80509  0.69957  0.09556  1.0000
  Fe  Fe173     1.0  0.80956  0.64105  0.04428  1.0000
  S   S341      1.0  0.83360  0.62301  0.04637  1.0000
  S   S342      1.0  0.78312  0.63082  0.03526  1.0000
  S   S343      1.0  0.76172  0.57533  0.39187  1.0000
  Fe  Fe174     1.0  0.76489  0.54653  0.39275  1.0000
  S   S344      1.0  0.79037  0.53712  0.41931  1.0000
  Fe  Fe175     1.0  0.97524  0.62103  0.03912  1.0000
  S   S345      1.0  0.95020  0.61716  0.07133  1.0000
  C   C1175     1.0  0.76142  0.68399  0.15152  1.0000
  Fe  Fe176     1.0  0.96596  0.59438  0.98029  1.0000
  S   S346      1.0  0.94043  0.58933  0.00759  1.0000
  S   S347      1.0  0.97751  0.58158  0.92843  1.0000
  Fe  Fe177     1.0  0.93733  0.61767  0.01603  1.0000
  S   S348      1.0  0.91284  0.63339  0.00024  1.0000
  Fe  Fe178     1.0  0.95492  0.58900  0.06060  1.0000
  S   S349      1.0  0.94845  0.56601  0.09668  1.0000
  S   S350      1.0  0.96211  0.62308  0.98421  1.0000
  S   S351      1.0  0.98063  0.59258  0.03287  1.0000
  H   H2021     1.0  0.82144  0.61585  0.12207  1.0000
  S   S352      1.0  0.96542  0.51202  0.84386  1.0000
  H   H2022     1.0  0.85220  0.51829  0.41601  1.0000
  H   H2023     1.0  0.98160  0.57665  0.12201  1.0000
  H   H2024     1.0  0.99136  0.50455  0.04547  1.0000
  H   H2025     1.0  0.83655  0.50055  0.47405  1.0000
  C   C1176     1.0  0.97435  0.56170  0.90678  1.0000
  H   H2026     1.0  0.83920  0.69095  0.12788  1.0000
  H   H2027     1.0  0.98450  0.51360  0.10468  1.0000
  C   C1177     1.0  0.96950  0.53104  0.86799  1.0000
  C   C1178     1.0  0.95790  0.53640  0.89632  1.0000
  C   C1179     1.0  0.96029  0.55159  0.91559  1.0000
  H   H2028     1.0  0.99046  0.50485  0.66213  1.0000
  H   H2029     1.0  0.85119  0.69880  0.01482  1.0000
  H   H2030     1.0  0.94687  0.52879  0.90310  1.0000
  H   H2031     1.0  0.95109  0.55561  0.93680  1.0000
  C   C1180     1.0  0.96308  0.55700  0.12878  1.0000
  C   C1181     1.0  0.95920  0.54154  0.14707  1.0000
  C   C1182     1.0  0.97064  0.53388  0.17260  1.0000
  H   H2032     1.0  0.79719  0.67681  0.15650  1.0000
  S   S353      1.0  0.75570  0.54434  0.33448  1.0000
  C   C1183     1.0  0.97851  0.56474  0.13596  1.0000
  H   H2033     1.0  0.77434  0.59305  0.51058  1.0000
  H   H2034     1.0  0.96751  0.52204  0.18678  1.0000
  H   H2035     1.0  0.80607  0.66656  0.19634  1.0000
  H   H2036     1.0  0.95837  0.64003  0.89388  1.0000
  H   H2037     1.0  0.87720  0.51843  0.36647  1.0000
  C   C1184     1.0  0.82442  0.50066  0.46005  1.0000
  S   S354      1.0  0.76421  0.59119  0.29111  1.0000
  H   H2038     1.0  0.98809  0.51327  0.56777  1.0000
  H   H2039     1.0  0.89897  0.50264  0.33159  1.0000
  C   C1185     1.0  0.80012  0.51682  0.43189  1.0000
  Fe  Fe179     1.0  0.75107  0.57318  0.33462  1.0000
  C   C1186     1.0  0.79253  0.50131  0.42503  1.0000
  C   C1187     1.0  0.81610  0.51635  0.44953  1.0000
  H   H2040     1.0  0.98252  0.50757  0.94379  1.0000
  H   H2041     1.0  0.98055  0.53603  0.96812  1.0000
  H   H2042     1.0  0.82207  0.52823  0.45525  1.0000
  C   C1188     1.0  0.85552  0.62593  0.03253  1.0000
  C   C1189     1.0  0.86028  0.63821  0.00589  1.0000
  C   C1190     1.0  0.87783  0.64002  0.99590  1.0000
  C   C1191     1.0  0.89088  0.62978  0.01262  1.0000
  C   C1192     1.0  0.88611  0.61735  0.03891  1.0000
  C   C1193     1.0  0.86854  0.61540  0.04861  1.0000
  H   H2043     1.0  0.85044  0.64612  0.99253  1.0000
  H   H2044     1.0  0.88132  0.64949  0.97510  1.0000
  H   H2045     1.0  0.89595  0.60928  0.05192  1.0000
  H   H2046     1.0  0.86506  0.60572  0.06896  1.0000
  C   C1194     1.0  0.75962  0.61970  0.17735  1.0000
  C   C1195     1.0  0.76183  0.60215  0.24735  1.0000
  C   C1196     1.0  0.77524  0.61239  0.23362  1.0000
  C   C1197     1.0  0.77417  0.62109  0.19898  1.0000
  H   H2047     1.0  0.78657  0.61355  0.24999  1.0000
  H   H2048     1.0  0.78461  0.62883  0.18905  1.0000
  C   C1198     1.0  0.77912  0.72511  0.10325  1.0000
  C   C1199     1.0  0.79621  0.71983  0.10963  1.0000
  H   H2049     1.0  0.95515  0.55274  0.01494  1.0000
  H   H2050     1.0  0.80151  0.68909  0.19643  1.0000
  C   C1200     1.0  0.76890  0.57682  0.58367  1.0000
  C   C1201     1.0  0.77765  0.58316  0.48996  1.0000
  C   C1202     1.0  0.79677  0.67679  0.18693  1.0000
  N   N83       1.0  0.86467  0.49427  0.36149  1.0000
  H   H2051     1.0  0.95112  0.49557  0.60483  1.0000
  H   H2052     1.0  0.88691  0.50119  0.39210  1.0000
  H   H2053     1.0  0.96107  0.50227  0.56082  1.0000
  N   N84       1.0  0.86395  0.67823  0.07743  1.0000
  C   C1203     1.0  0.87763  0.68012  0.04735  1.0000
  C   C1204     1.0  0.84670  0.67936  0.05908  1.0000
  C   C1205     1.0  0.86677  0.66087  0.09601  1.0000
  C   C1206     1.0  0.86596  0.69239  0.10428  1.0000
  C   C1207     1.0  0.89639  0.67548  0.05822  1.0000
  C   C1208     1.0  0.77688  0.54202  0.55117  1.0000
  C   C1209     1.0  0.85128  0.65311  0.11687  1.0000
  H   H2054     1.0  0.75103  0.68235  0.24494  1.0000
  H   H2055     1.0  0.87488  0.67209  0.02346  1.0000
  H   H2056     1.0  0.87768  0.69349  0.03612  1.0000
  H   H2057     1.0  0.83587  0.67721  0.07883  1.0000
  H   H2058     1.0  0.84586  0.66890  0.03898  1.0000
  H   H2059     1.0  0.87088  0.65117  0.07529  1.0000
  H   H2060     1.0  0.87751  0.66106  0.11577  1.0000
  H   H2061     1.0  0.87853  0.69080  0.11819  1.0000
  H   H2062     1.0  0.86684  0.70508  0.08986  1.0000
  H   H2063     1.0  0.89839  0.66161  0.06464  1.0000
  H   H2064     1.0  0.90513  0.67831  0.03432  1.0000
  H   H2065     1.0  0.90060  0.68305  0.08155  1.0000
  H   H2066     1.0  0.96230  0.51493  0.03966  1.0000
  H   H2067     1.0  0.96419  0.52127  0.60838  1.0000
  H   H2068     1.0  0.74756  0.60891  0.48478  1.0000
  H   H2069     1.0  0.84551  0.66150  0.13825  1.0000
  H   H2070     1.0  0.85567  0.64099  0.13087  1.0000
  H   H2071     1.0  0.84123  0.64963  0.09754  1.0000
  C   C1210     1.0  0.75305  0.65751  0.91005  1.0000
  C   C1211     1.0  0.75834  0.64432  0.84987  1.0000
  C   C1212     1.0  0.86549  0.51317  0.41969  1.0000
  S   S355      1.0  0.76717  0.66797  0.06116  1.0000
  H   H2072     1.0  0.84185  0.70737  0.05739  1.0000
  H   H2073     1.0  0.95172  0.53408  0.98774  1.0000
  H   H2074     1.0  0.76379  0.54232  0.47936  1.0000
  H   H2075     1.0  0.79133  0.51763  0.54785  1.0000
  H   H2076     1.0  0.77971  0.67182  0.23331  1.0000
  S   S356      1.0  0.98048  0.50150  0.73750  1.0000
  C   C1213     1.0  0.83581  0.51213  0.35500  1.0000
  C   C1214     1.0  0.96599  0.52854  0.03883  1.0000
  C   C1215     1.0  0.78290  0.56580  0.50833  1.0000
  N   N85       1.0  0.92921  0.60723  0.88423  1.0000
  C   C1216     1.0  0.93350  0.58826  0.88213  1.0000
  C   C1217     1.0  0.91924  0.61013  0.91989  1.0000
  C   C1218     1.0  0.94607  0.61615  0.88534  1.0000
  C   C1219     1.0  0.91915  0.61283  0.85064  1.0000
  C   C1220     1.0  0.94512  0.58255  0.84913  1.0000
  C   C1221     1.0  0.90281  0.59983  0.92549  1.0000
  C   C1222     1.0  0.94507  0.63561  0.89085  1.0000
  C   C1223     1.0  0.90741  0.62921  0.85392  1.0000
  H   H2077     1.0  0.93989  0.58350  0.90779  1.0000
  H   H2078     1.0  0.92161  0.58087  0.88033  1.0000
  H   H2079     1.0  0.91526  0.62372  0.92343  1.0000
  H   H2080     1.0  0.92760  0.60706  0.94378  1.0000
  H   H2081     1.0  0.95415  0.61044  0.90778  1.0000
  H   H2082     1.0  0.95374  0.61428  0.85937  1.0000
  H   H2083     1.0  0.92801  0.61468  0.82638  1.0000
  H   H2084     1.0  0.91043  0.60253  0.84312  1.0000
  H   H2085     1.0  0.94023  0.58748  0.82233  1.0000
  H   H2086     1.0  0.95864  0.58625  0.85236  1.0000
  H   H2087     1.0  0.94551  0.56835  0.84809  1.0000
  H   H2088     1.0  0.90604  0.58629  0.93319  1.0000
  H   H2089     1.0  0.89501  0.60522  0.94888  1.0000
  H   H2090     1.0  0.89466  0.60041  0.90085  1.0000
  C   C1224     1.0  0.98086  0.50273  0.64056  1.0000
  H   H2091     1.0  0.93788  0.63932  0.91637  1.0000
  H   H2092     1.0  0.93982  0.64253  0.86634  1.0000
  H   H2093     1.0  0.90686  0.63580  0.82646  1.0000
  H   H2094     1.0  0.91164  0.63874  0.87339  1.0000
  H   H2095     1.0  0.89393  0.62586  0.86085  1.0000
  N   N86       1.0  0.80264  0.58521  0.13962  1.0000
  C   C1225     1.0  0.78900  0.57769  0.16504  1.0000
  C   C1226     1.0  0.79343  0.59665  0.11175  1.0000
  C   C1227     1.0  0.81388  0.59579  0.16278  1.0000
  C   C1228     1.0  0.81301  0.57069  0.12204  1.0000
  C   C1229     1.0  0.79553  0.56793  0.19975  1.0000
  C   C1230     1.0  0.77937  0.58810  0.09011  1.0000
  C   C1231     1.0  0.82731  0.60668  0.14225  1.0000
  C   C1232     1.0  0.82251  0.57471  0.08498  1.0000
  H   H2096     1.0  0.77964  0.58783  0.17471  1.0000
  H   H2097     1.0  0.78115  0.56855  0.15026  1.0000
  H   H2098     1.0  0.80234  0.60235  0.09103  1.0000
  H   H2099     1.0  0.78721  0.60790  0.12561  1.0000
  H   H2100     1.0  0.80575  0.60470  0.17989  1.0000
  H   H2101     1.0  0.82132  0.58752  0.18259  1.0000
  H   H2102     1.0  0.82271  0.56517  0.14151  1.0000
  H   H2103     1.0  0.80443  0.56005  0.11615  1.0000
  H   H2104     1.0  0.80012  0.57685  0.22045  1.0000
  H   H2105     1.0  0.78461  0.56125  0.21331  1.0000
  H   H2106     1.0  0.80575  0.55814  0.19309  1.0000
  H   H2107     1.0  0.75057  0.62709  0.53947  1.0000
  H   H2108     1.0  0.85820  0.51369  0.32018  1.0000
  C   C1233     1.0  0.87421  0.50687  0.38360  1.0000
  C   C1234     1.0  0.75849  0.56823  0.55406  1.0000
  H   H2109     1.0  0.83765  0.59862  0.12909  1.0000
  H   H2110     1.0  0.83373  0.61450  0.16262  1.0000
  H   H2111     1.0  0.83473  0.56688  0.08354  1.0000
  H   H2112     1.0  0.82608  0.58812  0.08035  1.0000
  H   H2113     1.0  0.81488  0.57069  0.06141  1.0000
  C   C1235     1.0  0.97323  0.52082  0.63140  1.0000
  H   H2114     1.0  0.94726  0.53551  0.14165  1.0000
  H   H2115     1.0  0.77401  0.56730  0.60416  1.0000
  H   H2116     1.0  0.79421  0.53106  0.50789  1.0000
  H   H2117     1.0  0.78873  0.58782  0.47313  1.0000
  C   C1236     1.0  0.98596  0.54176  0.18021  1.0000
  H   H2118     1.0  0.76767  0.53680  0.57210  1.0000
  H   H2119     1.0  0.79376  0.56813  0.52677  1.0000
  H   H2120     1.0  0.76018  0.58595  0.59889  1.0000
  H   H2121     1.0  0.77448  0.64023  0.89762  1.0000
  H   H2122     1.0  0.76631  0.63598  0.83262  1.0000
  H   H2123     1.0  0.85616  0.68652  0.16035  1.0000
  C   C1237     1.0  0.80676  0.73090  0.12817  1.0000
  S   S357      1.0  0.75750  0.63023  0.13313  1.0000
  Fe  Fe180     1.0  0.98058  0.49666  0.79930  1.0000
  C   C1238     1.0  0.75673  0.54999  0.50077  1.0000
  H   H2124     1.0  0.93966  0.53769  0.02957  1.0000
  C   C1239     1.0  0.77866  0.67289  0.20273  1.0000
  S   S358      1.0  0.75838  0.66126  0.95745  1.0000
  H   H2125     1.0  0.77089  0.71687  0.08866  1.0000
  C   C1240     1.0  0.98597  0.55633  0.87859  1.0000
  C   C1241     1.0  0.98057  0.50860  0.97416  1.0000
  C   C1242     1.0  0.85229  0.69425  0.13564  1.0000
  H   H2126     1.0  0.99269  0.69504  0.09950  1.0000
  H   H2127     1.0  0.76681  0.58221  0.47102  1.0000
  C   C1243     1.0  0.85186  0.50342  0.33660  1.0000
  H   H2128     1.0  0.85094  0.70790  0.14341  1.0000
  H   H2129     1.0  0.77839  0.70287  0.22526  1.0000
  H   H2130     1.0  0.82920  0.69579  0.02710  1.0000
  H   H2131     1.0  0.87302  0.52364  0.43061  1.0000
  C   C1244     1.0  0.98694  0.52605  0.98592  1.0000
  C   C1245     1.0  0.76977  0.70331  0.20110  1.0000
  N   N87       1.0  0.76874  0.55652  0.52870  1.0000
  S   S359      1.0  0.98389  0.50002  0.29272  1.0000
  H   H2132     1.0  0.77599  0.65982  0.19338  1.0000
  C   C1246     1.0  0.76304  0.64671  0.88696  1.0000
  C   C1247     1.0  0.98986  0.55718  0.16177  1.0000
  H   H2133     1.0  0.75127  0.65269  0.22119  1.0000
  C   C1248     1.0  0.95255  0.53891  0.01606  1.0000
  C   C1249     1.0  0.84229  0.69640  0.03855  1.0000
  H   H2134     1.0  0.77447  0.51977  0.51539  1.0000
  H   H2135     1.0  0.97071  0.49525  0.65513  1.0000
  H   H2136     1.0  0.99264  0.53724  0.83770  1.0000
  H   H2137     1.0  0.82001  0.72702  0.13325  1.0000
  H   H2138     1.0  0.98159  0.66780  0.07727  1.0000
  H   H2139     1.0  0.98357  0.55697  0.00919  1.0000
  H   H2140     1.0  0.78393  0.57563  0.07889  1.0000
  C   C1250     1.0  0.98363  0.54109  0.85944  1.0000
  H   H2141     1.0  0.78024  0.50139  0.41166  1.0000
  H   H2142     1.0  0.83063  0.50498  0.37911  1.0000
  H   H2143     1.0  0.77959  0.58428  0.57170  1.0000
  C   C1251     1.0  0.78458  0.52687  0.52890  1.0000
  H   H2144     1.0  0.86557  0.50284  0.44122  1.0000
  H   H2145     1.0  0.76757  0.58643  0.10755  1.0000
  H   H2146     1.0  0.78756  0.54668  0.56771  1.0000
  N   N88       1.0  0.76428  0.68551  0.19227  1.0000
  H   H2147     1.0  0.78868  0.55775  0.48599  1.0000
  N   N89       1.0  0.98447  0.53020  0.02615  1.0000
  H   H2148     1.0  0.96419  0.53277  0.06781  1.0000
  H   H2149     1.0  0.77759  0.70882  0.17787  1.0000
  H   H2150     1.0  0.96598  0.52563  0.65609  1.0000
  H   H2151     1.0  0.75080  0.56080  0.48458  1.0000
  H   H2152     1.0  0.98802  0.49774  0.98697  1.0000
  H   H2153     1.0  0.98418  0.55373  0.05729  1.0000
  C   C1252     1.0  0.77271  0.74124  0.11530  1.0000
  C   C1253     1.0  0.99505  0.52069  0.09078  1.0000
  H   H2154     1.0  0.75989  0.67037  0.14439  1.0000
  H   H2155     1.0  0.74820  0.56121  0.56914  1.0000
  C   C1254     1.0  0.99532  0.66927  0.07932  1.0000
  C   C1255     1.0  0.74723  0.60091  0.22581  1.0000
  H   H2156     1.0  0.77286  0.68813  0.13515  1.0000
  C   C1256     1.0  0.99549  0.51786  0.04872  1.0000
  H   H2157     1.0  0.96662  0.50722  0.97983  1.0000
  H   H2158     1.0  0.88340  0.50465  0.29504  1.0000
  H   H2159     1.0  0.82507  0.51268  0.33529  1.0000
  H   H2160     1.0  0.76121  0.72960  0.21174  1.0000
  H   H2161     1.0  0.98355  0.52995  0.62520  1.0000
  C   C1257     1.0  0.98945  0.54847  0.03091  1.0000
  C   C1258     1.0  0.75550  0.71678  0.21148  1.0000
  H   H2162     1.0  0.75141  0.57843  0.53807  1.0000
  H   H2163     1.0  0.93312  0.49383  0.37860  1.0000
  H   H2164     1.0  0.99341  0.53430  0.09803  1.0000
  H   H2165     1.0  0.75021  0.71416  0.23968  1.0000
  H   H2166     1.0  0.84732  0.49482  0.31512  1.0000
  C   C1259     1.0  0.89023  0.49561  0.31412  1.0000
  H   H2167     1.0  0.74765  0.70825  0.13718  1.0000
  C   C1260     1.0  0.74853  0.68093  0.21506  1.0000
  S   S360      1.0  0.76805  0.90077  0.86176  1.0000
  H   H2168     1.0  0.89542  0.83830  0.13866  1.0000
  Fe  Fe181     1.0  0.76300  0.92934  0.86521  1.0000
  S   S361      1.0  0.77933  0.94789  0.82962  1.0000
  C   C1261     1.0  0.82494  0.81777  0.30326  1.0000
  H   H2169     1.0  0.80058  0.95651  0.89252  1.0000
  Fe  Fe182     1.0  0.78019  0.81759  0.24777  1.0000
  S   S362      1.0  0.79998  0.79743  0.22894  1.0000
  H   H2170     1.0  0.78496  0.93832  0.70839  1.0000
  Fe  Fe183     1.0  0.78086  0.83502  0.16888  1.0000
  S   S363      1.0  0.80080  0.81609  0.14704  1.0000
  S   S364      1.0  0.76656  0.85521  0.13202  1.0000
  Fe  Fe184     1.0  0.78543  0.79577  0.17638  1.0000
  S   S365      1.0  0.77448  0.77272  0.14752  1.0000
  Fe  Fe185     1.0  0.81395  0.81930  0.20136  1.0000
  S   S366      1.0  0.84353  0.81896  0.20285  1.0000
  S   S367      1.0  0.76478  0.81463  0.19648  1.0000
  S   S368      1.0  0.79491  0.83957  0.22197  1.0000
  Fe  Fe186     1.0  0.93021  0.86487  0.25877  1.0000
  S   S369      1.0  0.95234  0.85436  0.29283  1.0000
  S   S370      1.0  0.90119  0.86391  0.27294  1.0000
  Fe  Fe187     1.0  0.95459  0.88144  0.20253  1.0000
  S   S371      1.0  0.97853  0.87185  0.23111  1.0000
  C   C1262     1.0  0.87028  0.99254  0.99364  1.0000
  Fe  Fe188     1.0  0.96528  0.84690  0.23869  1.0000
  H   H2171     1.0  0.97553  0.99010  0.13430  1.0000
  Fe  Fe189     1.0  0.96446  0.87997  0.28374  1.0000
  S   S372      1.0  0.98176  0.89224  0.32579  1.0000
  S   S373      1.0  0.94231  0.85582  0.20561  1.0000
  S   S374      1.0  0.94137  0.89114  0.25407  1.0000
  H   H2172     1.0  0.75391  0.97146  0.74642  1.0000
  C   C1263     1.0  0.94926  0.99173  0.91623  1.0000
  S   S375      1.0  0.96684  0.94777  0.45144  1.0000
  H   H2173     1.0  0.95149  0.92187  0.08994  1.0000
  Fe  Fe190     1.0  0.75821  0.89951  0.92146  1.0000
  H   H2174     1.0  0.91754  0.83678  0.12436  1.0000
  H   H2175     1.0  0.98632  0.99076  0.89637  1.0000
  H   H2176     1.0  0.76658  0.83444  0.02613  1.0000
  C   C1264     1.0  0.99087  0.91340  0.38134  1.0000
  C   C1265     1.0  0.96684  0.91213  0.13504  1.0000
  H   H2177     1.0  0.75159  0.79214  0.01909  1.0000
  C   C1266     1.0  0.75888  0.82333  0.01913  1.0000
  H   H2178     1.0  0.75113  0.83454  0.96636  1.0000
  C   C1267     1.0  0.75367  0.76180  0.71687  1.0000
  H   H2179     1.0  0.97887  0.84183  0.34625  1.0000
  H   H2180     1.0  0.99442  0.96458  0.85244  1.0000
  H   H2181     1.0  0.92071  0.98126  0.99953  1.0000
  C   C1268     1.0  0.97131  0.93216  0.41696  1.0000
  C   C1269     1.0  0.95764  0.92645  0.39619  1.0000
  C   C1270     1.0  0.96056  0.91441  0.36804  1.0000
  C   C1271     1.0  0.97721  0.90772  0.36051  1.0000
  C   C1272     1.0  0.91202  0.97663  0.97835  1.0000
  H   H2182     1.0  0.76724  0.76006  0.72562  1.0000
  H   H2183     1.0  0.94468  0.93141  0.40187  1.0000
  H   H2184     1.0  0.94989  0.91016  0.35247  1.0000
  H   H2185     1.0  0.80069  0.81277  0.42022  1.0000
  H   H2186     1.0  0.93931  0.98674  0.58124  1.0000
  H   H2187     1.0  0.81158  0.81737  0.29312  1.0000
  H   H2188     1.0  0.84635  0.79819  0.30822  1.0000
  H   H2189     1.0  0.80038  0.81338  0.35363  1.0000
  S   S376      1.0  0.97667  0.81942  0.23478  1.0000
  C   C1273     1.0  0.85924  0.83213  0.22151  1.0000
  C   C1274     1.0  0.87674  0.82682  0.21861  1.0000
  C   C1275     1.0  0.88972  0.83650  0.23365  1.0000
  C   C1276     1.0  0.88538  0.85164  0.25198  1.0000
  C   C1277     1.0  0.86789  0.85707  0.25456  1.0000
  C   C1278     1.0  0.85490  0.84746  0.23926  1.0000
  H   H2190     1.0  0.88028  0.81501  0.20497  1.0000
  H   H2191     1.0  0.90306  0.83203  0.23174  1.0000
  H   H2192     1.0  0.86438  0.86879  0.26861  1.0000
  H   H2193     1.0  0.84155  0.85183  0.24144  1.0000
  H   H2194     1.0  0.79388  0.85057  0.07423  1.0000
  H   H2195     1.0  0.76524  0.79547  0.37906  1.0000
  H   H2196     1.0  0.97370  0.96209  0.27635  1.0000
  H   H2197     1.0  0.97121  0.95603  0.35896  1.0000
  C   C1279     1.0  0.79824  0.95997  0.83387  1.0000
  C   C1280     1.0  0.80597  0.96236  0.86771  1.0000
  C   C1281     1.0  0.82030  0.97766  0.80372  1.0000
  C   C1282     1.0  0.80549  0.96777  0.80196  1.0000
  H   H2198     1.0  0.75079  0.84430  0.33056  1.0000
  H   H2199     1.0  0.79971  0.96599  0.77559  1.0000
  C   C1283     1.0  0.81320  0.81450  0.36613  1.0000
  C   C1284     1.0  0.76919  0.86303  0.08531  1.0000
  C   C1285     1.0  0.75602  0.87363  0.06981  1.0000
  H   H2200     1.0  0.74928  0.80313  0.43709  1.0000
  C   C1286     1.0  0.98942  0.83397  0.33308  1.0000
  H   H2201     1.0  0.82636  0.97426  0.89597  1.0000
  H   H2202     1.0  0.91266  0.98396  0.61999  1.0000
  C   C1287     1.0  0.75919  0.81929  0.35024  1.0000
  H   H2203     1.0  0.80474  0.83424  0.40641  1.0000
  H   H2204     1.0  0.97180  0.98409  0.84099  1.0000
  H   H2205     1.0  0.98314  0.82374  0.31811  1.0000
  H   H2206     1.0  0.79580  0.86105  0.00893  1.0000
  N   N90       1.0  0.75266  0.81412  0.05380  1.0000
  H   H2207     1.0  0.75124  0.96157  0.70313  1.0000
  C   C1288     1.0  0.89406  0.97340  0.90947  1.0000
  H   H2208     1.0  0.76362  0.79284  0.62027  1.0000
  H   H2209     1.0  0.95948  0.98216  0.70445  1.0000
  H   H2210     1.0  0.96559  0.96011  0.69630  1.0000
  C   C1289     1.0  0.92206  0.99309  0.62723  1.0000
  C   C1290     1.0  0.75561  0.94372  0.75089  1.0000
  H   H2211     1.0  0.76882  0.78023  0.66022  1.0000
  C   C1291     1.0  0.96346  0.98700  0.38498  1.0000
  H   H2212     1.0  0.89631  0.96154  0.92652  1.0000
  H   H2213     1.0  0.97684  0.99321  0.65849  1.0000
  H   H2214     1.0  0.75118  0.77477  0.63093  1.0000
  H   H2215     1.0  0.98513  0.90523  0.17694  1.0000
  C   C1292     1.0  0.75792  0.78530  0.64354  1.0000
  C   C1293     1.0  0.87299  0.98388  0.95602  1.0000
  H   H2216     1.0  0.88096  0.97813  0.85689  1.0000
  C   C1294     1.0  0.76087  0.91258  0.75205  1.0000
  H   H2217     1.0  0.86112  0.98670  0.93993  1.0000
  H   H2218     1.0  0.85733  0.98949  0.00509  1.0000
  H   H2219     1.0  0.92017  0.96839  0.95984  1.0000
  H   H2220     1.0  0.99358  0.85833  0.30595  1.0000
  H   H2221     1.0  0.99360  0.93046  0.64093  1.0000
  C   C1295     1.0  0.75866  0.80786  0.38097  1.0000
  C   C1296     1.0  0.96298  0.97272  0.68284  1.0000
  C   C1297     1.0  0.74759  0.86693  0.74354  1.0000
  H   H2222     1.0  0.75022  0.93541  0.67359  1.0000
  H   H2223     1.0  0.99080  0.96099  0.90101  1.0000
  C   C1298     1.0  0.75704  0.87955  0.03264  1.0000
  N   N91       1.0  0.82490  0.82492  0.34150  1.0000
  C   C1299     1.0  0.81874  0.84344  0.33927  1.0000
  C   C1300     1.0  0.84272  0.82399  0.35717  1.0000
  C   C1301     1.0  0.79959  0.84676  0.32999  1.0000
  C   C1302     1.0  0.85702  0.83194  0.33274  1.0000
  H   H2224     1.0  0.83174  0.82622  0.28309  1.0000
  H   H2225     1.0  0.82105  0.85003  0.36545  1.0000
  H   H2226     1.0  0.82622  0.85053  0.31771  1.0000
  H   H2227     1.0  0.84282  0.83067  0.38389  1.0000
  H   H2228     1.0  0.84687  0.81051  0.36380  1.0000
  H   H2229     1.0  0.76048  0.91493  0.67999  1.0000
  H   H2230     1.0  0.79073  0.84164  0.35158  1.0000
  H   H2231     1.0  0.79644  0.84147  0.30308  1.0000
  H   H2232     1.0  0.79682  0.86077  0.32798  1.0000
  H   H2233     1.0  0.85927  0.82509  0.30655  1.0000
  H   H2234     1.0  0.86936  0.83101  0.34761  1.0000
  H   H2235     1.0  0.85427  0.84570  0.32655  1.0000
  N   N92       1.0  0.89566  0.87605  0.14228  1.0000
  C   C1303     1.0  0.87827  0.86915  0.15237  1.0000
  C   C1304     1.0  0.90444  0.88048  0.17718  1.0000
  C   C1305     1.0  0.90695  0.86295  0.12228  1.0000
  C   C1306     1.0  0.89314  0.89161  0.11741  1.0000
  C   C1307     1.0  0.86782  0.86299  0.11994  1.0000
  C   C1308     1.0  0.89551  0.89473  0.20025  1.0000
  C   C1309     1.0  0.90783  0.84476  0.13988  1.0000
  C   C1310     1.0  0.90940  0.90187  0.10885  1.0000
  H   H2236     1.0  0.87949  0.85846  0.17298  1.0000
  H   H2237     1.0  0.86989  0.87902  0.16621  1.0000
  H   H2238     1.0  0.91793  0.88417  0.17134  1.0000
  H   H2239     1.0  0.90565  0.86909  0.19582  1.0000
  H   H2240     1.0  0.90290  0.86170  0.09328  1.0000
  H   H2241     1.0  0.92050  0.86713  0.12010  1.0000
  H   H2242     1.0  0.88824  0.88792  0.09026  1.0000
  H   H2243     1.0  0.88305  0.90058  0.12897  1.0000
  H   H2244     1.0  0.87498  0.85331  0.10317  1.0000
  H   H2245     1.0  0.85608  0.85684  0.13125  1.0000
  H   H2246     1.0  0.86339  0.87385  0.10189  1.0000
  H   H2247     1.0  0.89364  0.90692  0.18452  1.0000
  H   H2248     1.0  0.88308  0.89064  0.21258  1.0000
  H   H2249     1.0  0.90384  0.89738  0.22375  1.0000
  H   H2250     1.0  0.93940  0.97401  0.87818  1.0000
  H   H2251     1.0  0.91196  0.84471  0.16881  1.0000
  H   H2252     1.0  0.91408  0.90808  0.13368  1.0000
  H   H2253     1.0  0.90624  0.91229  0.08853  1.0000
  H   H2254     1.0  0.92004  0.89387  0.09655  1.0000
  C   C1311     1.0  0.82063  0.97246  0.86954  1.0000
  C   C1312     1.0  0.82793  0.98016  0.83762  1.0000
  H   H2255     1.0  0.98140  0.98845  0.18175  1.0000
  C   C1313     1.0  0.97806  0.97902  0.65815  1.0000
  H   H2256     1.0  0.76228  0.85402  0.70036  1.0000
  H   H2257     1.0  0.77891  0.78890  0.04613  1.0000
  C   C1314     1.0  0.83283  0.79946  0.29928  1.0000
  H   H2258     1.0  0.83310  0.79618  0.26964  1.0000
  S   S377      1.0  0.77101  0.81302  0.30890  1.0000
  H   H2259     1.0  0.82218  0.81995  0.42178  1.0000
  C   C1315     1.0  0.78462  0.86461  0.02582  1.0000
  S   S378      1.0  0.75476  0.92834  0.92565  1.0000
  C   C1316     1.0  0.97561  0.93459  0.09125  1.0000
  C   C1317     1.0  0.76813  0.81094  0.07771  1.0000
  H   H2260     1.0  0.80871  0.75546  0.15401  1.0000
  H   H2261     1.0  0.78435  0.90064  0.77306  1.0000
  H   H2262     1.0  0.76772  0.81488  0.00245  1.0000
  H   H2263     1.0  0.82492  0.78985  0.31400  1.0000
  C   C1318     1.0  0.77137  0.87508  0.01021  1.0000
  S   S379      1.0  0.97611  0.98419  0.04474  1.0000
  H   H2264     1.0  0.76486  0.80438  0.10414  1.0000
  H   H2265     1.0  0.75353  0.75818  0.68767  1.0000
  C   C1319     1.0  0.81022  0.82097  0.40573  1.0000
  C   C1320     1.0  0.93978  0.98729  0.88570  1.0000
  C   C1321     1.0  0.99461  0.92509  0.14008  1.0000
  H   H2266     1.0  0.99156  0.94814  0.69567  1.0000
  H   H2267     1.0  0.75554  0.91222  0.78086  1.0000
  H   H2268     1.0  0.81836  0.80109  0.36911  1.0000
  H   H2269     1.0  0.75881  0.86962  0.75918  1.0000
  H   H2270     1.0  0.90211  0.96883  0.99245  1.0000
  C   C1322     1.0  0.78357  0.85862  0.06297  1.0000
  H   H2271     1.0  0.75406  0.80732  0.67593  1.0000
  H   H2272     1.0  0.97555  0.97611  0.62887  1.0000
  H   H2273     1.0  0.78698  0.90930  0.72763  1.0000
  C   C1323     1.0  0.78330  0.75240  0.13358  1.0000
  H   H2274     1.0  0.75948  0.74519  0.11011  1.0000
  H   H2275     1.0  0.78573  0.92312  0.76756  1.0000
  H   H2276     1.0  0.79223  0.79585  0.08168  1.0000
  C   C1324     1.0  0.78322  0.80040  0.05993  1.0000
  H   H2277     1.0  0.75440  0.77365  0.06837  1.0000
  C   C1325     1.0  0.74820  0.96045  0.73302  1.0000
  C   C1326     1.0  0.88101  0.96876  0.88030  1.0000
  C   C1327     1.0  0.98239  0.91342  0.15321  1.0000
  H   H2278     1.0  0.77328  0.82333  0.08611  1.0000
  C   C1328     1.0  0.78062  0.91171  0.75478  1.0000
  H   H2279     1.0  0.97296  0.94262  0.06722  1.0000
  H   H2280     1.0  0.99360  0.98575  0.29212  1.0000
  H   H2281     1.0  0.90648  0.97568  0.89460  1.0000
  H   H2282     1.0  0.76941  0.94570  0.75522  1.0000
  Fe  Fe191     1.0  0.98425  0.96499  0.48369  1.0000
  H   H2283     1.0  0.88491  0.95616  0.86859  1.0000
  C   C1329     1.0  0.96347  0.92281  0.10415  1.0000
  N   N93       1.0  0.75285  0.92749  0.73057  1.0000
  S   S380      1.0  0.77327  0.88169  0.96256  1.0000
  H   H2284     1.0  0.95335  0.98051  0.37012  1.0000
  H   H2285     1.0  0.75756  0.90027  0.74024  1.0000
  H   H2286     1.0  0.86775  0.96771  0.89198  1.0000
  H   H2287     1.0  0.78533  0.92788  0.66548  1.0000
  S   S381      1.0  0.95955  0.97547  0.94290  1.0000
  N   N94       1.0  0.88886  0.98838  0.93341  1.0000
  H   H2288     1.0  0.87286  0.96986  0.96229  1.0000
  S   S382      1.0  0.95143  0.89716  0.14958  1.0000
  H   H2289     1.0  0.95530  0.95805  0.30632  1.0000
  C   C1330     1.0  0.77726  0.93627  0.68383  1.0000
  H   H2290     1.0  0.77554  0.94868  0.66856  1.0000
  H   H2291     1.0  0.96273  0.97909  0.30130  1.0000
  Fe  Fe192     1.0  0.97971  0.98281  0.98315  1.0000
  C   C1331     1.0  0.97909  0.96126  0.33561  1.0000
  C   C1332     1.0  0.96716  0.96549  0.30291  1.0000
  C   C1333     1.0  0.99114  0.94447  0.63702  1.0000
  H   H2292     1.0  0.79068  0.80838  0.04003  1.0000
  H   H2293     1.0  0.95155  0.97116  0.66557  1.0000
  S   S383      1.0  0.98548  0.96527  0.54587  1.0000
  C   C1334     1.0  0.74952  0.85806  0.71003  1.0000
  C   C1335     1.0  0.98796  0.92554  0.40931  1.0000
  H   H2294     1.0  0.97707  0.94658  0.63371  1.0000
  H   H2295     1.0  0.75865  0.78812  0.72947  1.0000
  S   S384      1.0  0.84620  0.99312  0.84211  1.0000
  H   H2296     1.0  0.96725  0.97911  0.40935  1.0000
  H   H2297     1.0  0.98887  0.78449  0.22796  1.0000
  C   C1336     1.0  0.75961  0.92809  0.69123  1.0000
  C   C1337     1.0  0.80039  0.74708  0.14002  1.0000
  C   C1338     1.0  0.99130  0.93565  0.10897  1.0000
  C   C1339     1.0  0.75054  0.83527  0.35359  1.0000
  N   N95       1.0  0.99001  0.97554  0.34758  1.0000
  H   H2298     1.0  0.99198  0.96327  0.40152  1.0000
  C   C1340     1.0  0.74955  0.81218  0.41409  1.0000
  H   H2299     1.0  0.98999  0.97402  0.72771  1.0000
  H   H2300     1.0  0.87978  0.98755  0.01394  1.0000
  H   H2301     1.0  0.98727  0.95000  0.32707  1.0000
  H   H2302     1.0  0.74995  0.94282  0.77931  1.0000
  C   C1341     1.0  0.90404  0.99209  0.95677  1.0000
  H   H2303     1.0  0.82582  0.98324  0.77881  1.0000
  N   N96       1.0  0.99587  0.97299  0.66922  1.0000
  C   C1342     1.0  0.97909  0.99089  0.35962  1.0000
  C   C1343     1.0  0.74717  0.78034  0.72519  1.0000
  C   C1344     1.0  0.99595  0.81030  0.21434  1.0000
  H   H2304     1.0  0.74672  0.88757  0.02130  1.0000
