data_image0
_chemical_formula_structural       CFeCFeS2FeS2FeS2FeSFeS3FeS2FeS2FeSFeS3HSHSFeSNCH2C3HCH5C6H4C6H4C2SH3CH2C2H2C2HC5H6C2H2C2NH2NC8H21C2H6CHCFeH2C2HSC3H6CH3C3H5CHCHC2H4CHCH2CNH7C2H3C3H2CH4CH5SH5CHC2HCH3NH7CNHSCSH2SHFeSH2FeS2FeS2FeSFeS3FeS2FeSHFeSFeS3HC6H4C2H5CHCH4C6H4C4H4C6H4C4H5FeHC2HCHSH2C2NC2H2CNCHCHCH2FeH8NC8H20NC8H21C3H2CH5FeHCNSHCHCH3CSCH2C2HCHSHCHC2H6CH11C3HCHSHCSFeSCFeS2FeSFeS3FeS3FeS2FeS2FeSFeS3HCHC2HCHC5H3C5H5C2SC6H4CHC4H6C4HCH3SH5CH5C2H3NCH4C2FeH2CH3NHC4HC2H8CH7SH3NC8H20NC8H9CHCH7CFeH2C2HCHSHCHC3H5NCH2FeCH5NH7CH2CHCHCH5CHCHC2H2CHCH5SHC3H5SFeSHCHFeHSFeS2FeHFeS3FeHSCHSFeS2FeS2FeSFeS3CH3C2H2C2HC5H2FeHC6H4C3H2CH2CH2CH2C5SH2C3H2CH4NC8H20CHCHCH3CH4C4H2CH2SNCHC2H2SHNH6CH4SC3HCH2CSNHCHNC8H20NC8H19CH9C2NH3CHCHCHCH6CH6SHCSCH2FeSHFeS2FeS2FeSFeS3FeSHFeS2FeSFeS3HC6H4C3H4C2HCH2C7H4C4H3C4H5CH2C4H5NHCH2SH2CHC2H4CHCHCH5C2FeC4HC2H7CHCH2CH3SHC2NC8H20NH2SC2H2CHC2HCH3CH2CHCSFeH2CH2NH3CHCH2SHNH3C2H3CH3CHCH3CHC2H2C2H7CSH3CH2FeH2CH3CH3CHCHFeS2FeS2FeSFeS3FeS2FeSHFeSFeS4FeHSHC2SHCHC3H2CHC6HCSC7H4C2HCNH2SC2FeH3CHCHFeC5H4C5H2CHNC2HCHCHCH2CH3CHCH4CHCH5CHSCHCHC2H3C2H3C2SH2NC8H20CNH4C3HC2H3CH2CH2CSH4SH3CH3FeH3CH5CH4CH6FeCH8CHNCSCH2CHNH2C2H2CH3C2H4SCHCHCH11NCH3NCHNH5FeSFeS2FeS2FeHFeHS2FeHSHSFeS2FeSCFeSFeS3HCHCSCH2C6H5C6H4C4H3C4H3C5H4CHCHSCH3CH2NHCHNC2SH4SH2CH2CHCNC8H19CH3SH2CH2NC8H20CH4C2H2NC3H5CHC2H3C3HCHSHFeHCH3CFeH2CHCHCSFeS2FeS2FeSFeNS2FeSHSFeS2FeS2FeSFeS3HC3H2C6H3CSC4HCH6C6H4C5FeH3C2HCSHCH6CHCH3CFeH3CH7SH7CH3CHNH2CH8S2HC2H4CHCHNC5HSCH2SCH6CH6CH3CH4CH2CH2NC8H20NC7H8CH2C2HCH2C3HFeHC2H3CHCH4CFeHCH3SFeS2FeS2FeSFeS3FeHSH2SFeS2FeS2FeSFeS3CHCH2C6H3CHNHC7H4C4H3C4H7C4H2CH2NHCHCHCHCH8CHCH3C3H3NCSC4HCH5C2H5CHCH5C2H7SFeHCH2FeH2CH3FeC2H7CNC8H20NHCSCHNH2CH2SCHCHC2H5CH5NC11SH6C2H6CH4S2FeS2FeS2FeS2FeHFeS4HFeSFeS2FeSHFeSFeS3C2H3C5H3CH3C4H7C6H4C7H3C6HCH2NC8H20NCH2CH2SHCH2C2H3C2HNH5CH6CH5CH2CH7C2H4CH4CH6C2HCH2C2HCH2SHCH3CNH2C4H2CH2CHCHFeCHCH6C2H2CHSCHC2H7SCSH3SH2FeSHFeS2FeS2FeSFeS3FeS2FeS2FeSFeHS2CH2C6H6CHCFeC4NH2C6H2C6H4C5H5C5H4NC8H21CHSC2HCH4CH3CSH2C2H2FeH8NH3CHC4HSHCH2CH2CH2CH3CNC3HC2H19SH2CHNHSH3NC8H3NH7CH8C2H5SHCH2CH3C3H2C2H2FeHCH5CFeS2FeS2FeSFeS3FeS2FeS2FeSFeS3HS2FeSHC2HCH4C6H4C6H4C3H2C2H3CHC5HCH2CH3C2HC2HC2SH4NC2HCNHSHCH3C2H3FeH4CH2CHCH3C4H2NH2CH2NC3H2CH6CHCH10CH4CH3CH11CH2CH2C2H2CH2C3SHNH2CH3CHCH3CSCH2CHCHCHC2H4FeCH2CH3C2H4CSH3SFeS2FeS2FeHFeHS2FeSHSFeS2FeS2FeSFeS3CH2C7H3CH2C4H4CNC7H4CH2C4H3C3HCH5C2H2NHSCHC2H3C3H3CHCH2NC8H22SHSC4H10NC8H19CHC2H8SCHCH2FeH3C4HFeCH3CH3CH4CH2CFeSH2CH6CHCHSH5CHNH5CH3C3HC3SH2S2FeS2FeSCFeSFeSHSFeS5FeS2FeS2FeSFeS3CHCH2C6H4C3HC6H4C4H4C4HNH4C4H4FeCHNH6C3H2CH2SHFeCHCH2CHNC8H20NC4HCH5CHCH3C2HCHCH2CH12SH5CH5CH6CH4C2HC3H2NCNCH3C5H7C2H4C2H8CH3CNFeCHC2HCH2CHCH2C2NHCHCH2CH6SFeS2FeS2FeSFeS3FeS2FeS2FeHFeS3CSFe2SHC3H4C6H4C6H4CHCHNH2C2H3NHC8SH4CHC4SH3C2HCH6CH3CHCSH3CHFeH4CHSC4HC3H5NC8H9CH13FeH2CHSC3HCH3NC6H16NC2H5CSH6CHCH7CH2CH4CH4CH2C3HC3HCHC3HCHNS2FeS2FeS2FeS2FeSFeS3FeSHFeS2FeSFeS3C6H4SHCHCHCH4CHFeHC7H3C3HCHCFeHC2H3CHC3H4CSH2NSC5H5CHCH4CH3CH5NC8H20NC8H24CHC3HCHC2H3C3HNCH4CH4SH4CH2FeH2SH3SCFeH2CHC2NH5CHC2H3CH3C2HCH5CHNCH2C2HCH8C
_chemical_formula_sum              "C1344 Fe192 S384 H2304 N96"
_cell_length_a       82.3027
_cell_length_b       81.9119
_cell_length_c       32.834
_cell_angle_alpha    88.5103
_cell_angle_beta     88.6091
_cell_angle_gamma    88.11

_space_group_name_H-M_alt    "P 1"
_space_group_IT_number       1

loop_
  _space_group_symop_operation_xyz
  'x, y, z'

loop_
  _atom_site_type_symbol
  _atom_site_label
  _atom_site_symmetry_multiplicity
  _atom_site_fract_x
  _atom_site_fract_y
  _atom_site_fract_z
  _atom_site_occupancy
  C   C1        1.0  0.00282  0.09509  0.27724  1.0000
  Fe  Fe1       1.0  0.00258  0.15618  0.91313  1.0000
  C   C2        1.0  0.06830  0.01806  0.58465  1.0000
  Fe  Fe2       1.0  0.22860  0.22974  0.28517  1.0000
  S   S1        1.0  0.21262  0.21366  0.32728  1.0000
  S   S2        1.0  0.22806  0.22789  0.21664  1.0000
  Fe  Fe3       1.0  0.03792  0.05557  0.62718  1.0000
  S   S3        1.0  0.01882  0.07556  0.61479  1.0000
  S   S4        1.0  0.02910  0.02915  0.63276  1.0000
  Fe  Fe4       1.0  0.06621  0.07880  0.60605  1.0000
  S   S5        1.0  0.04887  0.09971  0.59058  1.0000
  S   S6        1.0  0.09412  0.07895  0.61126  1.0000
  Fe  Fe5       1.0  0.03501  0.09236  0.64847  1.0000
  S   S7        1.0  0.02754  0.11467  0.68774  1.0000
  Fe  Fe6       1.0  0.03383  0.08155  0.55860  1.0000
  S   S8        1.0  0.02557  0.08208  0.49219  1.0000
  S   S9        1.0  0.05295  0.07191  0.66497  1.0000
  S   S10       1.0  0.05237  0.06117  0.56992  1.0000
  Fe  Fe7       1.0  0.20448  0.13035  0.57148  1.0000
  S   S11       1.0  0.18946  0.14017  0.51965  1.0000
  S   S12       1.0  0.20489  0.14371  0.63107  1.0000
  Fe  Fe8       1.0  0.21502  0.09885  0.52749  1.0000
  S   S13       1.0  0.20063  0.10669  0.47198  1.0000
  S   S14       1.0  0.22707  0.07339  0.54088  1.0000
  Fe  Fe9       1.0  0.21063  0.13193  0.47973  1.0000
  S   S15       1.0  0.22525  0.14793  0.43412  1.0000
  Fe  Fe10      1.0  0.18036  0.11445  0.51648  1.0000
  S   S16       1.0  0.15295  0.11089  0.50701  1.0000
  S   S17       1.0  0.22621  0.12343  0.53256  1.0000
  S   S18       1.0  0.19414  0.10529  0.57097  1.0000
  H   H1        1.0  0.23376  0.21483  0.58852  1.0000
  S   S19       1.0  0.01272  0.16020  0.97588  1.0000
  H   H2        1.0  0.01723  0.10332  0.83557  1.0000
  S   S20       1.0  0.20823  0.22772  0.82519  1.0000
  Fe  Fe11      1.0  0.01020  0.18718  0.95896  1.0000
  S   S21       1.0  0.02755  0.20652  0.98150  1.0000
  N   N1        1.0  0.23663  0.17436  0.22310  1.0000
  C   C3        1.0  0.99041  0.08752  0.40704  1.0000
  H   H3        1.0  0.08518  0.04543  0.58069  1.0000
  H   H4        1.0  0.22112  0.22315  0.52438  1.0000
  C   C4        1.0  0.05277  0.22730  0.99335  1.0000
  C   C5        1.0  0.04542  0.21715  0.96552  1.0000
  C   C6        1.0  0.05237  0.21599  0.92628  1.0000
  H   H5        1.0  0.01318  0.14394  0.27781  1.0000
  C   C7        1.0  0.07377  0.23488  0.94320  1.0000
  H   H6        1.0  0.06843  0.00642  0.52439  1.0000
  H   H7        1.0  0.04694  0.20829  0.90446  1.0000
  H   H8        1.0  0.00365  0.08515  0.25478  1.0000
  H   H9        1.0  0.09239  0.04472  0.64963  1.0000
  H   H10       1.0  0.07157  0.22378  0.88482  1.0000
  C   C8        1.0  0.01605  0.12920  0.82181  1.0000
  C   C9        1.0  0.01838  0.11263  0.81179  1.0000
  C   C10       1.0  0.02207  0.10792  0.77130  1.0000
  C   C11       1.0  0.02341  0.11974  0.73993  1.0000
  C   C12       1.0  0.02128  0.13633  0.75001  1.0000
  C   C13       1.0  0.01774  0.14104  0.79056  1.0000
  H   H11       1.0  0.18902  0.20616  0.45894  1.0000
  H   H12       1.0  0.02367  0.09512  0.76436  1.0000
  H   H13       1.0  0.02242  0.14563  0.72622  1.0000
  H   H14       1.0  0.01634  0.15383  0.79765  1.0000
  C   C14       1.0  0.11020  0.08818  0.58189  1.0000
  C   C15       1.0  0.12621  0.08681  0.59630  1.0000
  C   C16       1.0  0.13937  0.09381  0.57428  1.0000
  C   C17       1.0  0.13677  0.10221  0.53717  1.0000
  C   C18       1.0  0.12073  0.10364  0.52293  1.0000
  C   C19       1.0  0.10754  0.09677  0.54512  1.0000
  H   H15       1.0  0.12850  0.08023  0.62467  1.0000
  H   H16       1.0  0.15157  0.09254  0.58573  1.0000
  H   H17       1.0  0.11850  0.11007  0.49430  1.0000
  H   H18       1.0  0.09537  0.09799  0.53345  1.0000
  C   C20       1.0  0.00698  0.08780  0.46823  1.0000
  C   C21       1.0  0.00498  0.08355  0.42740  1.0000
  S   S22       1.0  0.01095  0.13427  0.87356  1.0000
  H   H19       1.0  0.10855  0.00479  0.58024  1.0000
  H   H20       1.0  0.20766  0.16773  0.54784  1.0000
  H   H21       1.0  0.20347  0.22212  0.46323  1.0000
  C   C22       1.0  0.21197  0.19381  0.55568  1.0000
  H   H22       1.0  0.17202  0.22119  0.77822  1.0000
  H   H23       1.0  0.00430  0.04016  0.48803  1.0000
  C   C23       1.0  0.03589  0.00950  0.65165  1.0000
  C   C24       1.0  0.04780  0.00745  0.68126  1.0000
  H   H24       1.0  0.18595  0.23004  0.89360  1.0000
  H   H25       1.0  0.05309  0.01808  0.69380  1.0000
  C   C25       1.0  0.23048  0.21306  0.52226  1.0000
  C   C26       1.0  0.21641  0.19549  0.35726  1.0000
  H   H26       1.0  0.06155  0.99022  0.71892  1.0000
  C   C27       1.0  0.08423  0.03466  0.65855  1.0000
  C   C28       1.0  0.22127  0.16615  0.40455  1.0000
  C   C29       1.0  0.20553  0.17251  0.39795  1.0000
  C   C30       1.0  0.20315  0.18706  0.37441  1.0000
  C   C31       1.0  0.19894  0.21067  0.47766  1.0000
  H   H27       1.0  0.06172  0.02883  0.59753  1.0000
  H   H28       1.0  0.19519  0.16618  0.41079  1.0000
  H   H29       1.0  0.19091  0.19176  0.36926  1.0000
  H   H30       1.0  0.20375  0.17013  0.68677  1.0000
  H   H31       1.0  0.20440  0.20479  0.56375  1.0000
  H   H32       1.0  0.19118  0.18131  0.53055  1.0000
  C   C32       1.0  0.21862  0.15937  0.63897  1.0000
  C   C33       1.0  0.01185  0.13116  0.26776  1.0000
  H   H33       1.0  0.21423  0.16481  0.20072  1.0000
  H   H34       1.0  0.21475  0.18645  0.19928  1.0000
  C   C34       1.0  0.22578  0.18338  0.67652  1.0000
  C   C35       1.0  0.21501  0.17084  0.66919  1.0000
  N   N2        1.0  0.08631  0.01899  0.59110  1.0000
  H   H35       1.0  0.99512  0.03172  0.42873  1.0000
  H   H36       1.0  0.22277  0.19232  0.69945  1.0000
  N   N3        1.0  0.08670  0.11863  0.69136  1.0000
  C   C36       1.0  0.10338  0.11881  0.67101  1.0000
  C   C37       1.0  0.07452  0.11901  0.65775  1.0000
  C   C38       1.0  0.08547  0.10272  0.71532  1.0000
  C   C39       1.0  0.08477  0.13309  0.71892  1.0000
  C   C40       1.0  0.11803  0.11654  0.69928  1.0000
  C   C41       1.0  0.07524  0.13382  0.62783  1.0000
  C   C42       1.0  0.06933  0.09979  0.73866  1.0000
  C   C43       1.0  0.06717  0.13922  0.72936  1.0000
  H   H37       1.0  0.10468  0.10915  0.64781  1.0000
  H   H38       1.0  0.10522  0.13055  0.65394  1.0000
  H   H39       1.0  0.06185  0.11852  0.66950  1.0000
  H   H40       1.0  0.07619  0.10786  0.63925  1.0000
  H   H41       1.0  0.08781  0.09219  0.69486  1.0000
  H   H42       1.0  0.09488  0.10164  0.73901  1.0000
  H   H43       1.0  0.09098  0.13042  0.74823  1.0000
  H   H44       1.0  0.09095  0.14380  0.70477  1.0000
  H   H45       1.0  0.12933  0.11934  0.68153  1.0000
  H   H46       1.0  0.11724  0.12485  0.72540  1.0000
  H   H47       1.0  0.11955  0.10366  0.71026  1.0000
  H   H48       1.0  0.07589  0.14555  0.64360  1.0000
  H   H49       1.0  0.08567  0.13246  0.60592  1.0000
  H   H50       1.0  0.06405  0.13440  0.60948  1.0000
  H   H51       1.0  0.06752  0.10822  0.76439  1.0000
  H   H52       1.0  0.06975  0.08723  0.75227  1.0000
  H   H53       1.0  0.05866  0.10049  0.71878  1.0000
  H   H54       1.0  0.06655  0.14328  0.76142  1.0000
  H   H55       1.0  0.05766  0.13013  0.72697  1.0000
  H   H56       1.0  0.06382  0.15021  0.71049  1.0000
  H   H57       1.0  0.99016  0.12108  0.07222  1.0000
  C   C44       1.0  0.09543  0.00462  0.57274  1.0000
  C   C45       1.0  0.06686  0.23602  0.98243  1.0000
  H   H58       1.0  0.04761  0.22825  0.02385  1.0000
  H   H59       1.0  0.99762  0.09005  0.30621  1.0000
  H   H60       1.0  0.07144  0.03865  0.65328  1.0000
  H   H61       1.0  0.23790  0.21612  0.49447  1.0000
  H   H62       1.0  0.08199  0.00889  0.65201  1.0000
  H   H63       1.0  0.09525  0.00539  0.53885  1.0000
  C   C46       1.0  0.12849  0.22636  0.88671  1.0000
  H   H64       1.0  0.22441  0.11316  0.61927  1.0000
  C   C47       1.0  0.01844  0.13026  0.22340  1.0000
  Fe  Fe12      1.0  0.22726  0.23367  0.77652  1.0000
  H   H65       1.0  0.99037  0.15588  0.75416  1.0000
  H   H66       1.0  0.01475  0.07701  0.41154  1.0000
  C   C48       1.0  0.99427  0.09634  0.48827  1.0000
  C   C49       1.0  0.22676  0.23489  0.92946  1.0000
  H   H67       1.0  0.15816  0.22964  0.84140  1.0000
  S   S23       1.0  0.00137  0.18304  0.89525  1.0000
  C   C50       1.0  0.21837  0.17539  0.21795  1.0000
  C   C51       1.0  0.20752  0.17668  0.25689  1.0000
  C   C52       1.0  0.15053  0.22863  0.81409  1.0000
  H   H68       1.0  0.21078  0.16775  0.28137  1.0000
  H   H69       1.0  0.20757  0.18538  0.47414  1.0000
  H   H70       1.0  0.22436  0.14547  0.26650  1.0000
  H   H71       1.0  0.11799  0.03155  0.55061  1.0000
  H   H72       1.0  0.01232  0.13118  0.35156  1.0000
  H   H73       1.0  0.23530  0.13008  0.66851  1.0000
  C   C53       1.0  0.23214  0.18926  0.36443  1.0000
  H   H74       1.0  0.08541  0.03253  0.69191  1.0000
  H   H75       1.0  0.06320  0.00741  0.60162  1.0000
  H   H76       1.0  0.00768  0.10987  0.34671  1.0000
  C   C54       1.0  0.21273  0.19745  0.48009  1.0000
  C   C55       1.0  0.23046  0.10243  0.63470  1.0000
  C   C56       1.0  0.23326  0.16029  0.61665  1.0000
  H   H77       1.0  0.23644  0.19671  0.25681  1.0000
  H   H78       1.0  0.22065  0.19971  0.45277  1.0000
  H   H79       1.0  0.99614  0.04666  0.53564  1.0000
  H   H80       1.0  0.10191  0.01561  0.64359  1.0000
  H   H81       1.0  0.21957  0.19140  0.58287  1.0000
  C   C57       1.0  0.09236  0.03442  0.57082  1.0000
  H   H82       1.0  0.19428  0.17759  0.58363  1.0000
  C   C58       1.0  0.00243  0.12229  0.35112  1.0000
  H   H83       1.0  0.11085  0.22597  0.74032  1.0000
  C   C59       1.0  0.23451  0.17455  0.38720  1.0000
  C   C60       1.0  0.06638  0.22483  0.91524  1.0000
  H   H84       1.0  0.99655  0.12234  0.38197  1.0000
  H   H85       1.0  0.02052  0.12378  0.28649  1.0000
  H   H86       1.0  0.20787  0.18915  0.26913  1.0000
  H   H87       1.0  0.19322  0.21353  0.50753  1.0000
  C   C61       1.0  0.11065  0.03751  0.57523  1.0000
  H   H88       1.0  0.99499  0.17831  0.80773  1.0000
  C   C62       1.0  0.23766  0.14705  0.26470  1.0000
  H   H89       1.0  0.11261  0.05088  0.57341  1.0000
  H   H90       1.0  0.09045  0.03435  0.53743  1.0000
  C   C63       1.0  0.20068  0.17925  0.55368  1.0000
  N   N4        1.0  0.22255  0.19689  0.51827  1.0000
  H   H91       1.0  0.06530  0.02851  0.52241  1.0000
  H   H92       1.0  0.99564  0.09978  0.51957  1.0000
  H   H93       1.0  0.12639  0.22950  0.91915  1.0000
  H   H94       1.0  0.04951  0.01570  0.54032  1.0000
  H   H95       1.0  0.19468  0.17475  0.24913  1.0000
  H   H96       1.0  0.11545  0.03335  0.60502  1.0000
  H   H97       1.0  0.01552  0.09844  0.28163  1.0000
  C   C64       1.0  0.08901  0.01874  0.63645  1.0000
  C   C65       1.0  0.21830  0.09603  0.66735  1.0000
  H   H98       1.0  0.23573  0.17891  0.28791  1.0000
  H   H99       1.0  0.22923  0.17168  0.50515  1.0000
  H   H100      1.0  0.22388  0.08671  0.68818  1.0000
  C   C66       1.0  0.16257  0.23121  0.77778  1.0000
  C   C67       1.0  0.06290  0.01711  0.54014  1.0000
  C   C68       1.0  0.12227  0.23125  0.75063  1.0000
  H   H101      1.0  0.14699  0.21562  0.81426  1.0000
  H   H102      1.0  0.21280  0.10623  0.68520  1.0000
  C   C69       1.0  0.12128  0.23273  0.79722  1.0000
  H   H103      1.0  0.23734  0.04057  0.56329  1.0000
  H   H104      1.0  0.13232  0.22280  0.74103  1.0000
  H   H105      1.0  0.20815  0.09024  0.65201  1.0000
  H   H106      1.0  0.03146  0.13345  0.22256  1.0000
  C   C70       1.0  0.99185  0.10910  0.26009  1.0000
  H   H107      1.0  0.23851  0.14981  0.19997  1.0000
  H   H108      1.0  0.23613  0.15157  0.59322  1.0000
  H   H109      1.0  0.23154  0.09314  0.61094  1.0000
  H   H110      1.0  0.01977  0.99684  0.61344  1.0000
  H   H111      1.0  0.22682  0.17588  0.13904  1.0000
  S   S24       1.0  0.22427  0.23423  0.70855  1.0000
  H   H112      1.0  0.22605  0.22149  0.93533  1.0000
  H   H113      1.0  0.99300  0.05271  0.41446  1.0000
  H   H114      1.0  0.01212  0.13918  0.20275  1.0000
  H   H115      1.0  0.99264  0.03528  0.35553  1.0000
  H   H116      1.0  0.01783  0.11779  0.21129  1.0000
  C   C71       1.0  0.02898  0.99546  0.63635  1.0000
  H   H117      1.0  0.21983  0.23754  0.90127  1.0000
  C   C72       1.0  0.05254  0.99161  0.69553  1.0000
  C   C73       1.0  0.23502  0.18303  0.51480  1.0000
  H   H118      1.0  0.11929  0.22016  0.80962  1.0000
  C   C74       1.0  0.99299  0.04058  0.50711  1.0000
  H   H119      1.0  0.15679  0.23124  0.74778  1.0000
  H   H120      1.0  0.99249  0.10866  0.22621  1.0000
  H   H121      1.0  0.11737  0.22027  0.87747  1.0000
  N   N5        1.0  0.99454  0.12605  0.27480  1.0000
  H   H122      1.0  0.13907  0.21765  0.88573  1.0000
  H   H123      1.0  0.99400  0.18292  0.75355  1.0000
  H   H124      1.0  0.23685  0.11519  0.70847  1.0000
  H   H125      1.0  0.23836  0.20833  0.88302  1.0000
  H   H126      1.0  0.20439  0.23894  0.96486  1.0000
  H   H127      1.0  0.22211  0.23946  0.99492  1.0000
  H   H128      1.0  0.10989  0.23982  0.80486  1.0000
  C   C75       1.0  0.23157  0.31320  0.52704  1.0000
  N   N6        1.0  0.05785  0.29602  0.93378  1.0000
  H   H129      1.0  0.02436  0.31169  0.89092  1.0000
  S   S25       1.0  0.22399  0.25724  0.28292  1.0000
  C   C76       1.0  0.23921  0.27136  0.54620  1.0000
  S   S26       1.0  0.21206  0.27058  0.16471  1.0000
  H   H130      1.0  0.23613  0.45619  0.44261  1.0000
  H   H131      1.0  0.05959  0.26952  0.93699  1.0000
  S   S27       1.0  0.15216  0.47822  0.51428  1.0000
  H   H132      1.0  0.22001  0.31876  0.51557  1.0000
  Fe  Fe13      1.0  0.17976  0.47608  0.51235  1.0000
  S   S28       1.0  0.19438  0.45445  0.48471  1.0000
  H   H133      1.0  0.06909  0.26388  0.86860  1.0000
  H   H134      1.0  0.23866  0.48862  0.60468  1.0000
  Fe  Fe14      1.0  0.07976  0.41687  0.87095  1.0000
  S   S29       1.0  0.09216  0.44053  0.85472  1.0000
  S   S30       1.0  0.09642  0.39353  0.87606  1.0000
  Fe  Fe15      1.0  0.04575  0.43303  0.85555  1.0000
  S   S31       1.0  0.05611  0.45736  0.83700  1.0000
  S   S32       1.0  0.01882  0.42637  0.86340  1.0000
  Fe  Fe16      1.0  0.07555  0.44313  0.80149  1.0000
  S   S33       1.0  0.08388  0.44710  0.73404  1.0000
  Fe  Fe17      1.0  0.07224  0.45338  0.89159  1.0000
  S   S34       1.0  0.07899  0.47603  0.92718  1.0000
  S   S35       1.0  0.06381  0.41901  0.81619  1.0000
  S   S36       1.0  0.06108  0.42958  0.91201  1.0000
  Fe  Fe18      1.0  0.13950  0.28105  0.92998  1.0000
  S   S37       1.0  0.13914  0.29774  0.98339  1.0000
  S   S38       1.0  0.15803  0.28390  0.87860  1.0000
  Fe  Fe19      1.0  0.10799  0.26432  0.95608  1.0000
  S   S39       1.0  0.10539  0.27973  0.01184  1.0000
  H   H135      1.0  0.07688  0.47077  0.14968  1.0000
  Fe  Fe20      1.0  0.11240  0.30136  0.97149  1.0000
  S   S40       1.0  0.09755  0.32547  0.97910  1.0000
  Fe  Fe21      1.0  0.13251  0.27517  0.01990  1.0000
  S   S41       1.0  0.14191  0.26840  0.08375  1.0000
  S   S42       1.0  0.11326  0.28626  0.91542  1.0000
  S   S43       1.0  0.13458  0.25823  0.96680  1.0000
  H   H136      1.0  0.04052  0.30118  0.86395  1.0000
  C   C77       1.0  0.09613  0.37458  0.90466  1.0000
  C   C78       1.0  0.10755  0.36201  0.89458  1.0000
  C   C79       1.0  0.10809  0.34692  0.91660  1.0000
  C   C80       1.0  0.09731  0.34419  0.94953  1.0000
  C   C81       1.0  0.08594  0.35677  0.95976  1.0000
  C   C82       1.0  0.08525  0.37178  0.93738  1.0000
  H   H137      1.0  0.11609  0.36398  0.86952  1.0000
  H   H138      1.0  0.11696  0.33748  0.90825  1.0000
  H   H139      1.0  0.07756  0.35493  0.98523  1.0000
  H   H140      1.0  0.07644  0.38127  0.94575  1.0000
  C   C83       1.0  0.00096  0.44116  0.80003  1.0000
  C   C84       1.0  0.00100  0.43073  0.83450  1.0000
  H   H141      1.0  0.09569  0.47274  0.12033  1.0000
  H   H142      1.0  0.01219  0.44647  0.78930  1.0000
  H   H143      1.0  0.22565  0.30134  0.19853  1.0000
  H   H144      1.0  0.03467  0.28467  0.94366  1.0000
  H   H145      1.0  0.03426  0.30582  0.95315  1.0000
  C   C85       1.0  0.06861  0.47462  0.00912  1.0000
  H   H146      1.0  0.09554  0.48110  0.58534  1.0000
  C   C86       1.0  0.22826  0.30662  0.22842  1.0000
  H   H147      1.0  0.22727  0.42720  0.59311  1.0000
  H   H148      1.0  0.06392  0.46276  0.00302  1.0000
  H   H149      1.0  0.23254  0.26280  0.90231  1.0000
  H   H150      1.0  0.04596  0.32885  0.91697  1.0000
  C   C87       1.0  0.12548  0.47377  0.66420  1.0000
  C   C88       1.0  0.10895  0.47119  0.50913  1.0000
  C   C89       1.0  0.11031  0.46787  0.72827  1.0000
  C   C90       1.0  0.10012  0.45750  0.70831  1.0000
  C   C91       1.0  0.10282  0.45521  0.66620  1.0000
  C   C92       1.0  0.11546  0.46316  0.64436  1.0000
  H   H151      1.0  0.12381  0.27378  0.83361  1.0000
  H   H152      1.0  0.10844  0.46984  0.76053  1.0000
  H   H153      1.0  0.09509  0.44717  0.65039  1.0000
  H   H154      1.0  0.11743  0.46111  0.61221  1.0000
  C   C93       1.0  0.20830  0.43938  0.50556  1.0000
  C   C94       1.0  0.21631  0.42825  0.47923  1.0000
  C   C95       1.0  0.21712  0.24308  0.96483  1.0000
  C   C96       1.0  0.21217  0.43869  0.54687  1.0000
  H   H155      1.0  0.21341  0.42856  0.44726  1.0000
  H   H156      1.0  0.07901  0.30943  0.91397  1.0000
  H   H157      1.0  0.20595  0.44689  0.56779  1.0000
  H   H158      1.0  0.23494  0.27025  0.57854  1.0000
  C   C97       1.0  0.16191  0.26783  0.10406  1.0000
  C   C98       1.0  0.17518  0.27462  0.08310  1.0000
  C   C99       1.0  0.19045  0.27511  0.10185  1.0000
  C   C100      1.0  0.19288  0.26833  0.14125  1.0000
  C   C101      1.0  0.17973  0.26107  0.16166  1.0000
  C   C102      1.0  0.16434  0.26101  0.14337  1.0000
  H   H159      1.0  0.17362  0.27971  0.05268  1.0000
  H   H160      1.0  0.12174  0.48267  0.15717  1.0000
  H   H161      1.0  0.06248  0.33048  0.95190  1.0000
  H   H162      1.0  0.02346  0.29034  0.88295  1.0000
  C   C103      1.0  0.19469  0.25893  0.82093  1.0000
  C   C104      1.0  0.18353  0.27127  0.83338  1.0000
  C   C105      1.0  0.17315  0.26879  0.86736  1.0000
  C   C106      1.0  0.17430  0.25401  0.88959  1.0000
  H   H163      1.0  0.20239  0.26087  0.79417  1.0000
  H   H164      1.0  0.18272  0.28268  0.81606  1.0000
  H   H165      1.0  0.20048  0.28077  0.08568  1.0000
  H   H166      1.0  0.16648  0.25204  0.91607  1.0000
  H   H167      1.0  0.04980  0.27406  0.86763  1.0000
  Fe  Fe22      1.0  0.23963  0.25653  0.70853  1.0000
  H   H168      1.0  0.09851  0.46345  0.51752  1.0000
  C   C107      1.0  0.07449  0.48388  0.24232  1.0000
  C   C108      1.0  0.19541  0.24394  0.84219  1.0000
  H   H169      1.0  0.06019  0.28734  0.03913  1.0000
  C   C109      1.0  0.23251  0.41652  0.53475  1.0000
  H   H170      1.0  0.18128  0.25591  0.19204  1.0000
  S   S44       1.0  0.14129  0.48472  0.63820  1.0000
  H   H171      1.0  0.22410  0.31956  0.22876  1.0000
  H   H172      1.0  0.22110  0.47829  0.47272  1.0000
  C   C110      1.0  0.06495  0.27990  0.91943  1.0000
  C   C111      1.0  0.07639  0.48347  0.97768  1.0000
  N   N7        1.0  0.13565  0.24003  0.81681  1.0000
  C   C112      1.0  0.08943  0.46568  0.14498  1.0000
  C   C113      1.0  0.22427  0.42746  0.56119  1.0000
  H   H173      1.0  0.23914  0.32349  0.53518  1.0000
  H   H174      1.0  0.22845  0.30579  0.55469  1.0000
  C   C114      1.0  0.05783  0.28366  0.00752  1.0000
  N   N8        1.0  0.10228  0.48113  0.20319  1.0000
  C   C115      1.0  0.12280  0.47600  0.70630  1.0000
  H   H175      1.0  0.23933  0.45273  0.49561  1.0000
  C   C116      1.0  0.06259  0.29768  0.97767  1.0000
  H   H176      1.0  0.06429  0.30888  0.87667  1.0000
  C   C117      1.0  0.09893  0.46490  0.18501  1.0000
  H   H177      1.0  0.11472  0.46603  0.48112  1.0000
  H   H178      1.0  0.07598  0.29880  0.97979  1.0000
  Fe  Fe23      1.0  0.22543  0.25527  0.21422  1.0000
  H   H179      1.0  0.04479  0.28082  0.00633  1.0000
  H   H180      1.0  0.06548  0.27248  0.00229  1.0000
  H   H181      1.0  0.05713  0.30904  0.99078  1.0000
  H   H182      1.0  0.07323  0.47056  0.24006  1.0000
  H   H183      1.0  0.09192  0.45698  0.20639  1.0000
  H   H184      1.0  0.13044  0.48414  0.72212  1.0000
  H   H185      1.0  0.06828  0.28474  0.85288  1.0000
  H   H186      1.0  0.22884  0.31082  0.63329  1.0000
  N   N9        1.0  0.12388  0.40900  0.75765  1.0000
  C   C118      1.0  0.11118  0.39606  0.75714  1.0000
  C   C119      1.0  0.13977  0.40037  0.76805  1.0000
  C   C120      1.0  0.12508  0.41658  0.71533  1.0000
  C   C121      1.0  0.11855  0.42159  0.78838  1.0000
  C   C122      1.0  0.09430  0.40167  0.74167  1.0000
  C   C123      1.0  0.13987  0.39101  0.80951  1.0000
  C   C124      1.0  0.13798  0.42959  0.70779  1.0000
  C   C125      1.0  0.13180  0.43236  0.80548  1.0000
  H   H187      1.0  0.11546  0.38562  0.73813  1.0000
  H   H188      1.0  0.10893  0.39080  0.78833  1.0000
  H   H189      1.0  0.14999  0.40880  0.76808  1.0000
  H   H190      1.0  0.14334  0.39144  0.74413  1.0000
  H   H191      1.0  0.12742  0.40692  0.69243  1.0000
  H   H192      1.0  0.11339  0.42286  0.70701  1.0000
  H   H193      1.0  0.10900  0.42997  0.77551  1.0000
  H   H194      1.0  0.11267  0.41549  0.81536  1.0000
  H   H195      1.0  0.09441  0.40366  0.70811  1.0000
  H   H196      1.0  0.08546  0.39200  0.74895  1.0000
  H   H197      1.0  0.08966  0.41287  0.75664  1.0000
  H   H198      1.0  0.13486  0.39851  0.83478  1.0000
  H   H199      1.0  0.13300  0.37960  0.80841  1.0000
  H   H200      1.0  0.15259  0.38734  0.81701  1.0000
  H   H201      1.0  0.13789  0.43345  0.67508  1.0000
  H   H202      1.0  0.15049  0.42499  0.71400  1.0000
  H   H203      1.0  0.13495  0.44079  0.72499  1.0000
  H   H204      1.0  0.12696  0.44518  0.80688  1.0000
  H   H205      1.0  0.14332  0.43280  0.78770  1.0000
  H   H206      1.0  0.13441  0.42859  0.83748  1.0000
  N   N10       1.0  0.13479  0.32579  0.09863  1.0000
  C   C126      1.0  0.14114  0.33862  0.12566  1.0000
  C   C127      1.0  0.12948  0.33390  0.05917  1.0000
  C   C128      1.0  0.14777  0.31291  0.08925  1.0000
  C   C129      1.0  0.12076  0.31771  0.12063  1.0000
  C   C130      1.0  0.14948  0.33218  0.16482  1.0000
  C   C131      1.0  0.11520  0.34654  0.06262  1.0000
  C   C132      1.0  0.16372  0.31923  0.06978  1.0000
  C   C133      1.0  0.11097  0.30605  0.09528  1.0000
  H   H207      1.0  0.14983  0.34655  0.10859  1.0000
  H   H208      1.0  0.13110  0.34708  0.13592  1.0000
  H   H209      1.0  0.12616  0.32467  0.03679  1.0000
  H   H210      1.0  0.13966  0.34055  0.04419  1.0000
  H   H211      1.0  0.15088  0.30540  0.11693  1.0000
  H   H212      1.0  0.14328  0.30397  0.06779  1.0000
  H   H213      1.0  0.12513  0.31029  0.14732  1.0000
  H   H214      1.0  0.11199  0.32699  0.13334  1.0000
  H   H215      1.0  0.14114  0.32505  0.18487  1.0000
  H   H216      1.0  0.16067  0.32472  0.15821  1.0000
  H   H217      1.0  0.15322  0.34275  0.18251  1.0000
  H   H218      1.0  0.11241  0.35144  0.03158  1.0000
  H   H219      1.0  0.10391  0.34108  0.07494  1.0000
  H   H220      1.0  0.11829  0.35714  0.08089  1.0000
  H   H221      1.0  0.17261  0.30883  0.06684  1.0000
  H   H222      1.0  0.16952  0.32834  0.08851  1.0000
  H   H223      1.0  0.16185  0.32427  0.03851  1.0000
  H   H224      1.0  0.10463  0.31244  0.06976  1.0000
  H   H225      1.0  0.10145  0.30044  0.11517  1.0000
  H   H226      1.0  0.11869  0.29589  0.08329  1.0000
  H   H227      1.0  0.23501  0.32315  0.16084  1.0000
  C   C134      1.0  0.13133  0.24224  0.86136  1.0000
  C   C135      1.0  0.13941  0.25660  0.79844  1.0000
  C   C136      1.0  0.05926  0.32721  0.92067  1.0000
  H   H228      1.0  0.15026  0.26144  0.81296  1.0000
  H   H229      1.0  0.12513  0.47672  0.23380  1.0000
  C   C137      1.0  0.12581  0.26993  0.80173  1.0000
  H   H230      1.0  0.08827  0.45310  0.13379  1.0000
  H   H231      1.0  0.23014  0.29452  0.48357  1.0000
  H   H232      1.0  0.14097  0.24898  0.87640  1.0000
  H   H233      1.0  0.11997  0.24984  0.86530  1.0000
  H   H234      1.0  0.11800  0.46993  0.53347  1.0000
  Fe  Fe24      1.0  0.15497  0.48885  0.57661  1.0000
  H   H235      1.0  0.15421  0.25569  0.15996  1.0000
  C   C138      1.0  0.10784  0.46418  0.27039  1.0000
  N   N11       1.0  0.23832  0.48618  0.51671  1.0000
  S   S45       1.0  0.18227  0.48512  0.57564  1.0000
  H   H236      1.0  0.23452  0.31959  0.38329  1.0000
  C   C139      1.0  0.06273  0.27581  0.87443  1.0000
  H   H237      1.0  0.11121  0.45233  0.25630  1.0000
  C   C140      1.0  0.22833  0.41691  0.49363  1.0000
  H   H238      1.0  0.12970  0.28098  0.78426  1.0000
  H   H239      1.0  0.11425  0.26616  0.78878  1.0000
  H   H240      1.0  0.11060  0.45799  0.17896  1.0000
  C   C141      1.0  0.06694  0.48111  0.04855  1.0000
  S   S46       1.0  0.23194  0.27874  0.67020  1.0000
  C   C142      1.0  0.06558  0.30986  0.90990  1.0000
  H   H241      1.0  0.22058  0.30042  0.25204  1.0000
  H   H242      1.0  0.06521  0.33622  0.89978  1.0000
  C   C143      1.0  0.11198  0.47874  0.24161  1.0000
  C   C144      1.0  0.10339  0.48913  0.50006  1.0000
  H   H243      1.0  0.06086  0.47413  0.07246  1.0000
  C   C145      1.0  0.03953  0.29649  0.93205  1.0000
  H   H244      1.0  0.07824  0.27913  0.92509  1.0000
  S   S47       1.0  0.09142  0.24584  0.92711  1.0000
  H   H245      1.0  0.21845  0.47189  0.54089  1.0000
  C   C146      1.0  0.22767  0.48352  0.59211  1.0000
  H   H246      1.0  0.09499  0.46424  0.28076  1.0000
  C   C147      1.0  0.03187  0.30017  0.89000  1.0000
  C   C148      1.0  0.23065  0.47576  0.55017  1.0000
  H   H247      1.0  0.12330  0.24328  0.73469  1.0000
  H   H248      1.0  0.23447  0.40859  0.47285  1.0000
  H   H249      1.0  0.99752  0.45613  0.89415  1.0000
  H   H250      1.0  0.23800  0.46430  0.55572  1.0000
  H   H251      1.0  0.22344  0.47394  0.61413  1.0000
  H   H252      1.0  0.21645  0.25659  0.96143  1.0000
  C   C149      1.0  0.23452  0.47868  0.47658  1.0000
  H   H253      1.0  0.11519  0.46487  0.29824  1.0000
  H   H254      1.0  0.16914  0.24274  0.78058  1.0000
  H   H255      1.0  0.14282  0.25589  0.76563  1.0000
  H   H256      1.0  0.99058  0.47677  0.89730  1.0000
  H   H257      1.0  0.07247  0.24341  0.00462  1.0000
  H   H258      1.0  0.23785  0.29419  0.34362  1.0000
  H   H259      1.0  0.08038  0.48119  0.54770  1.0000
  H   H260      1.0  0.23915  0.48613  0.45035  1.0000
  H   H261      1.0  0.07758  0.48706  0.27384  1.0000
  H   H262      1.0  0.22833  0.27545  0.52930  1.0000
  H   H263      1.0  0.09299  0.48869  0.47900  1.0000
  C   C150      1.0  0.08805  0.48935  0.56524  1.0000
  C   C151      1.0  0.18536  0.24159  0.87689  1.0000
  C   C152      1.0  0.23964  0.30272  0.49334  1.0000
  H   H264      1.0  0.06220  0.48917  0.23576  1.0000
  C   C153      1.0  0.08239  0.49889  0.98637  1.0000
  H   H265      1.0  0.23260  0.69386  0.76059  1.0000
  S   S48       1.0  0.20702  0.71701  0.26293  1.0000
  H   H266      1.0  0.11346  0.49477  0.48181  1.0000
  C   C154      1.0  0.22167  0.61853  0.42111  1.0000
  S   S49       1.0  0.19008  0.73797  0.87521  1.0000
  Fe  Fe25      1.0  0.10050  0.71889  0.07368  1.0000
  S   S50       1.0  0.10826  0.69461  0.04644  1.0000
  C   C155      1.0  0.21018  0.69311  0.85284  1.0000
  Fe  Fe26      1.0  0.12563  0.71409  0.14172  1.0000
  S   S51       1.0  0.13438  0.68957  0.11992  1.0000
  S   S52       1.0  0.13419  0.72485  0.20052  1.0000
  Fe  Fe27      1.0  0.13399  0.70193  0.05751  1.0000
  S   S53       1.0  0.15681  0.69654  0.01853  1.0000
  Fe  Fe28      1.0  0.10809  0.68413  0.11067  1.0000
  S   S54       1.0  0.09315  0.66252  0.13586  1.0000
  S   S55       1.0  0.12641  0.72684  0.08003  1.0000
  S   S56       1.0  0.09921  0.70811  0.13714  1.0000
  Fe  Fe29      1.0  0.18369  0.51042  0.54687  1.0000
  S   S57       1.0  0.20273  0.52618  0.57664  1.0000
  S   S58       1.0  0.13958  0.51839  0.44062  1.0000
  S   S59       1.0  0.15656  0.51473  0.55157  1.0000
  Fe  Fe30      1.0  0.04831  0.55090  0.18936  1.0000
  S   S60       1.0  0.06147  0.55305  0.12863  1.0000
  S   S61       1.0  0.02167  0.56048  0.18946  1.0000
  Fe  Fe31      1.0  0.07948  0.53655  0.23320  1.0000
  S   S62       1.0  0.09380  0.53783  0.17370  1.0000
  S   S63       1.0  0.09037  0.52172  0.28883  1.0000
  Fe  Fe32      1.0  0.08193  0.56306  0.16416  1.0000
  S   S64       1.0  0.09790  0.58386  0.13890  1.0000
  Fe  Fe33      1.0  0.07208  0.52791  0.14306  1.0000
  S   S65       1.0  0.06992  0.50421  0.10729  1.0000
  S   S66       1.0  0.06839  0.56221  0.22480  1.0000
  S   S67       1.0  0.05807  0.52548  0.20271  1.0000
  H   H267      1.0  0.07800  0.51107  0.50827  1.0000
  C   C156      1.0  0.00290  0.55166  0.17684  1.0000
  H   H268      1.0  0.12131  0.49211  0.56642  1.0000
  C   C157      1.0  0.00053  0.53481  0.17976  1.0000
  C   C158      1.0  0.06719  0.67599  0.03186  1.0000
  H   H269      1.0  0.01032  0.52672  0.19005  1.0000
  C   C159      1.0  0.12623  0.51884  0.39765  1.0000
  H   H270      1.0  0.18597  0.67490  0.95962  1.0000
  C   C160      1.0  0.19997  0.69405  0.81400  1.0000
  C   C161      1.0  0.10443  0.52110  0.33035  1.0000
  C   C162      1.0  0.11214  0.53496  0.34356  1.0000
  C   C163      1.0  0.12277  0.53385  0.37701  1.0000
  C   C164      1.0  0.23057  0.50313  0.51651  1.0000
  H   H271      1.0  0.10976  0.54663  0.32828  1.0000
  H   H272      1.0  0.12843  0.54475  0.38687  1.0000
  H   H273      1.0  0.21287  0.69322  0.93466  1.0000
  C   C165      1.0  0.99511  0.53344  0.06499  1.0000
  C   C166      1.0  0.22675  0.54755  0.59340  1.0000
  C   C167      1.0  0.21506  0.54333  0.56517  1.0000
  C   C168      1.0  0.21354  0.55286  0.52938  1.0000
  C   C169      1.0  0.22358  0.56636  0.52206  1.0000
  H   H274      1.0  0.22788  0.64999  0.41934  1.0000
  H   H275      1.0  0.12259  0.50979  0.53490  1.0000
  H   H276      1.0  0.20461  0.54983  0.50735  1.0000
  H   H277      1.0  0.21252  0.67179  0.94431  1.0000
  H   H278      1.0  0.12510  0.51660  0.60535  1.0000
  C   C170      1.0  0.11439  0.50337  0.55691  1.0000
  C   C171      1.0  0.23084  0.60452  0.69873  1.0000
  S   S68       1.0  0.21396  0.73333  0.37707  1.0000
  C   C172      1.0  0.09455  0.64066  0.13502  1.0000
  C   C173      1.0  0.10764  0.63211  0.11656  1.0000
  C   C174      1.0  0.10840  0.61481  0.11807  1.0000
  C   C175      1.0  0.09610  0.60574  0.13787  1.0000
  C   C176      1.0  0.08300  0.61432  0.15627  1.0000
  C   C177      1.0  0.08227  0.63162  0.15489  1.0000
  H   H279      1.0  0.11724  0.63878  0.10127  1.0000
  H   H280      1.0  0.11861  0.60837  0.10372  1.0000
  H   H281      1.0  0.07346  0.60761  0.17171  1.0000
  H   H282      1.0  0.07211  0.63801  0.16952  1.0000
  C   C178      1.0  0.18101  0.72844  0.91881  1.0000
  H   H283      1.0  0.08844  0.50585  0.96237  1.0000
  C   C179      1.0  0.15635  0.71916  0.95426  1.0000
  C   C180      1.0  0.16572  0.71051  0.98310  1.0000
  C   C181      1.0  0.18277  0.71132  0.98030  1.0000
  C   C182      1.0  0.19037  0.72051  0.94879  1.0000
  H   H284      1.0  0.14324  0.71846  0.95575  1.0000
  H   H285      1.0  0.19011  0.70466  0.00246  1.0000
  H   H286      1.0  0.20348  0.72108  0.94708  1.0000
  H   H287      1.0  0.22919  0.64759  0.84126  1.0000
  H   H288      1.0  0.22826  0.61708  0.64135  1.0000
  H   H289      1.0  0.21870  0.57443  0.64866  1.0000
  C   C183      1.0  0.18699  0.72040  0.24470  1.0000
  C   C184      1.0  0.18260  0.71278  0.20884  1.0000
  C   C185      1.0  0.16664  0.71444  0.19427  1.0000
  C   C186      1.0  0.15477  0.72353  0.21587  1.0000
  H   H290      1.0  0.18053  0.67925  0.86792  1.0000
  C   C187      1.0  0.17520  0.72976  0.26588  1.0000
  H   H291      1.0  0.19162  0.70552  0.19222  1.0000
  H   H292      1.0  0.16349  0.70851  0.16662  1.0000
  H   H293      1.0  0.04459  0.54861  0.04743  1.0000
  S   S69       1.0  0.22673  0.73213  0.80156  1.0000
  H   H294      1.0  0.20284  0.73583  0.48941  1.0000
  H   H295      1.0  0.02185  0.53421  0.11433  1.0000
  H   H296      1.0  0.03473  0.50607  0.03032  1.0000
  H   H297      1.0  0.23151  0.59199  0.71230  1.0000
  H   H298      1.0  0.04156  0.52728  0.10201  1.0000
  C   C188      1.0  0.09861  0.52502  0.48901  1.0000
  H   H299      1.0  0.18131  0.57869  0.65883  1.0000
  H   H300      1.0  0.99862  0.54114  0.09012  1.0000
  H   H301      1.0  0.03006  0.55093  0.00824  1.0000
  H   H302      1.0  0.04962  0.70920  0.01198  1.0000
  H   H303      1.0  0.22220  0.57363  0.49431  1.0000
  C   C189      1.0  0.20799  0.58171  0.66022  1.0000
  C   C190      1.0  0.20897  0.66267  0.86514  1.0000
  H   H304      1.0  0.21126  0.58952  0.58553  1.0000
  H   H305      1.0  0.12105  0.49326  0.39944  1.0000
  H   H306      1.0  0.22264  0.61253  0.71727  1.0000
  N   N12       1.0  0.09883  0.49928  0.53671  1.0000
  C   C191      1.0  0.19276  0.57263  0.64784  1.0000
  H   H307      1.0  0.19835  0.65947  0.84685  1.0000
  H   H308      1.0  0.09082  0.53595  0.48135  1.0000
  H   H309      1.0  0.02789  0.57299  0.05624  1.0000
  H   H310      1.0  0.23496  0.59665  0.63679  1.0000
  C   C192      1.0  0.08972  0.51446  0.52161  1.0000
  C   C193      1.0  0.08681  0.49097  0.21121  1.0000
  Fe  Fe34      1.0  0.21745  0.73852  0.86438  1.0000
  H   H311      1.0  0.22173  0.71625  0.57627  1.0000
  H   H312      1.0  0.22722  0.67447  0.70568  1.0000
  C   C194      1.0  0.00917  0.52781  0.03586  1.0000
  H   H313      1.0  0.23298  0.66217  0.46110  1.0000
  H   H314      1.0  0.06940  0.70033  0.05396  1.0000
  H   H315      1.0  0.17838  0.73563  0.29360  1.0000
  N   N13       1.0  0.20892  0.59939  0.64601  1.0000
  H   H316      1.0  0.19240  0.57101  0.61440  1.0000
  C   C195      1.0  0.11235  0.49072  0.17227  1.0000
  C   C196      1.0  0.20557  0.60029  0.60093  1.0000
  C   C197      1.0  0.19622  0.60913  0.66975  1.0000
  C   C198      1.0  0.11275  0.51376  0.59521  1.0000
  H   H317      1.0  0.16841  0.67171  0.93107  1.0000
  C   C199      1.0  0.21172  0.61523  0.57631  1.0000
  C   C200      1.0  0.19639  0.62793  0.66496  1.0000
  H   H318      1.0  0.21722  0.50249  0.51215  1.0000
  H   H319      1.0  0.22515  0.61464  0.57291  1.0000
  H   H320      1.0  0.18543  0.65761  0.92598  1.0000
  H   H321      1.0  0.08631  0.52272  0.54688  1.0000
  H   H322      1.0  0.06993  0.69072  0.15413  1.0000
  H   H323      1.0  0.19229  0.59965  0.59560  1.0000
  H   H324      1.0  0.18381  0.60568  0.66126  1.0000
  H   H325      1.0  0.19651  0.60597  0.70294  1.0000
  C   C201      1.0  0.03851  0.52201  0.97886  1.0000
  H   H326      1.0  0.11023  0.52958  0.49986  1.0000
  H   H327      1.0  0.20555  0.70271  0.79162  1.0000
  H   H328      1.0  0.20865  0.63290  0.66060  1.0000
  H   H329      1.0  0.20850  0.70514  0.86779  1.0000
  H   H330      1.0  0.19326  0.56011  0.66178  1.0000
  H   H331      1.0  0.20779  0.62703  0.58939  1.0000
  H   H332      1.0  0.20693  0.61500  0.54499  1.0000
  S   S70       1.0  0.18266  0.50116  0.48289  1.0000
  H   H333      1.0  0.18856  0.63233  0.63962  1.0000
  H   H334      1.0  0.18530  0.69446  0.90240  1.0000
  H   H335      1.0  0.19162  0.63345  0.69359  1.0000
  N   N14       1.0  0.12835  0.66970  0.24243  1.0000
  C   C202      1.0  0.13977  0.68380  0.24201  1.0000
  C   C203      1.0  0.11268  0.67601  0.22388  1.0000
  C   C204      1.0  0.13597  0.65672  0.21559  1.0000
  C   C205      1.0  0.12610  0.66341  0.28578  1.0000
  C   C206      1.0  0.15718  0.67985  0.25678  1.0000
  C   C207      1.0  0.10406  0.69051  0.24547  1.0000
  C   C208      1.0  0.12665  0.64085  0.21223  1.0000
  C   C209      1.0  0.11039  0.65408  0.29617  1.0000
  H   H336      1.0  0.14095  0.68934  0.21076  1.0000
  H   H337      1.0  0.13489  0.69382  0.26156  1.0000
  H   H338      1.0  0.10364  0.66638  0.22185  1.0000
  H   H339      1.0  0.11489  0.68001  0.19165  1.0000
  H   H340      1.0  0.13798  0.66174  0.18402  1.0000
  H   H341      1.0  0.14817  0.65270  0.22650  1.0000
  H   H342      1.0  0.13661  0.65525  0.29454  1.0000
  H   H343      1.0  0.12602  0.67381  0.30704  1.0000
  H   H344      1.0  0.16473  0.67369  0.23290  1.0000
  H   H345      1.0  0.16318  0.69148  0.26282  1.0000
  H   H346      1.0  0.15741  0.67253  0.28559  1.0000
  H   H347      1.0  0.09151  0.69214  0.23397  1.0000
  H   H348      1.0  0.10320  0.68864  0.27894  1.0000
  H   H349      1.0  0.11026  0.70209  0.23817  1.0000
  H   H350      1.0  0.13285  0.63309  0.18891  1.0000
  H   H351      1.0  0.11405  0.64302  0.20203  1.0000
  H   H352      1.0  0.12675  0.63363  0.24127  1.0000
  H   H353      1.0  0.11322  0.64422  0.31904  1.0000
  H   H354      1.0  0.10486  0.64809  0.27039  1.0000
  H   H355      1.0  0.10115  0.66222  0.31127  1.0000
  N   N15       1.0  0.04918  0.68975  0.08790  1.0000
  C   C210      1.0  0.06558  0.68832  0.06662  1.0000
  C   C211      1.0  0.05000  0.70284  0.11935  1.0000
  C   C212      1.0  0.03607  0.69454  0.05823  1.0000
  C   C213      1.0  0.04525  0.67340  0.10712  1.0000
  C   C214      1.0  0.08069  0.50540  0.02575  1.0000
  C   C215      1.0  0.05831  0.69760  0.15947  1.0000
  C   C216      1.0  0.03889  0.71037  0.03294  1.0000
  C   C217      1.0  0.02901  0.67279  0.13174  1.0000
  H   H356      1.0  0.21779  0.49306  0.59106  1.0000
  H   H357      1.0  0.07512  0.68477  0.08869  1.0000
  H   H358      1.0  0.03770  0.70797  0.12763  1.0000
  H   H359      1.0  0.05665  0.71356  0.10669  1.0000
  H   H360      1.0  0.03406  0.68456  0.03677  1.0000
  H   H361      1.0  0.02416  0.69638  0.07457  1.0000
  H   H362      1.0  0.04440  0.66403  0.08340  1.0000
  H   H363      1.0  0.05532  0.66846  0.12649  1.0000
  H   H364      1.0  0.07942  0.67698  0.01712  1.0000
  C   C218      1.0  0.23802  0.65337  0.43849  1.0000
  H   H365      1.0  0.06533  0.50385  0.57470  1.0000
  C   C219      1.0  0.02218  0.56119  0.06421  1.0000
  H   H366      1.0  0.06100  0.70865  0.17672  1.0000
  H   H367      1.0  0.06647  0.66320  0.04351  1.0000
  H   H368      1.0  0.04022  0.72099  0.05268  1.0000
  H   H369      1.0  0.02817  0.71311  0.01373  1.0000
  H   H370      1.0  0.01169  0.50536  0.09903  1.0000
  H   H371      1.0  0.05040  0.52017  0.03629  1.0000
  H   H372      1.0  0.02491  0.68474  0.14392  1.0000
  C   C220      1.0  0.22863  0.72367  0.55343  1.0000
  Fe  Fe35      1.0  0.21990  0.73161  0.31018  1.0000
  H   H373      1.0  0.22052  0.66093  0.80402  1.0000
  H   H374      1.0  0.99139  0.57505  0.16240  1.0000
  C   C221      1.0  0.23853  0.67340  0.72180  1.0000
  C   C222      1.0  0.23676  0.56107  0.58614  1.0000
  H   H375      1.0  0.00935  0.56258  0.05489  1.0000
  C   C223      1.0  0.03778  0.51912  0.02551  1.0000
  H   H376      1.0  0.23385  0.51237  0.45301  1.0000
  S   S71       1.0  0.07951  0.73296  0.04102  1.0000
  H   H377      1.0  0.10625  0.52562  0.58952  1.0000
  C   C224      1.0  0.18831  0.68160  0.89426  1.0000
  H   H378      1.0  0.05824  0.67851  0.00768  1.0000
  C   C225      1.0  0.22405  0.66018  0.83647  1.0000
  C   C226      1.0  0.10779  0.50609  0.35118  1.0000
  C   C227      1.0  0.16397  0.72796  0.92209  1.0000
  H   H379      1.0  0.19942  0.68209  0.79924  1.0000
  H   H380      1.0  0.08028  0.49404  0.18281  1.0000
  H   H381      1.0  0.23415  0.66845  0.84094  1.0000
  H   H382      1.0  0.00717  0.53414  0.00589  1.0000
  H   H383      1.0  0.04458  0.53352  0.97019  1.0000
  N   N16       1.0  0.20615  0.67943  0.88271  1.0000
  C   C228      1.0  0.21580  0.68118  0.92077  1.0000
  H   H384      1.0  0.02474  0.50725  0.14123  1.0000
  H   H385      1.0  0.08960  0.50321  0.22198  1.0000
  Fe  Fe36      1.0  0.15516  0.50393  0.48877  1.0000
  C   C229      1.0  0.11865  0.50492  0.38420  1.0000
  H   H386      1.0  0.22413  0.72092  0.52292  1.0000
  H   H387      1.0  0.05028  0.69000  0.17921  1.0000
  H   H388      1.0  0.22311  0.69269  0.84274  1.0000
  H   H389      1.0  0.03303  0.49906  0.09547  1.0000
  H   H390      1.0  0.22809  0.54027  0.62118  1.0000
  N   N17       1.0  0.02629  0.53021  0.04950  1.0000
  H   H391      1.0  0.10463  0.49580  0.14716  1.0000
  H   H392      1.0  0.00736  0.51461  0.03050  1.0000
  H   H393      1.0  0.15007  0.73827  0.26859  1.0000
  H   H394      1.0  0.02295  0.55974  0.09772  1.0000
  H   H395      1.0  0.08538  0.51726  0.03171  1.0000
  H   H396      1.0  0.21569  0.62703  0.44301  1.0000
  H   H397      1.0  0.20976  0.65321  0.89007  1.0000
  C   C230      1.0  0.18192  0.67067  0.92975  1.0000
  H   H398      1.0  0.01921  0.66833  0.11261  1.0000
  H   H399      1.0  0.20846  0.58055  0.69403  1.0000
  C   C231      1.0  0.02866  0.52582  0.09393  1.0000
  H   H400      1.0  0.04610  0.51200  0.96507  1.0000
  C   C232      1.0  0.23519  0.57063  0.55045  1.0000
  H   H401      1.0  0.22279  0.62436  0.39037  1.0000
  C   C233      1.0  0.12150  0.50528  0.18885  1.0000
  H   H402      1.0  0.12502  0.51361  0.16309  1.0000
  H   H403      1.0  0.10697  0.50688  0.62088  1.0000
  H   H404      1.0  0.21343  0.60814  0.41859  1.0000
  H   H405      1.0  0.10195  0.49524  0.34166  1.0000
  H   H406      1.0  0.03048  0.66435  0.15855  1.0000
  C   C234      1.0  0.03142  0.54752  0.04099  1.0000
  H   H407      1.0  0.11411  0.51253  0.21092  1.0000
  C   C235      1.0  0.22597  0.60462  0.65361  1.0000
  H   H408      1.0  0.02638  0.52175  0.96506  1.0000
  C   C236      1.0  0.02416  0.50833  0.10750  1.0000
  C   C237      1.0  0.07293  0.49654  0.05715  1.0000
  H   H409      1.0  0.13291  0.50107  0.20375  1.0000
  H   H410      1.0  0.10077  0.51845  0.46018  1.0000
  C   C238      1.0  0.15915  0.73121  0.25166  1.0000
  H   H411      1.0  0.18748  0.69896  0.82070  1.0000
  C   C239      1.0  0.23443  0.67946  0.91618  1.0000
  H   H412      1.0  0.23159  0.50904  0.54621  1.0000
  H   H413      1.0  0.15662  0.73410  0.89915  1.0000
  H   H414      1.0  0.08096  0.50886  0.60925  1.0000
  H   H415      1.0  0.23578  0.60669  0.46796  1.0000
  H   H416      1.0  0.23185  0.52764  0.49021  1.0000
  S   S72       1.0  0.23747  0.72438  0.89620  1.0000
  H   H417      1.0  0.23840  0.66672  0.90951  1.0000
  C   C240      1.0  0.23732  0.51534  0.48430  1.0000
  C   C241      1.0  0.23814  0.61194  0.43677  1.0000
  C   C242      1.0  0.07567  0.49881  0.59272  1.0000
  H   H418      1.0  0.23811  0.63510  0.48753  1.0000
  H   H419      1.0  0.07054  0.49020  0.61603  1.0000
  H   H420      1.0  0.23959  0.68803  0.89313  1.0000
  H   H421      1.0  0.23989  0.68238  0.94563  1.0000
  H   H422      1.0  0.11112  0.48998  0.26015  1.0000
  S   S73       1.0  0.22400  0.75844  0.30306  1.0000
  Fe  Fe37      1.0  0.22031  0.75978  0.37102  1.0000
  S   S74       1.0  0.20407  0.77922  0.40168  1.0000
  H   H423      1.0  0.99640  0.97588  0.74001  1.0000
  C   C243      1.0  0.05239  0.75284  0.02660  1.0000
  H   H424      1.0  0.22409  0.83927  0.39830  1.0000
  Fe  Fe38      1.0  0.21408  0.84917  0.56728  1.0000
  H   H425      1.0  0.08975  0.98571  0.61999  1.0000
  S   S75       1.0  0.22797  0.83174  0.52475  1.0000
  Fe  Fe39      1.0  0.18387  0.86877  0.59989  1.0000
  S   S76       1.0  0.19841  0.87964  0.64890  1.0000
  S   S77       1.0  0.15773  0.87792  0.58528  1.0000
  Fe  Fe40      1.0  0.21828  0.88375  0.60111  1.0000
  H   H426      1.0  0.20018  0.79474  0.73448  1.0000
  Fe  Fe41      1.0  0.20949  0.85421  0.65761  1.0000
  S   S78       1.0  0.21212  0.84279  0.72126  1.0000
  S   S79       1.0  0.20316  0.87400  0.55130  1.0000
  S   S80       1.0  0.19371  0.84296  0.61156  1.0000
  Fe  Fe42      1.0  0.00305  0.80045  0.05619  1.0000
  H   H427      1.0  0.04810  0.94132  0.83482  1.0000
  S   S81       1.0  0.02298  0.78540  0.08996  1.0000
  C   C244      1.0  0.22726  0.79504  0.44437  1.0000
  H   H428      1.0  0.08730  0.78008  0.01705  1.0000
  S   S82       1.0  0.00528  0.82788  0.04908  1.0000
  Fe  Fe43      1.0  0.06498  0.89836  0.68032  1.0000
  S   S83       1.0  0.05539  0.91261  0.73416  1.0000
  S   S84       1.0  0.09010  0.88527  0.68632  1.0000
  Fe  Fe44      1.0  0.03281  0.90455  0.63492  1.0000
  S   S85       1.0  0.02145  0.91912  0.68620  1.0000
  S   S86       1.0  0.02232  0.89816  0.57300  1.0000
  Fe  Fe45      1.0  0.04574  0.93123  0.68794  1.0000
  S   S87       1.0  0.05166  0.95795  0.70083  1.0000
  Fe  Fe46      1.0  0.03198  0.89934  0.72910  1.0000
  S   S88       1.0  0.01640  0.89090  0.78585  1.0000
  S   S89       1.0  0.05669  0.91761  0.63460  1.0000
  S   S90       1.0  0.04194  0.88410  0.67728  1.0000
  C   C245      1.0  0.00415  0.90384  0.54636  1.0000
  H   H429      1.0  0.19243  0.75900  0.79942  1.0000
  H   H430      1.0  0.01152  0.89015  0.49342  1.0000
  H   H431      1.0  0.22482  0.76352  0.47170  1.0000
  C   C246      1.0  0.04557  0.97757  0.68031  1.0000
  C   C247      1.0  0.03387  0.97961  0.65025  1.0000
  H   H432      1.0  0.04361  0.94514  0.78266  1.0000
  H   H433      1.0  0.02843  0.96900  0.63800  1.0000
  C   C248      1.0  0.22726  0.81415  0.69482  1.0000
  C   C249      1.0  0.99178  0.91387  0.56324  1.0000
  H   H434      1.0  0.19919  0.79541  0.27266  1.0000
  C   C250      1.0  0.02662  0.86173  0.82704  1.0000
  C   C251      1.0  0.01542  0.87499  0.82491  1.0000
  C   C252      1.0  0.00284  0.87572  0.85494  1.0000
  C   C253      1.0  0.00151  0.86360  0.88647  1.0000
  C   C254      1.0  0.02527  0.84958  0.85848  1.0000
  H   H435      1.0  0.16319  0.77296  0.73999  1.0000
  H   H436      1.0  0.21791  0.82306  0.79326  1.0000
  Fe  Fe47      1.0  0.99697  0.82503  0.98452  1.0000
  H   H437      1.0  0.20637  0.77940  0.52777  1.0000
  C   C255      1.0  0.13932  0.88033  0.61487  1.0000
  C   C256      1.0  0.13707  0.87274  0.65317  1.0000
  C   C257      1.0  0.12202  0.87454  0.67458  1.0000
  C   C258      1.0  0.10906  0.88415  0.65846  1.0000
  C   C259      1.0  0.11145  0.89208  0.62060  1.0000
  C   C260      1.0  0.12639  0.89003  0.59883  1.0000
  H   H438      1.0  0.14683  0.86524  0.66601  1.0000
  H   H439      1.0  0.12038  0.86837  0.70386  1.0000
  H   H440      1.0  0.10178  0.89971  0.60803  1.0000
  H   H441      1.0  0.12797  0.89602  0.56932  1.0000
  C   C261      1.0  0.03973  0.76426  0.03651  1.0000
  C   C262      1.0  0.03828  0.77044  0.07585  1.0000
  C   C263      1.0  0.04951  0.76475  0.10514  1.0000
  H   H442      1.0  0.03113  0.76833  0.01370  1.0000
  H   H443      1.0  0.04852  0.76937  0.13572  1.0000
  C   C264      1.0  0.22084  0.80927  0.28247  1.0000
  H   H444      1.0  0.18310  0.79002  0.87849  1.0000
  H   H445      1.0  0.03637  0.86084  0.80442  1.0000
  C   C265      1.0  0.22140  0.82315  0.72800  1.0000
  H   H446      1.0  0.09762  0.97806  0.57281  1.0000
  H   H447      1.0  0.99600  0.80012  0.90189  1.0000
  C   C266      1.0  0.16621  0.77549  0.77204  1.0000
  H   H448      1.0  0.99110  0.80523  0.85084  1.0000
  H   H449      1.0  0.99082  0.92821  0.73581  1.0000
  C   C267      1.0  0.18691  0.79276  0.73689  1.0000
  C   C268      1.0  0.21078  0.79361  0.43639  1.0000
  C   C269      1.0  0.19931  0.80397  0.45614  1.0000
  C   C270      1.0  0.20427  0.81564  0.48373  1.0000
  C   C271      1.0  0.22079  0.81712  0.49141  1.0000
  S   S91       1.0  0.23043  0.85919  0.61433  1.0000
  H   H450      1.0  0.18652  0.80296  0.45010  1.0000
  H   H451      1.0  0.19536  0.82358  0.49872  1.0000
  C   C272      1.0  0.22305  0.82396  0.34564  1.0000
  C   C273      1.0  0.23276  0.83235  0.37819  1.0000
  C   C274      1.0  0.15197  0.78603  0.78987  1.0000
  H   H452      1.0  0.17629  0.80193  0.81494  1.0000
  H   H453      1.0  0.00546  0.90941  0.20205  1.0000
  C   C275      1.0  0.22243  0.81616  0.76747  1.0000
  H   H454      1.0  0.19874  0.75552  0.46859  1.0000
  H   H455      1.0  0.15227  0.78630  0.82360  1.0000
  H   H456      1.0  0.14032  0.78046  0.78229  1.0000
  H   H457      1.0  0.15152  0.79868  0.77752  1.0000
  N   N18       1.0  0.06861  0.86527  0.55336  1.0000
  C   C276      1.0  0.07271  0.87919  0.52417  1.0000
  C   C277      1.0  0.07290  0.84952  0.53220  1.0000
  C   C278      1.0  0.07924  0.86656  0.58990  1.0000
  C   C279      1.0  0.05082  0.86686  0.56548  1.0000
  C   C280      1.0  0.07022  0.89657  0.54084  1.0000
  C   C281      1.0  0.06514  0.84766  0.49029  1.0000
  C   C282      1.0  0.07782  0.85309  0.62329  1.0000
  C   C283      1.0  0.04209  0.85110  0.57853  1.0000
  H   H458      1.0  0.08558  0.87792  0.51292  1.0000
  H   H459      1.0  0.06505  0.87909  0.49671  1.0000
  H   H460      1.0  0.06948  0.83871  0.55114  1.0000
  H   H461      1.0  0.08634  0.84813  0.52746  1.0000
  H   H462      1.0  0.09231  0.86688  0.58009  1.0000
  H   H463      1.0  0.07656  0.87818  0.60589  1.0000
  H   H464      1.0  0.04905  0.87552  0.59089  1.0000
  H   H465      1.0  0.04355  0.87238  0.54009  1.0000
  H   H466      1.0  0.07950  0.89932  0.56331  1.0000
  H   H467      1.0  0.07159  0.90564  0.51534  1.0000
  H   H468      1.0  0.05788  0.89864  0.55435  1.0000
  H   H469      1.0  0.19686  0.80899  0.31420  1.0000
  H   H470      1.0  0.22930  0.79478  0.80398  1.0000
  H   H471      1.0  0.05215  0.85174  0.49030  1.0000
  H   H472      1.0  0.08793  0.85423  0.64477  1.0000
  H   H473      1.0  0.07898  0.84055  0.61169  1.0000
  H   H474      1.0  0.06645  0.85485  0.64173  1.0000
  H   H475      1.0  0.04035  0.84313  0.55231  1.0000
  H   H476      1.0  0.02974  0.85456  0.59054  1.0000
  H   H477      1.0  0.04829  0.84397  0.60290  1.0000
  C   C284      1.0  0.22644  0.74194  0.56341  1.0000
  H   H478      1.0  0.21446  0.79012  0.56851  1.0000
  C   C285      1.0  0.00210  0.89793  0.50691  1.0000
  H   H479      1.0  0.18393  0.81650  0.70704  1.0000
  C   C286      1.0  0.00411  0.93193  0.79198  1.0000
  H   H480      1.0  0.17448  0.77310  0.85393  1.0000
  H   H481      1.0  0.99712  0.92667  0.24712  1.0000
  H   H482      1.0  0.99730  0.89748  0.16369  1.0000
  C   C287      1.0  0.20561  0.80049  0.29865  1.0000
  H   H483      1.0  0.18395  0.78652  0.70841  1.0000
  H   H484      1.0  0.23808  0.77193  0.57415  1.0000
  H   H485      1.0  0.01384  0.92515  0.77479  1.0000
  H   H486      1.0  0.00741  0.96707  0.69827  1.0000
  C   C288      1.0  0.01275  0.85038  0.88862  1.0000
  C   C289      1.0  0.19671  0.75819  0.73493  1.0000
  C   C290      1.0  0.21352  0.77772  0.55587  1.0000
  C   C291      1.0  0.18465  0.78165  0.85250  1.0000
  H   H487      1.0  0.07186  0.85461  0.46618  1.0000
  H   H488      1.0  0.20696  0.77025  0.57910  1.0000
  C   C292      1.0  0.18540  0.79171  0.81210  1.0000
  H   H489      1.0  0.20769  0.77222  0.78085  1.0000
  H   H490      1.0  0.21542  0.83370  0.33040  1.0000
  S   S92       1.0  0.99602  0.79746  0.99126  1.0000
  N   N19       1.0  0.23223  0.75373  0.53054  1.0000
  C   C293      1.0  0.02289  0.94921  0.82607  1.0000
  H   H491      1.0  0.01951  0.94335  0.85588  1.0000
  C   C294      1.0  0.23222  0.80676  0.47162  1.0000
  C   C295      1.0  0.03861  0.94004  0.81173  1.0000
  H   H492      1.0  0.00352  0.92502  0.82165  1.0000
  H   H493      1.0  0.99176  0.95573  0.72283  1.0000
  S   S93       1.0  0.23019  0.76238  0.86435  1.0000
  H   H494      1.0  0.22887  0.74228  0.47285  1.0000
  N   N20       1.0  0.00887  0.94936  0.79716  1.0000
  H   H495      1.0  0.19737  0.79766  0.81065  1.0000
  H   H496      1.0  0.08471  0.80026  0.03349  1.0000
  H   H497      1.0  0.18160  0.96413  0.59088  1.0000
  H   H498      1.0  0.19617  0.77453  0.85721  1.0000
  H   H499      1.0  0.18470  0.75446  0.72455  1.0000
  H   H500      1.0  0.16544  0.80916  0.72771  1.0000
  C   C296      1.0  0.01467  0.95682  0.75699  1.0000
  H   H501      1.0  0.99404  0.88582  0.85391  1.0000
  H   H502      1.0  0.16553  0.76341  0.78841  1.0000
  H   H503      1.0  0.18073  0.81749  0.76032  1.0000
  H   H504      1.0  0.23191  0.79342  0.35625  1.0000
  S   S94       1.0  0.22814  0.90970  0.58941  1.0000
  C   C297      1.0  0.17855  0.80983  0.73380  1.0000
  C   C298      1.0  0.00160  0.96417  0.72835  1.0000
  C   C299      1.0  0.06374  0.74730  0.05580  1.0000
  H   H505      1.0  0.21445  0.81603  0.36305  1.0000
  C   C300      1.0  0.23399  0.79828  0.70106  1.0000
  H   H506      1.0  0.03404  0.83947  0.85938  1.0000
  H   H507      1.0  0.20310  0.76516  0.71028  1.0000
  C   C301      1.0  0.06213  0.75327  0.09529  1.0000
  S   S95       1.0  0.01167  0.83438  0.92737  1.0000
  N   N21       1.0  0.18307  0.78219  0.77410  1.0000
  H   H508      1.0  0.02624  0.96193  0.83278  1.0000
  C   C302      1.0  0.19530  0.76799  0.77445  1.0000
  H   H509      1.0  0.99676  0.95425  0.88169  1.0000
  N   N22       1.0  0.17638  0.93007  0.61695  1.0000
  C   C303      1.0  0.17838  0.93159  0.57112  1.0000
  C   C304      1.0  0.16933  0.94616  0.63158  1.0000
  C   C305      1.0  0.16477  0.91649  0.62670  1.0000
  C   C306      1.0  0.19288  0.92600  0.63414  1.0000
  C   C307      1.0  0.18328  0.91574  0.54880  1.0000
  C   C308      1.0  0.18008  0.96107  0.62382  1.0000
  C   C309      1.0  0.15552  0.91689  0.66812  1.0000
  C   C310      1.0  0.19435  0.92567  0.68086  1.0000
  H   H510      1.0  0.16690  0.93641  0.55724  1.0000
  H   H511      1.0  0.18791  0.94043  0.56228  1.0000
  H   H512      1.0  0.16648  0.94580  0.66474  1.0000
  H   H513      1.0  0.15740  0.94893  0.61712  1.0000
  H   H514      1.0  0.15513  0.91623  0.60343  1.0000
  H   H515      1.0  0.17126  0.90438  0.62525  1.0000
  H   H516      1.0  0.19710  0.91366  0.62471  1.0000
  H   H517      1.0  0.20243  0.93398  0.62072  1.0000
  H   H518      1.0  0.17398  0.90631  0.55247  1.0000
  H   H519      1.0  0.18452  0.91854  0.51562  1.0000
  H   H520      1.0  0.19521  0.91059  0.55846  1.0000
  H   H521      1.0  0.17407  0.97192  0.63805  1.0000
  H   H522      1.0  0.19217  0.95931  0.63783  1.0000
  H   H523      1.0  0.99308  0.91853  0.59346  1.0000
  H   H524      1.0  0.16359  0.91798  0.69420  1.0000
  H   H525      1.0  0.14907  0.90526  0.67287  1.0000
  H   H526      1.0  0.14602  0.92683  0.66850  1.0000
  H   H527      1.0  0.19138  0.91346  0.69403  1.0000
  H   H528      1.0  0.18695  0.93525  0.69627  1.0000
  H   H529      1.0  0.20712  0.92815  0.68838  1.0000
  N   N23       1.0  0.05955  0.80987  0.98058  1.0000
  C   C311      1.0  0.05224  0.81119  0.93879  1.0000
  C   C312      1.0  0.07113  0.82368  0.98348  1.0000
  C   C313      1.0  0.04584  0.81178  0.01180  1.0000
  C   C314      1.0  0.06796  0.79330  0.98485  1.0000
  C   C315      1.0  0.03871  0.79914  0.93055  1.0000
  C   C316      1.0  0.08579  0.82333  0.95330  1.0000
  C   C317      1.0  0.05023  0.81764  0.05436  1.0000
  C   C318      1.0  0.07787  0.78976  0.02352  1.0000
  H   H530      1.0  0.04700  0.82376  0.93296  1.0000
  H   H531      1.0  0.06164  0.80912  0.91444  1.0000
  H   H532      1.0  0.07631  0.82426  0.01422  1.0000
  H   H533      1.0  0.06445  0.83564  0.97897  1.0000
  H   H534      1.0  0.03642  0.82080  0.00061  1.0000
  H   H535      1.0  0.03944  0.80010  0.01659  1.0000
  H   H536      1.0  0.05891  0.78355  0.98476  1.0000
  H   H537      1.0  0.07589  0.79045  0.95783  1.0000
  H   H538      1.0  0.04335  0.78628  0.93045  1.0000
  H   H539      1.0  0.02833  0.80038  0.95242  1.0000
  H   H540      1.0  0.03379  0.80198  0.89986  1.0000
  H   H541      1.0  0.08206  0.82556  0.92136  1.0000
  H   H542      1.0  0.09393  0.83338  0.96048  1.0000
  H   H543      1.0  0.09313  0.81177  0.95596  1.0000
  H   H544      1.0  0.06006  0.81017  0.06863  1.0000
  H   H545      1.0  0.03941  0.81672  0.07507  1.0000
  H   H546      1.0  0.05342  0.83071  0.05327  1.0000
  H   H547      1.0  0.06996  0.78527  0.04899  1.0000
  H   H548      1.0  0.20420  0.74688  0.74058  1.0000
  C   C319      1.0  0.23470  0.79116  0.74039  1.0000
  H   H549      1.0  0.02190  0.94768  0.73915  1.0000
  H   H550      1.0  0.22691  0.80084  0.26028  1.0000
  H   H551      1.0  0.02312  0.96692  0.76198  1.0000
  H   H552      1.0  0.07069  0.74918  0.11818  1.0000
  H   H553      1.0  0.03681  0.92674  0.80905  1.0000
  H   H554      1.0  0.20876  0.79014  0.31951  1.0000
  H   H555      1.0  0.07704  0.98546  0.57576  1.0000
  H   H556      1.0  0.06588  0.83460  0.48178  1.0000
  H   H557      1.0  0.21644  0.82012  0.26414  1.0000
  C   C320      1.0  0.22334  0.75236  0.49108  1.0000
  C   C321      1.0  0.22895  0.80018  0.77365  1.0000
  N   N24       1.0  0.23263  0.81425  0.31421  1.0000
  H   H558      1.0  0.05341  0.74825  0.99602  1.0000
  H   H559      1.0  0.19858  0.75300  0.52228  1.0000
  H   H560      1.0  0.22658  0.81943  0.66430  1.0000
  C   C322      1.0  0.99566  0.90929  0.17952  1.0000
  H   H561      1.0  0.99967  0.97244  0.82024  1.0000
  C   C323      1.0  0.99535  0.95987  0.81558  1.0000
  H   H562      1.0  0.99732  0.91907  0.15598  1.0000
  C   C324      1.0  0.23079  0.77090  0.54619  1.0000
  H   H563      1.0  0.21347  0.74412  0.57181  1.0000
  C   C325      1.0  0.20494  0.74896  0.49417  1.0000
  H   H564      1.0  0.23637  0.94218  0.56270  1.0000
  H   H565      1.0  0.99180  0.86454  0.90914  1.0000
  H   H566      1.0  0.23619  0.78714  0.42956  1.0000
  H   H567      1.0  0.23587  0.77979  0.52362  1.0000
  H   H568      1.0  0.23849  0.79143  0.67516  1.0000
  H   H569      1.0  0.23297  0.74380  0.59223  1.0000
  C   C326      1.0  0.08945  0.98762  0.58645  1.0000
  H   H570      1.0  0.23878  0.83638  0.28070  1.0000
  H   H571      1.0  0.23906  0.82334  0.39844  1.0000
  H   H572      1.0  0.42446  0.14941  0.97388  1.0000
  H   H573      1.0  0.44981  0.19545  0.95811  1.0000
  H   H574      1.0  0.41015  0.23827  0.01816  1.0000
  H   H575      1.0  0.26736  0.11082  0.55532  1.0000
  S   S96       1.0  0.26972  0.21479  0.17278  1.0000
  H   H576      1.0  0.25020  0.12559  0.60292  1.0000
  C   C327      1.0  0.30934  0.02944  0.31490  1.0000
  S   S97       1.0  0.33380  0.00659  0.51461  1.0000
  C   C328      1.0  0.25847  0.12851  0.69741  1.0000
  H   H577      1.0  0.26800  0.11957  0.70771  1.0000
  H   H578      1.0  0.39047  0.99968  0.96362  1.0000
  Fe  Fe48      1.0  0.30672  0.00738  0.52899  1.0000
  S   S98       1.0  0.29514  0.03319  0.51817  1.0000
  H   H579      1.0  0.29781  0.23506  0.18782  1.0000
  Fe  Fe49      1.0  0.39797  0.03662  0.82099  1.0000
  S   S99       1.0  0.41149  0.05977  0.80869  1.0000
  S   S100      1.0  0.37778  0.03128  0.77528  1.0000
  Fe  Fe50      1.0  0.41461  0.03167  0.90432  1.0000
  S   S101      1.0  0.42899  0.05477  0.89601  1.0000
  S   S102      1.0  0.42079  0.01801  0.96445  1.0000
  Fe  Fe51      1.0  0.40567  0.06663  0.87356  1.0000
  S   S103      1.0  0.39475  0.09272  0.88214  1.0000
  Fe  Fe52      1.0  0.43385  0.04627  0.83218  1.0000
  S   S104      1.0  0.45728  0.04790  0.79272  1.0000
  S   S105      1.0  0.39094  0.04410  0.88526  1.0000
  S   S106      1.0  0.42072  0.02258  0.84099  1.0000
  Fe  Fe53      1.0  0.37850  0.21592  0.96774  1.0000
  S   S107      1.0  0.37975  0.20138  0.02682  1.0000
  H   H580      1.0  0.26687  0.06938  0.65251  1.0000
  Fe  Fe54      1.0  0.34735  0.19869  0.94448  1.0000
  S   S108      1.0  0.34645  0.18313  0.00202  1.0000
  S   S109      1.0  0.33030  0.19436  0.89297  1.0000
  Fe  Fe55      1.0  0.35248  0.20637  0.03299  1.0000
  S   S110      1.0  0.34136  0.21734  0.09141  1.0000
  Fe  Fe56      1.0  0.37347  0.17919  0.99085  1.0000
  S   S111      1.0  0.38779  0.15464  0.99896  1.0000
  S   S112      1.0  0.35170  0.22212  0.97573  1.0000
  S   S113      1.0  0.37395  0.19345  0.93168  1.0000
  H   H581      1.0  0.41757  0.01916  0.65130  1.0000
  C   C329      1.0  0.39302  0.10969  0.91553  1.0000
  C   C330      1.0  0.40110  0.11001  0.95257  1.0000
  C   C331      1.0  0.39913  0.12370  0.97791  1.0000
  C   C332      1.0  0.38926  0.13739  0.96647  1.0000
  C   C333      1.0  0.38132  0.13713  0.92929  1.0000
  C   C334      1.0  0.38316  0.12338  0.90418  1.0000
  H   H582      1.0  0.40900  0.09982  0.96149  1.0000
  H   H583      1.0  0.40544  0.12376  0.00641  1.0000
  H   H584      1.0  0.37369  0.14749  0.91989  1.0000
  H   H585      1.0  0.37684  0.12335  0.87566  1.0000
  C   C335      1.0  0.48266  0.04741  0.84785  1.0000
  C   C336      1.0  0.47808  0.04720  0.80712  1.0000
  C   C337      1.0  0.25969  0.18468  0.26733  1.0000
  H   H586      1.0  0.47340  0.04780  0.87178  1.0000
  H   H587      1.0  0.41345  0.21285  0.87383  1.0000
  H   H588      1.0  0.25568  0.17306  0.60796  1.0000
  H   H589      1.0  0.31820  0.03480  0.44439  1.0000
  C   C338      1.0  0.44552  0.18400  0.94505  1.0000
  C   C339      1.0  0.42558  0.02984  0.64738  1.0000
  H   H590      1.0  0.42331  0.02695  0.58216  1.0000
  C   C340      1.0  0.42773  0.15226  0.94160  1.0000
  H   H591      1.0  0.25050  0.20439  0.56261  1.0000
  H   H592      1.0  0.30331  0.02262  0.29101  1.0000
  C   C341      1.0  0.42063  0.16903  0.92716  1.0000
  C   C342      1.0  0.36229  0.00265  0.66257  1.0000
  C   C343      1.0  0.35324  0.01632  0.67610  1.0000
  C   C344      1.0  0.35798  0.02465  0.71097  1.0000
  C   C345      1.0  0.37182  0.01950  0.73300  1.0000
  C   C346      1.0  0.38066  0.00560  0.71992  1.0000
  C   C347      1.0  0.24121  0.21444  0.55989  1.0000
  H   H593      1.0  0.26361  0.13721  0.67440  1.0000
  H   H594      1.0  0.35099  0.03534  0.72061  1.0000
  H   H595      1.0  0.48703  0.04658  0.74487  1.0000
  H   H596      1.0  0.27001  0.09350  0.58854  1.0000
  C   C348      1.0  0.25958  0.06938  0.51377  1.0000
  C   C349      1.0  0.27440  0.06025  0.50957  1.0000
  C   C350      1.0  0.27599  0.04398  0.52449  1.0000
  C   C351      1.0  0.26244  0.03697  0.54367  1.0000
  H   H597      1.0  0.38862  0.04148  0.64558  1.0000
  H   H598      1.0  0.28474  0.06586  0.49462  1.0000
  H   H599      1.0  0.26337  0.02451  0.55533  1.0000
  C   C352      1.0  0.28940  0.21646  0.14914  1.0000
  C   C353      1.0  0.29379  0.20621  0.11658  1.0000
  C   C354      1.0  0.30943  0.20658  0.09788  1.0000
  C   C355      1.0  0.32105  0.21706  0.11197  1.0000
  H   H600      1.0  0.43035  0.04150  0.74563  1.0000
  H   H601      1.0  0.43907  0.19931  0.01993  1.0000
  H   H602      1.0  0.28506  0.19783  0.10585  1.0000
  H   H603      1.0  0.31262  0.19853  0.07313  1.0000
  H   H604      1.0  0.40716  0.16884  0.93157  1.0000
  C   C356      1.0  0.42815  0.07064  0.70534  1.0000
  H   H605      1.0  0.43783  0.01276  0.75605  1.0000
  H   H606      1.0  0.42776  0.17187  0.00749  1.0000
  C   C357      1.0  0.31340  0.22417  0.89123  1.0000
  C   C358      1.0  0.31602  0.20891  0.87364  1.0000
  C   C359      1.0  0.30759  0.20527  0.83852  1.0000
  C   C360      1.0  0.29703  0.21697  0.82020  1.0000
  H   H607      1.0  0.31951  0.22692  0.91891  1.0000
  H   H608      1.0  0.30945  0.19343  0.82498  1.0000
  H   H609      1.0  0.29084  0.21414  0.79267  1.0000
  H   H610      1.0  0.37340  0.20334  0.82046  1.0000
  H   H611      1.0  0.24028  0.17977  0.54479  1.0000
  N   N25       1.0  0.24676  0.10706  0.65015  1.0000
  H   H612      1.0  0.25799  0.18115  0.18689  1.0000
  C   C361      1.0  0.25596  0.09289  0.67023  1.0000
  H   H613      1.0  0.38275  0.05551  0.68493  1.0000
  H   H614      1.0  0.43176  0.00769  0.70635  1.0000
  S   S114      1.0  0.25001  0.21766  0.77453  1.0000
  H   H615      1.0  0.31410  0.00591  0.42640  1.0000
  H   H616      1.0  0.42702  0.21006  0.93677  1.0000
  C   C362      1.0  0.24607  0.06242  0.53333  1.0000
  H   H617      1.0  0.28844  0.01633  0.44697  1.0000
  C   C363      1.0  0.24132  0.18390  0.25948  1.0000
  C   C364      1.0  0.32393  0.02974  0.41631  1.0000
  H   H618      1.0  0.39117  0.00126  0.73662  1.0000
  H   H619      1.0  0.42393  0.06348  0.64461  1.0000
  H   H620      1.0  0.32527  0.03951  0.39262  1.0000
  H   H621      1.0  0.35946  0.20894  0.86023  1.0000
  C   C365      1.0  0.25335  0.23469  0.96092  1.0000
  H   H622      1.0  0.43255  0.04550  0.59467  1.0000
  C   C366      1.0  0.27198  0.23579  0.95828  1.0000
  H   H623      1.0  0.26709  0.03788  0.38929  1.0000
  C   C367      1.0  0.37598  0.99734  0.68494  1.0000
  H   H624      1.0  0.43828  0.02465  0.64655  1.0000
  H   H625      1.0  0.43586  0.06736  0.73177  1.0000
  H   H626      1.0  0.26321  0.01682  0.40452  1.0000
  H   H627      1.0  0.25634  0.17411  0.48072  1.0000
  H   H628      1.0  0.24565  0.19030  0.45449  1.0000
  C   C368      1.0  0.39326  0.05051  0.66678  1.0000
  C   C369      1.0  0.31471  0.01510  0.40092  1.0000
  Fe  Fe57      1.0  0.24816  0.22017  0.70637  1.0000
  C   C370      1.0  0.40552  0.04229  0.69619  1.0000
  C   C371      1.0  0.42583  0.19758  0.01757  1.0000
  C   C372      1.0  0.42977  0.05780  0.67176  1.0000
  C   C373      1.0  0.25666  0.11449  0.61556  1.0000
  H   H629      1.0  0.45473  0.19557  0.88834  1.0000
  C   C374      1.0  0.25085  0.23166  0.88562  1.0000
  C   C375      1.0  0.41978  0.19932  0.92927  1.0000
  H   H630      1.0  0.41976  0.20902  0.00608  1.0000
  H   H631      1.0  0.24675  0.16976  0.39202  1.0000
  H   H632      1.0  0.42238  0.14260  0.92341  1.0000
  H   H633      1.0  0.40717  0.19225  0.87440  1.0000
  H   H634      1.0  0.26328  0.03239  0.44136  1.0000
  H   H635      1.0  0.24391  0.23599  0.85842  1.0000
  H   H636      1.0  0.25177  0.07617  0.61790  1.0000
  C   C376      1.0  0.30312  0.23601  0.87236  1.0000
  H   H637      1.0  0.41535  0.07275  0.71573  1.0000
  C   C377      1.0  0.30090  0.22717  0.16271  1.0000
  H   H638      1.0  0.24134  0.19555  0.18435  1.0000
  H   H639      1.0  0.42099  0.19543  0.04909  1.0000
  C   C378      1.0  0.26121  0.10342  0.57960  1.0000
  H   H640      1.0  0.32107  0.02326  0.32230  1.0000
  H   H641      1.0  0.40751  0.20176  0.94313  1.0000
  H   H642      1.0  0.40869  0.18111  0.99481  1.0000
  S   S115      1.0  0.25583  0.23113  0.28613  1.0000
  H   H643      1.0  0.25638  0.20731  0.91425  1.0000
  C   C379      1.0  0.42205  0.18271  0.99178  1.0000
  C   C380      1.0  0.29506  0.23249  0.83658  1.0000
  N   N26       1.0  0.38708  0.05546  0.01611  1.0000
  C   C381      1.0  0.38941  0.03747  0.02659  1.0000
  C   C382      1.0  0.40143  0.06021  0.98937  1.0000
  C   C383      1.0  0.37142  0.05758  0.99306  1.0000
  C   C384      1.0  0.38606  0.06467  0.05528  1.0000
  C   C385      1.0  0.37563  0.02952  0.05207  1.0000
  C   C386      1.0  0.41807  0.05990  0.01014  1.0000
  C   C387      1.0  0.36932  0.07296  0.96531  1.0000
  C   C388      1.0  0.38594  0.08349  0.05170  1.0000
  H   H644      1.0  0.39085  0.03036  0.99821  1.0000
  H   H645      1.0  0.40073  0.03494  0.04380  1.0000
  H   H646      1.0  0.39981  0.07260  0.97548  1.0000
  H   H647      1.0  0.40266  0.05202  0.96295  1.0000
  H   H648      1.0  0.36989  0.04710  0.97257  1.0000
  H   H649      1.0  0.36071  0.05749  0.01446  1.0000
  H   H650      1.0  0.37476  0.06170  0.07280  1.0000
  H   H651      1.0  0.39591  0.06056  0.07627  1.0000
  H   H652      1.0  0.36381  0.03043  0.03655  1.0000
  H   H653      1.0  0.37871  0.01626  0.05624  1.0000
  H   H654      1.0  0.37440  0.03459  0.08301  1.0000
  H   H655      1.0  0.42738  0.06425  0.98771  1.0000
  H   H656      1.0  0.41816  0.06817  0.03628  1.0000
  H   H657      1.0  0.42212  0.04738  0.01976  1.0000
  H   H658      1.0  0.37702  0.07186  0.93729  1.0000
  H   H659      1.0  0.37193  0.08446  0.98032  1.0000
  H   H660      1.0  0.35656  0.07403  0.95507  1.0000
  H   H661      1.0  0.37332  0.08864  0.04957  1.0000
  H   H662      1.0  0.39335  0.08829  0.02584  1.0000
  H   H663      1.0  0.39150  0.08840  0.07917  1.0000
  N   N27       1.0  0.29791  0.01891  0.38509  1.0000
  H   H664      1.0  0.42832  0.19695  0.86487  1.0000
  H   H665      1.0  0.37498  0.23143  0.79406  1.0000
  S   S116      1.0  0.35732  0.99179  0.61798  1.0000
  C   C389      1.0  0.29782  0.03205  0.35208  1.0000
  C   C390      1.0  0.28760  0.02509  0.42048  1.0000
  H   H666      1.0  0.28562  0.99618  0.39725  1.0000
  H   H667      1.0  0.25048  0.09832  0.56550  1.0000
  C   C391      1.0  0.24949  0.18589  0.48496  1.0000
  H   H668      1.0  0.26138  0.19112  0.29619  1.0000
  C   C392      1.0  0.41722  0.20013  0.88286  1.0000
  C   C393      1.0  0.24346  0.12018  0.68116  1.0000
  H   H669      1.0  0.32687  0.99082  0.66487  1.0000
  C   C394      1.0  0.42943  0.01644  0.73116  1.0000
  H   H670      1.0  0.44293  0.05651  0.66309  1.0000
  H   H671      1.0  0.28546  0.03372  0.33936  1.0000
  H   H672      1.0  0.30013  0.04426  0.36457  1.0000
  C   C395      1.0  0.26930  0.02811  0.41268  1.0000
  H   H673      1.0  0.33639  0.02542  0.42463  1.0000
  H   H674      1.0  0.45115  0.17424  0.96488  1.0000
  C   C396      1.0  0.43278  0.03427  0.71791  1.0000
  H   H675      1.0  0.44749  0.17523  0.88132  1.0000
  C   C397      1.0  0.42278  0.03706  0.60414  1.0000
  S   S117      1.0  0.39585  0.23452  0.93726  1.0000
  Fe  Fe58      1.0  0.25521  0.23121  0.21729  1.0000
  H   H676      1.0  0.41079  0.04334  0.60097  1.0000
  H   H677      1.0  0.34271  0.02066  0.65940  1.0000
  C   C398      1.0  0.29042  0.00352  0.37073  1.0000
  H   H678      1.0  0.26850  0.11864  0.62638  1.0000
  H   H679      1.0  0.42253  0.16949  0.89367  1.0000
  N   N28       1.0  0.42312  0.04126  0.68262  1.0000
  H   H680      1.0  0.25626  0.15611  0.22367  1.0000
  H   H681      1.0  0.29201  0.03691  0.43114  1.0000
  H   H682      1.0  0.43324  0.00122  0.03548  1.0000
  C   C399      1.0  0.24449  0.18221  0.18579  1.0000
  H   H683      1.0  0.35330  0.21024  0.80791  1.0000
  C   C400      1.0  0.24766  0.04614  0.54817  1.0000
  H   H684      1.0  0.25862  0.08180  0.50185  1.0000
  H   H685      1.0  0.43251  0.08249  0.69289  1.0000
  S   S118      1.0  0.25411  0.20003  0.66152  1.0000
  H   H686      1.0  0.25809  0.19457  0.49718  1.0000
  N   N29       1.0  0.42722  0.18372  0.94732  1.0000
  H   H687      1.0  0.40105  0.02985  0.70206  1.0000
  H   H688      1.0  0.40386  0.04806  0.72637  1.0000
  H   H689      1.0  0.46609  0.17754  0.90518  1.0000
  C   C401      1.0  0.24427  0.17251  0.62492  1.0000
  C   C402      1.0  0.45368  0.18315  0.90236  1.0000
  H   H690      1.0  0.44611  0.03494  0.71127  1.0000
  H   H691      1.0  0.31272  0.04154  0.30180  1.0000
  H   H692      1.0  0.39802  0.06112  0.64947  1.0000
  C   C403      1.0  0.31664  0.22736  0.14444  1.0000
  H   H693      1.0  0.26560  0.17241  0.27102  1.0000
  H   H694      1.0  0.44109  0.15123  0.93675  1.0000
  H   H695      1.0  0.26908  0.09562  0.67220  1.0000
  C   C404      1.0  0.36342  0.21219  0.82875  1.0000
  H   H696      1.0  0.25823  0.20825  0.86022  1.0000
  C   C405      1.0  0.41265  0.00198  0.99601  1.0000
  H   H697      1.0  0.26615  0.19191  0.24336  1.0000
  H   H698      1.0  0.41693  0.01520  0.74392  1.0000
  H   H699      1.0  0.25464  0.13593  0.72406  1.0000
  C   C406      1.0  0.25488  0.07597  0.65044  1.0000
  H   H700      1.0  0.27755  0.22792  0.93438  1.0000
  C   C407      1.0  0.25082  0.21282  0.88654  1.0000
  C   C408      1.0  0.30154  0.99146  0.34673  1.0000
  H   H701      1.0  0.38041  0.22967  0.84627  1.0000
  H   H702      1.0  0.24594  0.18270  0.11973  1.0000
  C   C409      1.0  0.24274  0.15682  0.22604  1.0000
  C   C410      1.0  0.36988  0.22969  0.82557  1.0000
  H   H703      1.0  0.32551  0.23546  0.15574  1.0000
  H   H704      1.0  0.24487  0.16252  0.14094  1.0000
  H   H705      1.0  0.32285  0.00920  0.37788  1.0000
  H   H706      1.0  0.30841  0.99729  0.32133  1.0000
  H   H707      1.0  0.34657  0.23036  0.88673  1.0000
  H   H708      1.0  0.26359  0.23499  0.87887  1.0000
  H   H709      1.0  0.24188  0.15250  0.29298  1.0000
  C   C411      1.0  0.42152  0.99621  0.02994  1.0000
  S   S119      1.0  0.30937  0.99324  0.58876  1.0000
  H   H710      1.0  0.27711  0.23128  0.98765  1.0000
  H   H711      1.0  0.33441  0.23260  0.82437  1.0000
  H   H712      1.0  0.25151  0.09114  0.70233  1.0000
  C   C412      1.0  0.39748  0.99541  0.98945  1.0000
  H   H713      1.0  0.32322  0.99899  0.71390  1.0000
  H   H714      1.0  0.25069  0.22184  0.96997  1.0000
  Fe  Fe59      1.0  0.33617  0.99138  0.57264  1.0000
  H   H715      1.0  0.27975  0.00657  0.35142  1.0000
  H   H716      1.0  0.24778  0.22607  0.55763  1.0000
  C   C413      1.0  0.24045  0.18425  0.65437  1.0000
  H   H717      1.0  0.24337  0.13459  0.26346  1.0000
  H   H718      1.0  0.24247  0.19576  0.35229  1.0000
  H   H719      1.0  0.24617  0.06822  0.66780  1.0000
  C   C414      1.0  0.24008  0.17523  0.14438  1.0000
  H   H720      1.0  0.34649  0.23587  0.77987  1.0000
  H   H721      1.0  0.48460  0.35109  0.72813  1.0000
  H   H722      1.0  0.39147  0.43684  0.61155  1.0000
  C   C415      1.0  0.33287  0.25694  0.79766  1.0000
  H   H723      1.0  0.40152  0.45853  0.64813  1.0000
  C   C416      1.0  0.24628  0.30369  0.23897  1.0000
  H   H724      1.0  0.43724  0.32727  0.04321  1.0000
  Fe  Fe60      1.0  0.40926  0.40597  0.61269  1.0000
  S   S120      1.0  0.42990  0.38706  0.61683  1.0000
  S   S121      1.0  0.38152  0.40200  0.61653  1.0000
  Fe  Fe61      1.0  0.43270  0.43470  0.61255  1.0000
  S   S122      1.0  0.45490  0.41782  0.61568  1.0000
  S   S123      1.0  0.43224  0.46255  0.60020  1.0000
  Fe  Fe62      1.0  0.44288  0.40284  0.56935  1.0000
  S   S124      1.0  0.45667  0.38921  0.51829  1.0000
  Fe  Fe63      1.0  0.44090  0.40298  0.66322  1.0000
  S   S125      1.0  0.45597  0.39481  0.71944  1.0000
  S   S126      1.0  0.42156  0.42053  0.56253  1.0000
  S   S127      1.0  0.41943  0.42103  0.66278  1.0000
  Fe  Fe64      1.0  0.27910  0.34862  0.55929  1.0000
  S   S128      1.0  0.29336  0.34526  0.50090  1.0000
  S   S129      1.0  0.28480  0.32846  0.60587  1.0000
  Fe  Fe65      1.0  0.26418  0.38179  0.52984  1.0000
  S   S130      1.0  0.27782  0.38034  0.46941  1.0000
  H   H725      1.0  0.33064  0.25661  0.88577  1.0000
  Fe  Fe66      1.0  0.27055  0.35376  0.46979  1.0000
  S   S131      1.0  0.25690  0.34030  0.42080  1.0000
  Fe  Fe67      1.0  0.29965  0.37174  0.50658  1.0000
  S   S132      1.0  0.32670  0.37800  0.49681  1.0000
  S   S133      1.0  0.25585  0.35580  0.52851  1.0000
  S   S134      1.0  0.28644  0.37454  0.56652  1.0000
  S   S135      1.0  0.26342  0.24258  0.70185  1.0000
  Fe  Fe68      1.0  0.47147  0.29596  0.96836  1.0000
  H   H726      1.0  0.25561  0.26326  0.85737  1.0000
  S   S136      1.0  0.45441  0.27724  0.99908  1.0000
  H   H727      1.0  0.46432  0.37712  0.59839  1.0000
  C   C417      1.0  0.47290  0.39306  0.89890  1.0000
  C   C418      1.0  0.25335  0.33323  0.23843  1.0000
  S   S137      1.0  0.46449  0.32275  0.96443  1.0000
  H   H728      1.0  0.47515  0.34627  0.66183  1.0000
  C   C419      1.0  0.47322  0.36670  0.59450  1.0000
  H   H729      1.0  0.44303  0.30083  0.06932  1.0000
  C   C420      1.0  0.43356  0.26595  0.94019  1.0000
  C   C421      1.0  0.43817  0.26548  0.98101  1.0000
  C   C422      1.0  0.42963  0.25529  0.00879  1.0000
  H   H730      1.0  0.48063  0.38719  0.87489  1.0000
  H   H731      1.0  0.43994  0.27367  0.91834  1.0000
  C   C423      1.0  0.24655  0.31413  0.37839  1.0000
  H   H732      1.0  0.35722  0.26987  0.83095  1.0000
  C   C424      1.0  0.45768  0.37790  0.75509  1.0000
  C   C425      1.0  0.44709  0.36486  0.75578  1.0000
  C   C426      1.0  0.44912  0.35173  0.78433  1.0000
  C   C427      1.0  0.46184  0.35126  0.81240  1.0000
  C   C428      1.0  0.47262  0.36415  0.81119  1.0000
  C   C429      1.0  0.47043  0.37742  0.78313  1.0000
  H   H733      1.0  0.43724  0.36493  0.73455  1.0000
  C   C430      1.0  0.48864  0.31448  0.14619  1.0000
  S   S138      1.0  0.24047  0.25709  0.77674  1.0000
  C   C431      1.0  0.38908  0.48025  0.67088  1.0000
  C   C432      1.0  0.36644  0.39637  0.58143  1.0000
  C   C433      1.0  0.34987  0.39746  0.59349  1.0000
  C   C434      1.0  0.33753  0.39223  0.56790  1.0000
  C   C435      1.0  0.34157  0.38582  0.52967  1.0000
  C   C436      1.0  0.35811  0.38507  0.51731  1.0000
  C   C437      1.0  0.37044  0.39026  0.54291  1.0000
  H   H734      1.0  0.34654  0.40215  0.62314  1.0000
  H   H735      1.0  0.32492  0.39301  0.57795  1.0000
  H   H736      1.0  0.36145  0.38025  0.48778  1.0000
  H   H737      1.0  0.38306  0.38934  0.53296  1.0000
  C   C438      1.0  0.47045  0.39640  0.47962  1.0000
  C   C439      1.0  0.47331  0.41301  0.47319  1.0000
  H   H738      1.0  0.37161  0.43677  0.59252  1.0000
  C   C440      1.0  0.36565  0.25928  0.82527  1.0000
  N   N30       1.0  0.47366  0.38332  0.93851  1.0000
  H   H739      1.0  0.46714  0.42192  0.49237  1.0000
  H   H740      1.0  0.34889  0.26764  0.89590  1.0000
  S   S139      1.0  0.48344  0.29586  0.90579  1.0000
  C   C441      1.0  0.43685  0.47862  0.67306  1.0000
  C   C442      1.0  0.43281  0.47989  0.63194  1.0000
  Fe  Fe69      1.0  0.47752  0.32315  0.90312  1.0000
  H   H741      1.0  0.43965  0.46673  0.68677  1.0000
  H   H742      1.0  0.38458  0.47502  0.70032  1.0000
  H   H743      1.0  0.47780  0.47281  0.29011  1.0000
  C   C443      1.0  0.25053  0.33491  0.28478  1.0000
  H   H744      1.0  0.38398  0.42858  0.67474  1.0000
  C   C444      1.0  0.26390  0.29277  0.34813  1.0000
  H   H745      1.0  0.29447  0.29379  0.24411  1.0000
  Fe  Fe70      1.0  0.26315  0.24122  0.77042  1.0000
  C   C445      1.0  0.26007  0.32163  0.39450  1.0000
  C   C446      1.0  0.27553  0.31446  0.38776  1.0000
  C   C447      1.0  0.27741  0.30019  0.36455  1.0000
  C   C448      1.0  0.47902  0.35891  0.66621  1.0000
  C   C449      1.0  0.34289  0.25574  0.89873  1.0000
  H   H746      1.0  0.28607  0.32011  0.39960  1.0000
  H   H747      1.0  0.28947  0.29495  0.35886  1.0000
  H   H748      1.0  0.32938  0.26471  0.82359  1.0000
  H   H749      1.0  0.28312  0.32191  0.23757  1.0000
  C   C450      1.0  0.26325  0.28950  0.65993  1.0000
  C   C451      1.0  0.27478  0.30061  0.64513  1.0000
  C   C452      1.0  0.26982  0.31530  0.62551  1.0000
  C   C453      1.0  0.25322  0.31901  0.62149  1.0000
  C   C454      1.0  0.38879  0.45061  0.55592  1.0000
  H   H750      1.0  0.26720  0.27813  0.67453  1.0000
  H   H751      1.0  0.28760  0.29772  0.64859  1.0000
  C   C455      1.0  0.42065  0.25641  0.92754  1.0000
  H   H752      1.0  0.24980  0.32355  0.12047  1.0000
  N   N31       1.0  0.46248  0.30544  0.11137  1.0000
  C   C456      1.0  0.25331  0.28333  0.54332  1.0000
  C   C457      1.0  0.45316  0.30918  0.07304  1.0000
  H   H753      1.0  0.26872  0.31470  0.48468  1.0000
  C   C458      1.0  0.45237  0.30796  0.14984  1.0000
  H   H754      1.0  0.24925  0.24208  0.98744  1.0000
  C   C459      1.0  0.44601  0.32677  0.06845  1.0000
  H   H755      1.0  0.26278  0.34205  0.22853  1.0000
  C   C460      1.0  0.43440  0.30287  0.14939  1.0000
  H   H756      1.0  0.44622  0.35762  0.96606  1.0000
  H   H757      1.0  0.39120  0.43969  0.53707  1.0000
  C   C461      1.0  0.41667  0.24581  0.99618  1.0000
  H   H758      1.0  0.46115  0.30695  0.04577  1.0000
  H   H759      1.0  0.26538  0.48733  0.58282  1.0000
  H   H760      1.0  0.44703  0.40165  0.89992  1.0000
  C   C462      1.0  0.47655  0.31686  0.11109  1.0000
  H   H761      1.0  0.45198  0.32115  0.15759  1.0000
  C   C463      1.0  0.24175  0.46129  0.46976  1.0000
  H   H762      1.0  0.25727  0.27916  0.89280  1.0000
  H   H763      1.0  0.25238  0.29115  0.57039  1.0000
  H   H764      1.0  0.45381  0.35088  0.61782  1.0000
  H   H765      1.0  0.43299  0.25478  0.04044  1.0000
  C   C464      1.0  0.36856  0.45069  0.66371  1.0000
  H   H766      1.0  0.45788  0.45483  0.31392  1.0000
  C   C465      1.0  0.24770  0.32623  0.15323  1.0000
  H   H767      1.0  0.43154  0.29382  0.12650  1.0000
  H   H768      1.0  0.45101  0.39401  0.96355  1.0000
  H   H769      1.0  0.25516  0.26554  0.42458  1.0000
  H   H770      1.0  0.42613  0.31378  0.14575  1.0000
  H   H771      1.0  0.44072  0.34184  0.78471  1.0000
  C   C466      1.0  0.41206  0.24629  0.95537  1.0000
  H   H772      1.0  0.47883  0.38731  0.78271  1.0000
  S   S140      1.0  0.46359  0.33434  0.84801  1.0000
  C   C467      1.0  0.47003  0.45250  0.32729  1.0000
  H   H773      1.0  0.26744  0.29074  0.44602  1.0000
  C   C468      1.0  0.46401  0.39235  0.97100  1.0000
  H   H774      1.0  0.41727  0.25695  0.89591  1.0000
  C   C469      1.0  0.39167  0.46724  0.63794  1.0000
  C   C470      1.0  0.24167  0.30794  0.63657  1.0000
  H   H775      1.0  0.45543  0.35278  0.56374  1.0000
  H   H776      1.0  0.37214  0.43513  0.71758  1.0000
  H   H777      1.0  0.28688  0.29732  0.19411  1.0000
  C   C471      1.0  0.38186  0.44495  0.59787  1.0000
  C   C472      1.0  0.45609  0.39547  0.87964  1.0000
  H   H778      1.0  0.34107  0.25318  0.93188  1.0000
  H   H779      1.0  0.24694  0.30133  0.27232  1.0000
  H   H780      1.0  0.38537  0.27501  0.84007  1.0000
  C   C473      1.0  0.34991  0.46302  0.58808  1.0000
  C   C474      1.0  0.34292  0.24136  0.80962  1.0000
  S   S141      1.0  0.26723  0.27537  0.31697  1.0000
  H   H781      1.0  0.24974  0.29166  0.22630  1.0000
  H   H782      1.0  0.37925  0.26224  0.88203  1.0000
  N   N32       1.0  0.34190  0.34050  0.59351  1.0000
  C   C475      1.0  0.35346  0.35201  0.61205  1.0000
  C   C476      1.0  0.32518  0.34865  0.59475  1.0000
  C   C477      1.0  0.34719  0.33840  0.54956  1.0000
  C   C478      1.0  0.34267  0.32438  0.61699  1.0000
  C   C479      1.0  0.37169  0.34698  0.60963  1.0000
  C   C480      1.0  0.31914  0.35450  0.63695  1.0000
  C   C481      1.0  0.33708  0.32707  0.52434  1.0000
  C   C482      1.0  0.32720  0.31414  0.61815  1.0000
  H   H783      1.0  0.35224  0.36431  0.59740  1.0000
  H   H784      1.0  0.35050  0.35372  0.64495  1.0000
  H   H785      1.0  0.31585  0.34064  0.58323  1.0000
  H   H786      1.0  0.32470  0.35952  0.57373  1.0000
  H   H787      1.0  0.34736  0.35050  0.53322  1.0000
  H   H788      1.0  0.35982  0.33324  0.54714  1.0000
  H   H789      1.0  0.35283  0.31643  0.60498  1.0000
  H   H790      1.0  0.34557  0.32618  0.64952  1.0000
  H   H791      1.0  0.37404  0.33413  0.61971  1.0000
  H   H792      1.0  0.37685  0.34913  0.57845  1.0000
  H   H793      1.0  0.37846  0.35490  0.62989  1.0000
  H   H794      1.0  0.32453  0.36633  0.64400  1.0000
  H   H795      1.0  0.30573  0.35665  0.63666  1.0000
  H   H796      1.0  0.32186  0.34545  0.66169  1.0000
  H   H797      1.0  0.33925  0.31409  0.53362  1.0000
  H   H798      1.0  0.34104  0.32827  0.49183  1.0000
  H   H799      1.0  0.32395  0.33031  0.52547  1.0000
  H   H800      1.0  0.31746  0.31973  0.63770  1.0000
  H   H801      1.0  0.33012  0.30190  0.63190  1.0000
  H   H802      1.0  0.32224  0.31218  0.58776  1.0000
  C   C483      1.0  0.24865  0.27353  0.44695  1.0000
  N   N33       1.0  0.37676  0.45832  0.62665  1.0000
  H   H803      1.0  0.24333  0.25904  0.53611  1.0000
  H   H804      1.0  0.46834  0.40505  0.97317  1.0000
  H   H805      1.0  0.27333  0.31001  0.27622  1.0000
  H   H806      1.0  0.28549  0.29215  0.54941  1.0000
  C   C484      1.0  0.48392  0.41816  0.44128  1.0000
  C   C485      1.0  0.46815  0.36609  0.93335  1.0000
  C   C486      1.0  0.45736  0.27433  0.11118  1.0000
  H   H807      1.0  0.33947  0.26438  0.77430  1.0000
  C   C487      1.0  0.38128  0.26256  0.84850  1.0000
  C   C488      1.0  0.28508  0.29940  0.52043  1.0000
  H   H808      1.0  0.26419  0.31391  0.53769  1.0000
  H   H809      1.0  0.36878  0.26005  0.79207  1.0000
  H   H810      1.0  0.26039  0.30348  0.16739  1.0000
  C   C489      1.0  0.44961  0.36333  0.93614  1.0000
  H   H811      1.0  0.38025  0.45872  0.53872  1.0000
  H   H812      1.0  0.44835  0.27542  0.08672  1.0000
  C   C490      1.0  0.24399  0.25833  0.91712  1.0000
  H   H813      1.0  0.48378  0.31598  0.08203  1.0000
  H   H814      1.0  0.24929  0.33043  0.60699  1.0000
  C   C491      1.0  0.46269  0.35155  0.59186  1.0000
  S   S142      1.0  0.48841  0.34786  0.04109  1.0000
  H   H815      1.0  0.34252  0.45611  0.61083  1.0000
  H   H816      1.0  0.24403  0.26454  0.94689  1.0000
  H   H817      1.0  0.36269  0.46019  0.68330  1.0000
  H   H818      1.0  0.45561  0.33550  0.05988  1.0000
  S   S143      1.0  0.25263  0.25846  0.21167  1.0000
  H   H819      1.0  0.34197  0.47311  0.57570  1.0000
  H   H820      1.0  0.47787  0.40541  0.90274  1.0000
  H   H821      1.0  0.26173  0.33223  0.30220  1.0000
  C   C492      1.0  0.36494  0.47039  0.60704  1.0000
  H   H822      1.0  0.47497  0.47736  0.34171  1.0000
  H   H823      1.0  0.48479  0.39596  0.57544  1.0000
  H   H824      1.0  0.35325  0.45501  0.56227  1.0000
  Fe  Fe71      1.0  0.25127  0.25856  0.28058  1.0000
  H   H825      1.0  0.48584  0.43105  0.43646  1.0000
  H   H826      1.0  0.45152  0.38375  0.86907  1.0000
  H   H827      1.0  0.27578  0.28519  0.23161  1.0000
  C   C493      1.0  0.28318  0.29614  0.22672  1.0000
  H   H828      1.0  0.39696  0.47376  0.61082  1.0000
  H   H829      1.0  0.45819  0.30141  0.17611  1.0000
  H   H830      1.0  0.47274  0.36124  0.90375  1.0000
  H   H831      1.0  0.46790  0.44956  0.36017  1.0000
  H   H832      1.0  0.46415  0.26255  0.10646  1.0000
  C   C494      1.0  0.26128  0.28308  0.46983  1.0000
  H   H833      1.0  0.35850  0.44289  0.65462  1.0000
  H   H834      1.0  0.24204  0.33801  0.22419  1.0000
  H   H835      1.0  0.44652  0.35430  0.91309  1.0000
  H   H836      1.0  0.40096  0.48568  0.67690  1.0000
  C   C495      1.0  0.26027  0.31624  0.17853  1.0000
  H   H837      1.0  0.47725  0.28672  0.08151  1.0000
  H   H838      1.0  0.40056  0.45664  0.55872  1.0000
  H   H839      1.0  0.47210  0.32982  0.11254  1.0000
  H   H840      1.0  0.46766  0.36561  0.67616  1.0000
  H   H841      1.0  0.47364  0.35783  0.95713  1.0000
  H   H842      1.0  0.27071  0.27398  0.48037  1.0000
  Fe  Fe72      1.0  0.48869  0.32771  0.99243  1.0000
  C   C496      1.0  0.24665  0.29306  0.65539  1.0000
  H   H843      1.0  0.46172  0.37142  0.01468  1.0000
  H   H844      1.0  0.37113  0.47790  0.58293  1.0000
  H   H845      1.0  0.43946  0.33093  0.09631  1.0000
  H   H846      1.0  0.27581  0.24852  0.95384  1.0000
  H   H847      1.0  0.46992  0.33999  0.59002  1.0000
  H   H848      1.0  0.32137  0.25330  0.78378  1.0000
  H   H849      1.0  0.47664  0.38596  0.02805  1.0000
  H   H850      1.0  0.48148  0.47437  0.56656  1.0000
  C   C497      1.0  0.25655  0.48618  0.52036  1.0000
  H   H851      1.0  0.44167  0.37420  0.93040  1.0000
  N   N34       1.0  0.25514  0.29351  0.50465  1.0000
  C   C498      1.0  0.46953  0.28822  0.10968  1.0000
  S   S144      1.0  0.24817  0.40313  0.55468  1.0000
  C   C499      1.0  0.37948  0.43958  0.69097  1.0000
  H   H852      1.0  0.29310  0.30985  0.52438  1.0000
  H   H853      1.0  0.29042  0.29222  0.49497  1.0000
  C   C500      1.0  0.25762  0.26567  0.88993  1.0000
  H   H854      1.0  0.26996  0.26115  0.89769  1.0000
  N   N35       1.0  0.25816  0.31631  0.22440  1.0000
  H   H855      1.0  0.45114  0.27332  0.14144  1.0000
  H   H856      1.0  0.26452  0.27574  0.54891  1.0000
  C   C501      1.0  0.46460  0.38453  0.01424  1.0000
  C   C502      1.0  0.48935  0.39016  0.42253  1.0000
  H   H857      1.0  0.46898  0.48611  0.60076  1.0000
  H   H858      1.0  0.45735  0.40343  0.85186  1.0000
  C   C503      1.0  0.27447  0.31181  0.24262  1.0000
  H   H859      1.0  0.36012  0.47933  0.62964  1.0000
  H   H860      1.0  0.27229  0.32120  0.16903  1.0000
  H   H861      1.0  0.38985  0.44602  0.70322  1.0000
  C   C504      1.0  0.47365  0.48563  0.56883  1.0000
  C   C505      1.0  0.26773  0.30613  0.51153  1.0000
  H   H862      1.0  0.47565  0.44163  0.31242  1.0000
  H   H863      1.0  0.45549  0.39086  0.03433  1.0000
  H   H864      1.0  0.24922  0.33956  0.15625  1.0000
  H   H865      1.0  0.48273  0.36381  0.83158  1.0000
  S   S145      1.0  0.28339  0.24802  0.81194  1.0000
  C   C506      1.0  0.24840  0.29974  0.35570  1.0000
  H   H866      1.0  0.48251  0.31383  0.17657  1.0000
  C   C507      1.0  0.48902  0.38425  0.63629  1.0000
  H   H867      1.0  0.26152  0.47342  0.52399  1.0000
  C   C508      1.0  0.48028  0.46788  0.32108  1.0000
  H   H868      1.0  0.47907  0.36865  0.56386  1.0000
  H   H869      1.0  0.25506  0.46144  0.46347  1.0000
  H   H870      1.0  0.24188  0.31095  0.46640  1.0000
  H   H871      1.0  0.47648  0.37214  0.45881  1.0000
  H   H872      1.0  0.43107  0.29732  0.17958  1.0000
  H   H873      1.0  0.47764  0.28546  0.13569  1.0000
  H   H874      1.0  0.30143  0.24795  0.88543  1.0000
  H   H875      1.0  0.46339  0.48406  0.54811  1.0000
  H   H876      1.0  0.24674  0.34774  0.29131  1.0000
  H   H877      1.0  0.48359  0.37364  0.09913  1.0000
  H   H878      1.0  0.47806  0.39033  0.65054  1.0000
  N   N36       1.0  0.48573  0.36666  0.62743  1.0000
  C   C509      1.0  0.47861  0.38502  0.45424  1.0000
  H   H879      1.0  0.39145  0.25397  0.84026  1.0000
  H   H880      1.0  0.24054  0.28185  0.42885  1.0000
  H   H881      1.0  0.24132  0.26557  0.46726  1.0000
  N   N37       1.0  0.35770  0.24331  0.83556  1.0000
  C   C510      1.0  0.35329  0.24170  0.88028  1.0000
  H   H882      1.0  0.24061  0.32711  0.29650  1.0000
  N   N38       1.0  0.24415  0.23992  0.92329  1.0000
  H   H883      1.0  0.36445  0.24033  0.89868  1.0000
  H   H884      1.0  0.28339  0.59569  0.46056  1.0000
  H   H885      1.0  0.43937  0.53342  0.52379  1.0000
  H   H886      1.0  0.28786  0.72872  0.16961  1.0000
  H   H887      1.0  0.25067  0.51640  0.48595  1.0000
  Fe  Fe73      1.0  0.24777  0.71974  0.83296  1.0000
  S   S146      1.0  0.25946  0.69499  0.81756  1.0000
  Fe  Fe74      1.0  0.28237  0.63590  0.55342  1.0000
  S   S147      1.0  0.25662  0.63088  0.57080  1.0000
  S   S148      1.0  0.28945  0.65230  0.49925  1.0000
  Fe  Fe75      1.0  0.29583  0.61242  0.61904  1.0000
  S   S149      1.0  0.27047  0.60567  0.64143  1.0000
  S   S150      1.0  0.31824  0.60258  0.65393  1.0000
  Fe  Fe76      1.0  0.26422  0.60425  0.57515  1.0000
  H   H888      1.0  0.31634  0.73498  0.24612  1.0000
  Fe  Fe77      1.0  0.26432  0.63270  0.63567  1.0000
  H   H889      1.0  0.31281  0.71096  0.08005  1.0000
  S   S151      1.0  0.28992  0.60917  0.55307  1.0000
  S   S152      1.0  0.28981  0.63961  0.61791  1.0000
  Fe  Fe78      1.0  0.47362  0.67888  0.01989  1.0000
  H   H890      1.0  0.46234  0.51191  0.62008  1.0000
  S   S153      1.0  0.44875  0.69255  0.01366  1.0000
  H   H891      1.0  0.32438  0.72480  0.10760  1.0000
  S   S154      1.0  0.47254  0.65151  0.02957  1.0000
  Fe  Fe79      1.0  0.41727  0.58269  0.65258  1.0000
  S   S155      1.0  0.41805  0.57324  0.71769  1.0000
  S   S156      1.0  0.39479  0.59145  0.61610  1.0000
  Fe  Fe80      1.0  0.45470  0.57738  0.63954  1.0000
  S   S157      1.0  0.45723  0.56769  0.70399  1.0000
  C   C511      1.0  0.47129  0.62863  0.68294  1.0000
  Fe  Fe81      1.0  0.43497  0.55331  0.69209  1.0000
  S   S158      1.0  0.43535  0.52597  0.71034  1.0000
  Fe  Fe82      1.0  0.44051  0.58843  0.72406  1.0000
  S   S159      1.0  0.44528  0.60840  0.77171  1.0000
  S   S160      1.0  0.43322  0.56206  0.62704  1.0000
  S   S161      1.0  0.43882  0.59879  0.65962  1.0000
  H   H892      1.0  0.24568  0.56409  0.60820  1.0000
  C   C512      1.0  0.47660  0.57737  0.52400  1.0000
  H   H893      1.0  0.46361  0.57839  0.52965  1.0000
  C   C513      1.0  0.43408  0.50847  0.67934  1.0000
  S   S162      1.0  0.24646  0.72495  0.31991  1.0000
  C   C514      1.0  0.42975  0.50969  0.63837  1.0000
  H   H894      1.0  0.47922  0.63596  0.66240  1.0000
  H   H895      1.0  0.42679  0.52157  0.62487  1.0000
  C   C515      1.0  0.47483  0.62383  0.88351  1.0000
  C   C516      1.0  0.47480  0.60734  0.87205  1.0000
  C   C517      1.0  0.46596  0.60237  0.83818  1.0000
  C   C518      1.0  0.45688  0.61384  0.81495  1.0000
  C   C519      1.0  0.45709  0.63037  0.82605  1.0000
  C   C520      1.0  0.46608  0.63535  0.85968  1.0000
  H   H896      1.0  0.26556  0.72975  0.04359  1.0000
  H   H897      1.0  0.46599  0.58961  0.83047  1.0000
  H   H898      1.0  0.45031  0.63945  0.80829  1.0000
  H   H899      1.0  0.46622  0.64811  0.86718  1.0000
  H   H900      1.0  0.27657  0.60091  0.41056  1.0000
  C   C521      1.0  0.33926  0.59794  0.64238  1.0000
  C   C522      1.0  0.35007  0.59518  0.67468  1.0000
  C   C523      1.0  0.36699  0.59275  0.66735  1.0000
  C   C524      1.0  0.37342  0.59314  0.62746  1.0000
  C   C525      1.0  0.36257  0.59569  0.59515  1.0000
  C   C526      1.0  0.34564  0.59789  0.60245  1.0000
  H   H901      1.0  0.34537  0.59515  0.70573  1.0000
  H   H902      1.0  0.37509  0.59083  0.69262  1.0000
  H   H903      1.0  0.36733  0.59591  0.56414  1.0000
  H   H904      1.0  0.33756  0.59961  0.57714  1.0000
  C   C527      1.0  0.41845  0.73545  0.07100  1.0000
  C   C528      1.0  0.44380  0.71860  0.06716  1.0000
  C   C529      1.0  0.43746  0.70914  0.03674  1.0000
  C   C530      1.0  0.42156  0.71298  0.02364  1.0000
  H   H905      1.0  0.45596  0.71587  0.07770  1.0000
  H   H906      1.0  0.41648  0.70587  0.00005  1.0000
  H   H907      1.0  0.44074  0.49168  0.72823  1.0000
  C   C531      1.0  0.25589  0.68280  0.77486  1.0000
  C   C532      1.0  0.26738  0.67042  0.76446  1.0000
  C   C533      1.0  0.26461  0.65975  0.73251  1.0000
  C   C534      1.0  0.25006  0.66103  0.71135  1.0000
  H   H908      1.0  0.46959  0.60518  0.71247  1.0000
  H   H909      1.0  0.27847  0.66900  0.78139  1.0000
  H   H910      1.0  0.27352  0.65021  0.72514  1.0000
  C   C535      1.0  0.25704  0.69646  0.45929  1.0000
  C   C536      1.0  0.26391  0.67480  0.50933  1.0000
  C   C537      1.0  0.27710  0.66956  0.48488  1.0000
  C   C538      1.0  0.28025  0.67785  0.44761  1.0000
  C   C539      1.0  0.27018  0.69117  0.43465  1.0000
  H   H911      1.0  0.29046  0.67391  0.42852  1.0000
  H   H912      1.0  0.27271  0.69748  0.40593  1.0000
  H   H913      1.0  0.45680  0.54495  0.53262  1.0000
  H   H914      1.0  0.24317  0.60951  0.70077  1.0000
  C   C540      1.0  0.27897  0.72995  0.04673  1.0000
  H   H915      1.0  0.25679  0.64405  0.47655  1.0000
  C   C541      1.0  0.41211  0.72598  0.04064  1.0000
  H   H916      1.0  0.43946  0.73881  0.10749  1.0000
  S   S163      1.0  0.24686  0.58834  0.54026  1.0000
  C   C542      1.0  0.31917  0.73287  0.04721  1.0000
  H   H917      1.0  0.26160  0.61305  0.49225  1.0000
  H   H918      1.0  0.42580  0.49665  0.58328  1.0000
  H   H919      1.0  0.39957  0.67038  0.99500  1.0000
  C   C543      1.0  0.24630  0.63876  0.46155  1.0000
  H   H920      1.0  0.46214  0.53614  0.65175  1.0000
  H   H921      1.0  0.27541  0.50051  0.54616  1.0000
  N   N39       1.0  0.47589  0.51719  0.56416  1.0000
  H   H922      1.0  0.44494  0.53612  0.57487  1.0000
  C   C544      1.0  0.43438  0.73166  0.08400  1.0000
  H   H923      1.0  0.46216  0.51534  0.50919  1.0000
  N   N40       1.0  0.29842  0.73052  0.10818  1.0000
  C   C545      1.0  0.25696  0.62832  0.39419  1.0000
  C   C546      1.0  0.47318  0.51875  0.60959  1.0000
  S   S164      1.0  0.24528  0.64671  0.67403  1.0000
  H   H924      1.0  0.28472  0.72209  0.02299  1.0000
  H   H925      1.0  0.32969  0.72599  0.03338  1.0000
  H   H926      1.0  0.25604  0.50638  0.56513  1.0000
  H   H927      1.0  0.30143  0.70366  0.19329  1.0000
  S   S165      1.0  0.24429  0.71353  0.44599  1.0000
  H   H928      1.0  0.26250  0.49062  0.49151  1.0000
  H   H929      1.0  0.48209  0.54248  0.55019  1.0000
  C   C547      1.0  0.45000  0.53421  0.54379  1.0000
  H   H930      1.0  0.25874  0.61720  0.37566  1.0000
  H   H931      1.0  0.27577  0.62408  0.46311  1.0000
  C   C548      1.0  0.25401  0.68822  0.49667  1.0000
  H   H932      1.0  0.25184  0.73759  0.50853  1.0000
  C   C549      1.0  0.31379  0.72411  0.08711  1.0000
  N   N41       1.0  0.42894  0.64293  0.95379  1.0000
  C   C550      1.0  0.44290  0.65438  0.95029  1.0000
  C   C551      1.0  0.43139  0.63185  0.99072  1.0000
  C   C552      1.0  0.41295  0.65226  0.95892  1.0000
  C   C553      1.0  0.42860  0.63324  0.91541  1.0000
  C   C554      1.0  0.44143  0.66826  0.91772  1.0000
  C   C555      1.0  0.44582  0.61934  0.98804  1.0000
  C   C556      1.0  0.41184  0.66431  0.99437  1.0000
  C   C557      1.0  0.41583  0.61988  0.91476  1.0000
  H   H933      1.0  0.44488  0.66021  0.97987  1.0000
  H   H934      1.0  0.45448  0.64757  0.94316  1.0000
  H   H935      1.0  0.42025  0.62492  0.99825  1.0000
  H   H936      1.0  0.43350  0.63915  0.01814  1.0000
  H   H937      1.0  0.40978  0.65917  0.93039  1.0000
  H   H938      1.0  0.40286  0.64373  0.96462  1.0000
  H   H939      1.0  0.42624  0.64138  0.88844  1.0000
  H   H940      1.0  0.44066  0.62721  0.90920  1.0000
  H   H941      1.0  0.44070  0.66358  0.88650  1.0000
  H   H942      1.0  0.43102  0.67682  0.92399  1.0000
  H   H943      1.0  0.45255  0.67559  0.91834  1.0000
  H   H944      1.0  0.45756  0.62531  0.98250  1.0000
  H   H945      1.0  0.44679  0.61255  0.01765  1.0000
  H   H946      1.0  0.44425  0.61014  0.96443  1.0000
  H   H947      1.0  0.42068  0.67417  0.99075  1.0000
  H   H948      1.0  0.41342  0.65805  0.02441  1.0000
  H   H949      1.0  0.41766  0.61043  0.93909  1.0000
  H   H950      1.0  0.41705  0.61356  0.88521  1.0000
  H   H951      1.0  0.40323  0.62504  0.91698  1.0000
  C   C558      1.0  0.48290  0.57680  0.48362  1.0000
  H   H952      1.0  0.46690  0.54566  0.60408  1.0000
  H   H953      1.0  0.38087  0.49046  0.66065  1.0000
  H   H954      1.0  0.30935  0.73020  0.16741  1.0000
  S   S166      1.0  0.48005  0.57820  0.60839  1.0000
  H   H955      1.0  0.24387  0.69220  0.51593  1.0000
  H   H956      1.0  0.26136  0.66856  0.53811  1.0000
  C   C559      1.0  0.28350  0.72374  0.08987  1.0000
  H   H957      1.0  0.28356  0.63036  0.39832  1.0000
  H   H958      1.0  0.27225  0.64879  0.40978  1.0000
  N   N42       1.0  0.34454  0.65096  0.60030  1.0000
  C   C560      1.0  0.33301  0.66554  0.59522  1.0000
  C   C561      1.0  0.33943  0.64155  0.63832  1.0000
  C   C562      1.0  0.34410  0.63991  0.56441  1.0000
  C   C563      1.0  0.36161  0.65686  0.60337  1.0000
  C   C564      1.0  0.33447  0.67532  0.55451  1.0000
  C   C565      1.0  0.34257  0.64968  0.67907  1.0000
  C   C566      1.0  0.32722  0.63362  0.55462  1.0000
  C   C567      1.0  0.37507  0.64346  0.61011  1.0000
  H   H959      1.0  0.32012  0.66188  0.59877  1.0000
  H   H960      1.0  0.33466  0.67441  0.61975  1.0000
  H   H961      1.0  0.34543  0.62927  0.63965  1.0000
  H   H962      1.0  0.32621  0.63911  0.63826  1.0000
  H   H963      1.0  0.34914  0.64596  0.53634  1.0000
  H   H964      1.0  0.35218  0.62891  0.56933  1.0000
  H   H965      1.0  0.36530  0.66349  0.57483  1.0000
  H   H966      1.0  0.36248  0.66624  0.62710  1.0000
  H   H967      1.0  0.34661  0.68061  0.54979  1.0000
  H   H968      1.0  0.33154  0.66796  0.52795  1.0000
  H   H969      1.0  0.32545  0.68571  0.55501  1.0000
  H   H970      1.0  0.33738  0.64198  0.70425  1.0000
  H   H971      1.0  0.35576  0.65039  0.68468  1.0000
  H   H972      1.0  0.33658  0.66195  0.68104  1.0000
  H   H973      1.0  0.32227  0.62593  0.57992  1.0000
  H   H974      1.0  0.32836  0.62581  0.52748  1.0000
  H   H975      1.0  0.31836  0.64365  0.54721  1.0000
  H   H976      1.0  0.38008  0.63900  0.58053  1.0000
  H   H977      1.0  0.37102  0.63274  0.62836  1.0000
  H   H978      1.0  0.38508  0.64851  0.62753  1.0000
  C   C568      1.0  0.26346  0.49558  0.55585  1.0000
  H   H979      1.0  0.24690  0.66019  0.41928  1.0000
  H   H980      1.0  0.30961  0.73372  0.02422  1.0000
  H   H981      1.0  0.47462  0.57743  0.45848  1.0000
  H   H982      1.0  0.27259  0.72552  0.11026  1.0000
  C   C569      1.0  0.46002  0.51805  0.54203  1.0000
  C   C570      1.0  0.47834  0.61122  0.69141  1.0000
  H   H983      1.0  0.39994  0.72871  0.03010  1.0000
  H   H984      1.0  0.28483  0.71023  0.08772  1.0000
  N   N43       1.0  0.25164  0.62396  0.43725  1.0000
  C   C571      1.0  0.29899  0.72473  0.15222  1.0000
  C   C572      1.0  0.27253  0.59960  0.44286  1.0000
  C   C573      1.0  0.42919  0.49551  0.61488  1.0000
  H   H985      1.0  0.47763  0.60428  0.66296  1.0000
  H   H986      1.0  0.46859  0.63513  0.71168  1.0000
  H   H987      1.0  0.29020  0.69954  0.14922  1.0000
  H   H988      1.0  0.31224  0.70088  0.14623  1.0000
  H   H989      1.0  0.45950  0.62776  0.66755  1.0000
  C   C574      1.0  0.30081  0.70609  0.15988  1.0000
  H   H990      1.0  0.48548  0.61446  0.76900  1.0000
  C   C575      1.0  0.24153  0.68440  0.75294  1.0000
  C   C576      1.0  0.47120  0.53622  0.62613  1.0000
  H   H991      1.0  0.27446  0.64240  0.35806  1.0000
  H   H992      1.0  0.45166  0.50866  0.55435  1.0000
  H   H993      1.0  0.26379  0.58961  0.44665  1.0000
  C   C577      1.0  0.26548  0.61574  0.46018  1.0000
  C   C578      1.0  0.43748  0.49282  0.69652  1.0000
  C   C579      1.0  0.27270  0.63801  0.39011  1.0000
  H   H994      1.0  0.48154  0.59825  0.88987  1.0000
  C   C580      1.0  0.48716  0.57703  0.55677  1.0000
  H   H995      1.0  0.48812  0.52873  0.51227  1.0000
  S   S167      1.0  0.48591  0.62917  0.92772  1.0000
  H   H996      1.0  0.47942  0.58809  0.75811  1.0000
  Fe  Fe83      1.0  0.24070  0.72851  0.38690  1.0000
  H   H997      1.0  0.48361  0.51293  0.62615  1.0000
  C   C581      1.0  0.48379  0.50061  0.55625  1.0000
  H   H998      1.0  0.48267  0.54010  0.63953  1.0000
  H   H999      1.0  0.24157  0.71950  0.55527  1.0000
  H   H1000     1.0  0.48714  0.49946  0.52330  1.0000
  C   C582      1.0  0.48702  0.52990  0.54600  1.0000
  Fe  Fe84      1.0  0.48945  0.64963  0.97458  1.0000
  H   H1001     1.0  0.24731  0.63563  0.37835  1.0000
  H   H1002     1.0  0.24168  0.60138  0.41743  1.0000
  C   C583      1.0  0.42560  0.79104  0.05991  1.0000
  H   H1003     1.0  0.32351  0.97212  0.74733  1.0000
  C   C584      1.0  0.29216  0.77541  0.22437  1.0000
  H   H1004     1.0  0.27107  0.75603  0.48439  1.0000
  C   C585      1.0  0.39127  0.98334  0.01664  1.0000
  S   S168      1.0  0.26261  0.75848  0.94735  1.0000
  Fe  Fe85      1.0  0.36271  0.79696  0.09333  1.0000
  S   S169      1.0  0.37185  0.77862  0.14059  1.0000
  S   S170      1.0  0.36687  0.82472  0.08644  1.0000
  Fe  Fe86      1.0  0.34924  0.76982  0.04142  1.0000
  S   S171      1.0  0.35772  0.74979  0.08495  1.0000
  S   S172      1.0  0.33827  0.76312  0.98102  1.0000
  Fe  Fe87      1.0  0.34782  0.76649  0.13384  1.0000
  S   S173      1.0  0.33464  0.75285  0.18579  1.0000
  Fe  Fe88      1.0  0.38108  0.76307  0.08831  1.0000
  N   N44       1.0  0.45813  0.93860  0.29884  1.0000
  S   S174      1.0  0.33789  0.78575  0.08989  1.0000
  S   S175      1.0  0.37335  0.78212  0.04140  1.0000
  Fe  Fe89      1.0  0.30689  0.97062  0.55134  1.0000
  S   S176      1.0  0.29606  0.94665  0.57665  1.0000
  H   H1005     1.0  0.47385  0.93283  0.24750  1.0000
  S   S177      1.0  0.33396  0.96794  0.53832  1.0000
  Fe  Fe90      1.0  0.39972  0.91192  0.17469  1.0000
  S   S178      1.0  0.41654  0.91859  0.22418  1.0000
  S   S179      1.0  0.39021  0.88594  0.18684  1.0000
  Fe  Fe91      1.0  0.40231  0.94678  0.13664  1.0000
  S   S180      1.0  0.41917  0.95518  0.18478  1.0000
  S   S181      1.0  0.39146  0.96256  0.08436  1.0000
  Fe  Fe92      1.0  0.43212  0.93067  0.17569  1.0000
  S   S182      1.0  0.45906  0.92200  0.17369  1.0000
  Fe  Fe93      1.0  0.40220  0.94238  0.23008  1.0000
  S   S183      1.0  0.39656  0.94912  0.29760  1.0000
  S   S184      1.0  0.41600  0.92281  0.12558  1.0000
  S   S185      1.0  0.38467  0.93525  0.18252  1.0000
  H   H1006     1.0  0.35371  0.95469  0.75257  1.0000
  C   C586      1.0  0.47903  0.92976  0.16677  1.0000
  C   C587      1.0  0.40019  0.97748  0.05044  1.0000
  C   C588      1.0  0.25440  0.81705  0.25676  1.0000
  H   H1007     1.0  0.47002  0.92408  0.36857  1.0000
  H   H1008     1.0  0.47232  0.95503  0.17561  1.0000
  C   C589      1.0  0.35506  0.97043  0.38260  1.0000
  C   C590      1.0  0.36877  0.96212  0.39845  1.0000
  C   C591      1.0  0.38117  0.95570  0.37205  1.0000
  C   C592      1.0  0.38019  0.95738  0.32926  1.0000
  C   C593      1.0  0.36645  0.96563  0.31341  1.0000
  C   C594      1.0  0.35403  0.97202  0.33979  1.0000
  H   H1009     1.0  0.36989  0.96075  0.43113  1.0000
  H   H1010     1.0  0.39169  0.94947  0.38503  1.0000
  H   H1011     1.0  0.36551  0.96739  0.28079  1.0000
  C   C595      1.0  0.44659  0.94833  0.27165  1.0000
  S   S186      1.0  0.30258  0.98486  0.49245  1.0000
  C   C596      1.0  0.26203  0.91160  0.59537  1.0000
  C   C597      1.0  0.27674  0.92010  0.59244  1.0000
  C   C598      1.0  0.27706  0.93652  0.57841  1.0000
  C   C599      1.0  0.26236  0.94434  0.56752  1.0000
  H   H1012     1.0  0.43409  0.94890  0.28533  1.0000
  C   C600      1.0  0.48228  0.94630  0.17081  1.0000
  H   H1013     1.0  0.28797  0.91386  0.60101  1.0000
  H   H1014     1.0  0.26230  0.95694  0.55684  1.0000
  H   H1015     1.0  0.25647  0.81069  0.88870  1.0000
  H   H1016     1.0  0.40193  0.82333  0.09299  1.0000
  H   H1017     1.0  0.38549  0.88717  0.32390  1.0000
  H   H1018     1.0  0.34348  0.94538  0.26136  1.0000
  C   C601      1.0  0.37372  0.84140  0.11512  1.0000
  C   C602      1.0  0.37726  0.85623  0.09448  1.0000
  C   C603      1.0  0.38259  0.86985  0.11556  1.0000
  C   C604      1.0  0.38437  0.86892  0.15785  1.0000
  C   C605      1.0  0.38099  0.85404  0.17846  1.0000
  C   C606      1.0  0.37575  0.84039  0.15735  1.0000
  H   H1019     1.0  0.37574  0.85723  0.06186  1.0000
  H   H1020     1.0  0.38507  0.88115  0.09912  1.0000
  H   H1021     1.0  0.38231  0.85309  0.21113  1.0000
  H   H1022     1.0  0.37298  0.82920  0.17389  1.0000
  C   C607      1.0  0.38972  0.89717  0.30358  1.0000
  C   C608      1.0  0.31720  0.76217  0.97178  1.0000
  C   C609      1.0  0.30548  0.76974  0.99711  1.0000
  C   C610      1.0  0.28884  0.76867  0.98883  1.0000
  C   C611      1.0  0.28373  0.75989  0.95547  1.0000
  Fe  Fe94      1.0  0.32994  0.98326  0.48134  1.0000
  H   H1023     1.0  0.24503  0.80786  0.47738  1.0000
  H   H1024     1.0  0.30926  0.77649  0.02294  1.0000
  H   H1025     1.0  0.27986  0.77454  0.00867  1.0000
  C   C612      1.0  0.29803  0.74896  0.10794  1.0000
  C   C613      1.0  0.31598  0.75775  0.21162  1.0000
  H   H1026     1.0  0.43644  0.77258  0.10288  1.0000
  C   C614      1.0  0.45199  0.92142  0.30167  1.0000
  S   S187      1.0  0.24263  0.77091  0.74632  1.0000
  H   H1027     1.0  0.44210  0.83986  0.10596  1.0000
  C   C615      1.0  0.30717  0.77234  0.20389  1.0000
  H   H1028     1.0  0.25409  0.82923  0.31367  1.0000
  H   H1029     1.0  0.41475  0.78375  0.05367  1.0000
  H   H1030     1.0  0.24668  0.81621  0.22970  1.0000
  H   H1031     1.0  0.31195  0.78127  0.18230  1.0000
  H   H1032     1.0  0.29067  0.93836  0.66951  1.0000
  H   H1033     1.0  0.37119  0.87595  0.26858  1.0000
  C   C616      1.0  0.40666  0.81383  0.07214  1.0000
  H   H1034     1.0  0.28550  0.78679  0.21844  1.0000
  C   C617      1.0  0.43928  0.77883  0.07335  1.0000
  H   H1035     1.0  0.43556  0.82826  0.15044  1.0000
  H   H1036     1.0  0.46073  0.91271  0.31619  1.0000
  H   H1037     1.0  0.44551  0.94228  0.24186  1.0000
  C   C618      1.0  0.43331  0.83073  0.11759  1.0000
  Fe  Fe95      1.0  0.25114  0.74779  0.89185  1.0000
  H   H1038     1.0  0.32110  0.74776  0.91820  1.0000
  H   H1039     1.0  0.42129  0.83697  0.11426  1.0000
  H   H1040     1.0  0.29919  0.75432  0.07678  1.0000
  C   C619      1.0  0.25010  0.74975  0.52271  1.0000
  H   H1041     1.0  0.25779  0.79212  0.38006  1.0000
  H   H1042     1.0  0.35355  0.89696  0.40098  1.0000
  H   H1043     1.0  0.38105  0.91789  0.26941  1.0000
  H   H1044     1.0  0.37948  0.97843  0.01137  1.0000
  H   H1045     1.0  0.33133  0.93116  0.71084  1.0000
  H   H1046     1.0  0.45575  0.93518  0.40025  1.0000
  H   H1047     1.0  0.34975  0.91699  0.38045  1.0000
  S   S188      1.0  0.40732  0.75235  0.09310  1.0000
  H   H1048     1.0  0.34361  0.97845  0.32686  1.0000
  H   H1049     1.0  0.42969  0.79615  0.02985  1.0000
  H   H1050     1.0  0.40994  0.78503  0.12517  1.0000
  H   H1051     1.0  0.30879  0.75340  0.12385  1.0000
  H   H1052     1.0  0.43283  0.90618  0.32656  1.0000
  H   H1053     1.0  0.44570  0.80789  0.10809  1.0000
  H   H1054     1.0  0.37023  0.90803  0.38003  1.0000
  C   C620      1.0  0.40543  0.80649  0.15911  1.0000
  H   H1055     1.0  0.35935  0.94343  0.70715  1.0000
  H   H1056     1.0  0.30333  0.93044  0.70914  1.0000
  H   H1057     1.0  0.39290  0.80783  0.14741  1.0000
  C   C621      1.0  0.43566  0.81497  0.09303  1.0000
  H   H1058     1.0  0.40442  0.79974  0.18882  1.0000
  N   N45       1.0  0.42111  0.80446  0.08925  1.0000
  H   H1059     1.0  0.28131  0.75443  0.16014  1.0000
  H   H1060     1.0  0.35422  0.93295  0.75378  1.0000
  C   C622      1.0  0.47464  0.93836  0.27785  1.0000
  H   H1061     1.0  0.24857  0.79540  0.85563  1.0000
  H   H1062     1.0  0.34834  0.92835  0.23010  1.0000
  H   H1063     1.0  0.36420  0.93892  0.25508  1.0000
  H   H1064     1.0  0.31057  0.93085  0.65654  1.0000
  H   H1065     1.0  0.39355  0.89219  0.27359  1.0000
  H   H1066     1.0  0.28962  0.74023  0.28112  1.0000
  H   H1067     1.0  0.41942  0.83126  0.03105  1.0000
  H   H1068     1.0  0.24134  0.84131  0.36508  1.0000
  S   S189      1.0  0.24663  0.75527  0.38416  1.0000
  S   S190      1.0  0.26677  0.76842  0.27708  1.0000
  H   H1069     1.0  0.42241  0.97970  0.08263  1.0000
  C   C623      1.0  0.25704  0.80063  0.35326  1.0000
  C   C624      1.0  0.24731  0.91946  0.58479  1.0000
  H   H1070     1.0  0.26208  0.89900  0.60615  1.0000
  H   H1071     1.0  0.48169  0.95557  0.05518  1.0000
  H   H1072     1.0  0.45119  0.78471  0.07462  1.0000
  H   H1073     1.0  0.42532  0.92554  0.30855  1.0000
  C   C625      1.0  0.29544  0.75246  0.92985  1.0000
  H   H1074     1.0  0.30153  0.96003  0.71099  1.0000
  C   C626      1.0  0.35114  0.94388  0.73441  1.0000
  H   H1075     1.0  0.44103  0.81832  0.06260  1.0000
  N   N46       1.0  0.32714  0.95692  0.69439  1.0000
  C   C627      1.0  0.32888  0.97287  0.71585  1.0000
  C   C628      1.0  0.33307  0.94344  0.72307  1.0000
  C   C629      1.0  0.30933  0.95506  0.68567  1.0000
  C   C630      1.0  0.33712  0.95771  0.65532  1.0000
  C   C631      1.0  0.43556  0.91938  0.32467  1.0000
  H   H1076     1.0  0.45072  0.91652  0.27050  1.0000
  S   S191      1.0  0.26294  0.74221  0.83112  1.0000
  C   C632      1.0  0.33889  0.94204  0.63038  1.0000
  H   H1077     1.0  0.44045  0.97239  0.24590  1.0000
  H   H1078     1.0  0.34192  0.97566  0.71933  1.0000
  S   S192      1.0  0.33895  0.97917  0.41425  1.0000
  C   C633      1.0  0.31210  0.75364  0.93796  1.0000
  H   H1079     1.0  0.33991  0.93066  0.64899  1.0000
  H   H1080     1.0  0.26476  0.82479  0.24751  1.0000
  H   H1081     1.0  0.33185  0.96715  0.63412  1.0000
  H   H1082     1.0  0.34954  0.96212  0.66044  1.0000
  H   H1083     1.0  0.27148  0.75404  0.11129  1.0000
  H   H1084     1.0  0.28371  0.77069  0.12394  1.0000
  C   C634      1.0  0.28266  0.75722  0.12707  1.0000
  H   H1085     1.0  0.42760  0.79266  0.14696  1.0000
  H   H1086     1.0  0.44061  0.76907  0.05048  1.0000
  H   H1087     1.0  0.26704  0.79645  0.33231  1.0000
  H   H1088     1.0  0.25040  0.79143  0.90879  1.0000
  H   H1089     1.0  0.46577  0.95797  0.33675  1.0000
  H   H1090     1.0  0.25968  0.81284  0.36418  1.0000
  C   C635      1.0  0.24489  0.82496  0.29272  1.0000
  H   H1091     1.0  0.47539  0.94291  0.38965  1.0000
  H   H1092     1.0  0.35044  0.94238  0.61214  1.0000
  H   H1093     1.0  0.40066  0.90168  0.31832  1.0000
  C   C636      1.0  0.40936  0.82262  0.03056  1.0000
  H   H1094     1.0  0.34968  0.87363  0.27993  1.0000
  H   H1095     1.0  0.39636  0.80551  0.06908  1.0000
  H   H1096     1.0  0.39813  0.82994  0.02328  1.0000
  H   H1097     1.0  0.41130  0.81389  0.00554  1.0000
  C   C637      1.0  0.30344  0.93759  0.67996  1.0000
  H   H1098     1.0  0.32873  0.94124  0.60901  1.0000
  H   H1099     1.0  0.48639  0.91614  0.30601  1.0000
  C   C638      1.0  0.28567  0.76383  0.25214  1.0000
  H   H1100     1.0  0.26224  0.77305  0.51074  1.0000
  H   H1101     1.0  0.35707  0.87529  0.22861  1.0000
  N   N47       1.0  0.28297  0.79512  0.83828  1.0000
  C   C639      1.0  0.29958  0.78675  0.84046  1.0000
  C   C640      1.0  0.27456  0.78858  0.80208  1.0000
  C   C641      1.0  0.27364  0.79021  0.87652  1.0000
  C   C642      1.0  0.28489  0.81341  0.83535  1.0000
  C   C643      1.0  0.31010  0.79128  0.87664  1.0000
  C   C644      1.0  0.28391  0.79006  0.76088  1.0000
  C   C645      1.0  0.25630  0.79751  0.88188  1.0000
  C   C646      1.0  0.27135  0.82365  0.81368  1.0000
  H   H1102     1.0  0.29850  0.77319  0.84154  1.0000
  H   H1103     1.0  0.30707  0.78962  0.81271  1.0000
  H   H1104     1.0  0.26242  0.79454  0.79787  1.0000
  H   H1105     1.0  0.27202  0.77540  0.80707  1.0000
  H   H1106     1.0  0.27280  0.77667  0.87843  1.0000
  H   H1107     1.0  0.27997  0.79368  0.90435  1.0000
  H   H1108     1.0  0.28606  0.81844  0.86632  1.0000
  H   H1109     1.0  0.29641  0.81647  0.81878  1.0000
  H   H1110     1.0  0.31139  0.80465  0.87887  1.0000
  H   H1111     1.0  0.30544  0.78619  0.90608  1.0000
  H   H1112     1.0  0.32253  0.78576  0.87233  1.0000
  H   H1113     1.0  0.28983  0.80195  0.75652  1.0000
  H   H1114     1.0  0.29323  0.78001  0.75795  1.0000
  H   H1115     1.0  0.27530  0.78879  0.73565  1.0000
  H   H1116     1.0  0.25951  0.80474  0.26482  1.0000
  H   H1117     1.0  0.43572  0.92377  0.35624  1.0000
  H   H1118     1.0  0.29398  0.98203  0.33354  1.0000
  H   H1119     1.0  0.27154  0.82171  0.78036  1.0000
  H   H1120     1.0  0.27348  0.83683  0.81769  1.0000
  H   H1121     1.0  0.25899  0.82135  0.82586  1.0000
  N   N48       1.0  0.35957  0.90748  0.29735  1.0000
  C   C647      1.0  0.34972  0.92340  0.29689  1.0000
  C   C648      1.0  0.35414  0.89781  0.33469  1.0000
  C   C649      1.0  0.35593  0.89853  0.25905  1.0000
  C   C650      1.0  0.37729  0.91151  0.29825  1.0000
  C   C651      1.0  0.35169  0.93441  0.25835  1.0000
  C   C652      1.0  0.35719  0.90561  0.37602  1.0000
  C   C653      1.0  0.35874  0.87981  0.25983  1.0000
  H   H1122     1.0  0.33648  0.92108  0.30076  1.0000
  H   H1123     1.0  0.35288  0.93113  0.32278  1.0000
  H   H1124     1.0  0.36001  0.88546  0.33622  1.0000
  H   H1125     1.0  0.34087  0.89555  0.33338  1.0000
  H   H1126     1.0  0.34293  0.90054  0.25088  1.0000
  H   H1127     1.0  0.36314  0.90342  0.23252  1.0000
  H   H1128     1.0  0.37956  0.92058  0.32192  1.0000
  H   H1129     1.0  0.45271  0.97333  0.28958  1.0000
  C   C654      1.0  0.24762  0.93590  0.57095  1.0000
  H   H1130     1.0  0.32568  0.94359  0.75198  1.0000
  H   H1131     1.0  0.41000  0.81868  0.16519  1.0000
  C   C655      1.0  0.41654  0.79649  0.12983  1.0000
  C   C656      1.0  0.45082  0.96627  0.26187  1.0000
  H   H1132     1.0  0.30585  0.96235  0.65786  1.0000
  C   C657      1.0  0.46528  0.93644  0.37591  1.0000
  H   H1133     1.0  0.38307  0.98676  0.67505  1.0000
  H   H1134     1.0  0.25248  0.76523  0.46677  1.0000
  C   C658      1.0  0.29442  0.74920  0.25964  1.0000
  C   C659      1.0  0.41541  0.98398  0.05680  1.0000
  C   C660      1.0  0.25931  0.76184  0.49446  1.0000
  H   H1135     1.0  0.24232  0.78955  0.30978  1.0000
  Fe  Fe96      1.0  0.25022  0.75216  0.31631  1.0000
  H   H1136     1.0  0.44601  0.95113  0.34877  1.0000
  C   C661      1.0  0.45850  0.94674  0.33946  1.0000
  C   C662      1.0  0.48869  0.92921  0.29975  1.0000
  H   H1137     1.0  0.31015  0.98484  0.36730  1.0000
  H   H1138     1.0  0.46147  0.96718  0.24069  1.0000
  H   H1139     1.0  0.29168  0.74565  0.90411  1.0000
  C   C663      1.0  0.30958  0.74628  0.23982  1.0000
  H   H1140     1.0  0.47899  0.95093  0.27224  1.0000
  C   C664      1.0  0.24033  0.79899  0.33327  1.0000
  H   H1141     1.0  0.30778  0.98747  0.69195  1.0000
  H   H1142     1.0  0.28200  0.74275  0.04017  1.0000
  H   H1143     1.0  0.32355  0.74523  0.05318  1.0000
  H   H1144     1.0  0.25677  0.74881  0.55189  1.0000
  C   C665      1.0  0.32112  0.98823  0.69500  1.0000
  Fe  Fe97      1.0  0.24092  0.75505  0.80403  1.0000
  H   H1145     1.0  0.52031  0.11191  0.86433  1.0000
  C   C666      1.0  0.66378  0.99976  0.28508  1.0000
  H   H1146     1.0  0.61188  0.00162  0.97991  1.0000
  H   H1147     1.0  0.56154  0.22633  0.76021  1.0000
  H   H1148     1.0  0.63761  0.99263  0.75805  1.0000
  S   S193      1.0  0.70667  0.21330  0.05505  1.0000
  Fe  Fe98      1.0  0.59386  0.21500  0.87731  1.0000
  S   S194      1.0  0.60466  0.19965  0.92819  1.0000
  S   S195      1.0  0.56734  0.22469  0.88100  1.0000
  Fe  Fe99      1.0  0.62480  0.20976  0.82353  1.0000
  S   S196      1.0  0.63770  0.19404  0.87075  1.0000
  S   S197      1.0  0.63464  0.21912  0.76218  1.0000
  Fe  Fe100     1.0  0.61329  0.18196  0.87969  1.0000
  S   S198      1.0  0.60878  0.15486  0.89504  1.0000
  Fe  Fe101     1.0  0.62793  0.21273  0.91509  1.0000
  S   S199      1.0  0.64080  0.22808  0.96072  1.0000
  S   S200      1.0  0.60113  0.19663  0.82954  1.0000
  S   S201      1.0  0.61645  0.22917  0.86705  1.0000
  Fe  Fe102     1.0  0.68131  0.00836  0.42525  1.0000
  H   H1149     1.0  0.58054  0.20463  0.00423  1.0000
  S   S202      1.0  0.69151  0.03085  0.39093  1.0000
  H   H1150     1.0  0.54413  0.08542  0.76165  1.0000
  H   H1151     1.0  0.73188  0.19181  0.72814  1.0000
  S   S203      1.0  0.65421  0.01027  0.43729  1.0000
  Fe  Fe103     1.0  0.59027  0.03050  0.84938  1.0000
  S   S204      1.0  0.57242  0.01997  0.80761  1.0000
  S   S205      1.0  0.60134  0.01683  0.90457  1.0000
  Fe  Fe104     1.0  0.58913  0.06429  0.80397  1.0000
  S   S206      1.0  0.57089  0.05551  0.75961  1.0000
  S   S207      1.0  0.59706  0.09079  0.79168  1.0000
  Fe  Fe105     1.0  0.55814  0.04384  0.81410  1.0000
  S   S208      1.0  0.53231  0.04698  0.84186  1.0000
  Fe  Fe106     1.0  0.58685  0.03245  0.75625  1.0000
  S   S209      1.0  0.59274  0.01833  0.69691  1.0000
  S   S210      1.0  0.57565  0.05380  0.85832  1.0000
  S   S211      1.0  0.60558  0.04171  0.79807  1.0000
  C   C667      1.0  0.51159  0.04661  0.82712  1.0000
  H   H1152     1.0  0.70748  0.18842  0.70416  1.0000
  C   C668      1.0  0.50703  0.04635  0.78636  1.0000
  H   H1153     1.0  0.73146  0.16215  0.60667  1.0000
  H   H1154     1.0  0.51630  0.04597  0.76246  1.0000
  C   C669      1.0  0.63396  0.01281  0.59745  1.0000
  C   C670      1.0  0.61927  0.00476  0.59477  1.0000
  C   C671      1.0  0.60685  0.00679  0.62509  1.0000
  C   C672      1.0  0.60877  0.01690  0.65869  1.0000
  C   C673      1.0  0.62346  0.02495  0.66140  1.0000
  C   C674      1.0  0.63590  0.02291  0.63110  1.0000
  H   H1155     1.0  0.63237  0.00502  0.86538  1.0000
  H   H1156     1.0  0.70710  0.22255  0.92908  1.0000
  H   H1157     1.0  0.62527  0.03273  0.68692  1.0000
  C   C675      1.0  0.59360  0.00011  0.93435  1.0000
  H   H1158     1.0  0.72554  0.18599  0.28071  1.0000
  N   N49       1.0  0.73634  0.19930  0.32881  1.0000
  H   H1159     1.0  0.56358  0.20914  0.97295  1.0000
  C   C676      1.0  0.72950  0.16861  0.32925  1.0000
  C   C677      1.0  0.60502  0.13734  0.86555  1.0000
  C   C678      1.0  0.60199  0.12231  0.88584  1.0000
  C   C679      1.0  0.59937  0.10800  0.86398  1.0000
  C   C680      1.0  0.59976  0.10849  0.82132  1.0000
  C   C681      1.0  0.60257  0.12356  0.80104  1.0000
  C   C682      1.0  0.60513  0.13787  0.82289  1.0000
  H   H1160     1.0  0.60195  0.12167  0.91880  1.0000
  H   H1161     1.0  0.59742  0.09654  0.88015  1.0000
  H   H1162     1.0  0.60294  0.12412  0.76808  1.0000
  H   H1163     1.0  0.60744  0.14926  0.80671  1.0000
  C   C683      1.0  0.70854  0.04354  0.39759  1.0000
  C   C684      1.0  0.72019  0.04018  0.42729  1.0000
  C   C685      1.0  0.72310  0.06840  0.37744  1.0000
  C   C686      1.0  0.71016  0.05769  0.37263  1.0000
  H   H1164     1.0  0.51315  0.08278  0.86101  1.0000
  H   H1165     1.0  0.72410  0.07922  0.35803  1.0000
  H   H1166     1.0  0.70131  0.06046  0.34941  1.0000
  C   C687      1.0  0.68772  0.21740  0.03165  1.0000
  C   C688      1.0  0.68081  0.20499  0.00955  1.0000
  C   C689      1.0  0.66623  0.20788  0.98850  1.0000
  C   C690      1.0  0.65844  0.22330  0.98921  1.0000
  H   H1167     1.0  0.61983  0.00434  0.74531  1.0000
  H   H1168     1.0  0.68342  0.00736  0.32500  1.0000
  H   H1169     1.0  0.68685  0.19306  0.00853  1.0000
  H   H1170     1.0  0.66113  0.19823  0.97146  1.0000
  H   H1171     1.0  0.52183  0.08140  0.81009  1.0000
  H   H1172     1.0  0.72913  0.20870  0.24420  1.0000
  H   H1173     1.0  0.60878  0.22603  0.99693  1.0000
  C   C691      1.0  0.66671  0.20884  0.77142  1.0000
  C   C692      1.0  0.65575  0.21920  0.75058  1.0000
  C   C693      1.0  0.60151  0.99504  0.97034  1.0000
  C   C694      1.0  0.73100  0.21847  0.26622  1.0000
  H   H1174     1.0  0.56642  0.08980  0.82908  1.0000
  H   H1175     1.0  0.66224  0.20032  0.79445  1.0000
  C   C695      1.0  0.67850  0.23057  0.71093  1.0000
  H   H1176     1.0  0.71601  0.19416  0.36955  1.0000
  H   H1177     1.0  0.68208  0.19228  0.65718  1.0000
  N   N50       1.0  0.65270  0.01479  0.28611  1.0000
  H   H1178     1.0  0.53363  0.09621  0.91445  1.0000
  C   C696      1.0  0.65133  0.02061  0.32931  1.0000
  H   H1179     1.0  0.66620  0.05134  0.27842  1.0000
  C   C697      1.0  0.65843  0.02776  0.25604  1.0000
  H   H1180     1.0  0.67645  0.21204  0.85341  1.0000
  C   C698      1.0  0.63941  0.03523  0.33652  1.0000
  H   H1181     1.0  0.55699  0.07724  0.93902  1.0000
  C   C699      1.0  0.71886  0.22010  0.36984  1.0000
  H   H1182     1.0  0.73498  0.15759  0.31452  1.0000
  H   H1183     1.0  0.66410  0.99427  0.25448  1.0000
  H   H1184     1.0  0.66318  0.02394  0.34127  1.0000
  H   H1185     1.0  0.60544  0.23969  0.73138  1.0000
  H   H1186     1.0  0.62149  0.00068  0.22587  1.0000
  H   H1187     1.0  0.50263  0.04745  0.88932  1.0000
  H   H1188     1.0  0.60934  0.00678  0.81462  1.0000
  H   H1189     1.0  0.64797  0.03594  0.24691  1.0000
  C   C700      1.0  0.67167  0.03923  0.27037  1.0000
  H   H1190     1.0  0.59296  0.99458  0.76377  1.0000
  C   C701      1.0  0.69752  0.23224  0.92402  1.0000
  H   H1191     1.0  0.64109  0.04530  0.31380  1.0000
  H   H1192     1.0  0.62661  0.03136  0.33665  1.0000
  H   H1193     1.0  0.64150  0.04014  0.36712  1.0000
  C   C702      1.0  0.51610  0.08979  0.83256  1.0000
  C   C703      1.0  0.73672  0.18092  0.66784  1.0000
  C   C704      1.0  0.66168  0.22984  0.71977  1.0000
  H   H1194     1.0  0.67915  0.03451  0.29581  1.0000
  H   H1195     1.0  0.61090  0.23217  0.08721  1.0000
  H   H1196     1.0  0.64732  0.01047  0.35010  1.0000
  N   N51       1.0  0.72055  0.17358  0.66006  1.0000
  C   C705      1.0  0.73125  0.14464  0.68034  1.0000
  S   S212      1.0  0.68606  0.99830  0.48842  1.0000
  C   C706      1.0  0.58250  0.21334  0.73659  1.0000
  C   C707      1.0  0.70729  0.18591  0.67108  1.0000
  C   C708      1.0  0.67974  0.23273  0.03309  1.0000
  C   C709      1.0  0.49929  0.04721  0.85769  1.0000
  H   H1197     1.0  0.68027  0.04172  0.24451  1.0000
  C   C710      1.0  0.68968  0.18104  0.66329  1.0000
  H   H1198     1.0  0.54576  0.10691  0.77030  1.0000
  H   H1199     1.0  0.52642  0.11242  0.81286  1.0000
  H   H1200     1.0  0.72933  0.19192  0.58762  1.0000
  H   H1201     1.0  0.56902  0.08431  0.89645  1.0000
  H   H1202     1.0  0.73744  0.19315  0.65255  1.0000
  C   C711      1.0  0.63592  0.00980  0.27456  1.0000
  C   C712      1.0  0.62453  0.99157  0.75112  1.0000
  H   H1203     1.0  0.63857  0.00860  0.81370  1.0000
  H   H1204     1.0  0.71953  0.17910  0.55360  1.0000
  H   H1205     1.0  0.69571  0.19832  0.92603  1.0000
  H   H1206     1.0  0.71379  0.22438  0.85856  1.0000
  H   H1207     1.0  0.60965  0.99027  0.84945  1.0000
  C   C713      1.0  0.68948  0.22053  0.73269  1.0000
  H   H1208     1.0  0.61746  0.99695  0.56932  1.0000
  C   C714      1.0  0.72020  0.16924  0.61568  1.0000
  H   H1209     1.0  0.71014  0.16096  0.60968  1.0000
  H   H1210     1.0  0.68796  0.00941  0.27062  1.0000
  H   H1211     1.0  0.68445  0.17446  0.69032  1.0000
  H   H1212     1.0  0.68856  0.17344  0.63625  1.0000
  H   H1213     1.0  0.56219  0.21449  0.02520  1.0000
  C   C715      1.0  0.70242  0.23104  0.84913  1.0000
  C   C716      1.0  0.57061  0.21381  0.99843  1.0000
  H   H1214     1.0  0.54973  0.07700  0.82569  1.0000
  H   H1215     1.0  0.67121  0.21413  0.90559  1.0000
  H   H1216     1.0  0.71936  0.02926  0.44638  1.0000
  H   H1217     1.0  0.62731  0.02057  0.27360  1.0000
  H   H1218     1.0  0.56339  0.09441  0.76140  1.0000
  H   H1219     1.0  0.58464  0.22866  0.95717  1.0000
  H   H1220     1.0  0.59563  0.00043  0.62246  1.0000
  S   S213      1.0  0.72702  0.22594  0.60899  1.0000
  Fe  Fe107     1.0  0.72575  0.23362  0.67441  1.0000
  H   H1221     1.0  0.56130  0.13859  0.83707  1.0000
  C   C717      1.0  0.71992  0.20381  0.34720  1.0000
  H   H1222     1.0  0.70629  0.22199  0.38236  1.0000
  H   H1223     1.0  0.70628  0.15288  0.67890  1.0000
  Fe  Fe108     1.0  0.65875  0.99882  0.49938  1.0000
  H   H1224     1.0  0.57895  0.21526  0.70443  1.0000
  H   H1225     1.0  0.50433  0.09428  0.81991  1.0000
  C   C718      1.0  0.71810  0.15833  0.68577  1.0000
  H   H1226     1.0  0.68831  0.23050  0.94883  1.0000
  H   H1227     1.0  0.56133  0.09845  0.93404  1.0000
  H   H1228     1.0  0.70396  0.19877  0.87410  1.0000
  Fe  Fe109     1.0  0.72158  0.22979  0.09384  1.0000
  C   C719      1.0  0.55124  0.09471  0.77690  1.0000
  C   C720      1.0  0.68171  0.21429  0.88351  1.0000
  H   H1229     1.0  0.71607  0.16772  0.33006  1.0000
  H   H1230     1.0  0.56505  0.11274  0.87319  1.0000
  H   H1231     1.0  0.71040  0.20425  0.32364  1.0000
  H   H1232     1.0  0.54609  0.12251  0.88640  1.0000
  H   H1233     1.0  0.57785  0.20129  0.74684  1.0000
  H   H1234     1.0  0.72712  0.21999  0.39603  1.0000
  H   H1235     1.0  0.53792  0.07799  0.88764  1.0000
  C   C721      1.0  0.73307  0.05092  0.43224  1.0000
  N   N52       1.0  0.67848  0.05639  0.50985  1.0000
  C   C722      1.0  0.69330  0.04500  0.51073  1.0000
  C   C723      1.0  0.67858  0.06512  0.46878  1.0000
  C   C724      1.0  0.66366  0.04602  0.51518  1.0000
  C   C725      1.0  0.67951  0.06798  0.54448  1.0000
  C   C726      1.0  0.69503  0.03382  0.54916  1.0000
  C   C727      1.0  0.69249  0.07707  0.46062  1.0000
  C   C728      1.0  0.64752  0.05279  0.49759  1.0000
  C   C729      1.0  0.66620  0.08162  0.54725  1.0000
  H   H1236     1.0  0.69344  0.03682  0.48408  1.0000
  H   H1237     1.0  0.70472  0.05184  0.50811  1.0000
  H   H1238     1.0  0.66722  0.07242  0.46360  1.0000
  H   H1239     1.0  0.67904  0.05608  0.44399  1.0000
  H   H1240     1.0  0.66579  0.03396  0.50065  1.0000
  H   H1241     1.0  0.66121  0.04316  0.54808  1.0000
  H   H1242     1.0  0.67876  0.06120  0.57425  1.0000
  H   H1243     1.0  0.69163  0.07364  0.54502  1.0000
  H   H1244     1.0  0.69744  0.04088  0.57661  1.0000
  H   H1245     1.0  0.68434  0.02613  0.55499  1.0000
  H   H1246     1.0  0.70567  0.02531  0.54455  1.0000
  H   H1247     1.0  0.69193  0.08730  0.48209  1.0000
  H   H1248     1.0  0.70467  0.07096  0.46126  1.0000
  H   H1249     1.0  0.69127  0.08252  0.42945  1.0000
  H   H1250     1.0  0.64790  0.05263  0.46377  1.0000
  H   H1251     1.0  0.64413  0.06517  0.50804  1.0000
  H   H1252     1.0  0.63762  0.04461  0.50792  1.0000
  H   H1253     1.0  0.65533  0.07722  0.56449  1.0000
  H   H1254     1.0  0.66249  0.08672  0.51730  1.0000
  H   H1255     1.0  0.67104  0.09212  0.56332  1.0000
  N   N53       1.0  0.68976  0.23063  0.88323  1.0000
  H   H1256     1.0  0.59595  0.21233  0.73829  1.0000
  C   C730      1.0  0.68347  0.20944  0.76230  1.0000
  S   S214      1.0  0.65028  0.01076  0.56015  1.0000
  C   C731      1.0  0.73466  0.06513  0.40743  1.0000
  H   H1257     1.0  0.69185  0.20141  0.77877  1.0000
  N   N54       1.0  0.58666  0.23927  0.01640  1.0000
  H   H1258     1.0  0.69813  0.22438  0.82262  1.0000
  H   H1259     1.0  0.66304  0.02204  0.22739  1.0000
  C   C732      1.0  0.60188  0.22923  0.02536  1.0000
  H   H1260     1.0  0.70935  0.19811  0.65643  1.0000
  H   H1261     1.0  0.68593  0.18796  0.88701  1.0000
  S   S215      1.0  0.72199  0.22790  0.16252  1.0000
  C   C733      1.0  0.61601  0.99507  0.82185  1.0000
  H   H1262     1.0  0.63073  0.00128  0.29803  1.0000
  C   C734      1.0  0.71897  0.18378  0.58509  1.0000
  H   H1263     1.0  0.70734  0.19088  0.58857  1.0000
  C   C735      1.0  0.73472  0.18405  0.30483  1.0000
  C   C736      1.0  0.69269  0.19913  0.89325  1.0000
  H   H1264     1.0  0.72855  0.13438  0.70199  1.0000
  H   H1265     1.0  0.64714  0.02921  0.63384  1.0000
  H   H1266     1.0  0.65325  0.23777  0.70318  1.0000
  H   H1267     1.0  0.53385  0.23459  0.89373  1.0000
  H   H1268     1.0  0.57522  0.22919  0.07132  1.0000
  C   C737      1.0  0.57713  0.23064  0.98528  1.0000
  H   H1269     1.0  0.54410  0.13188  0.81103  1.0000
  H   H1270     1.0  0.56426  0.12230  0.80300  1.0000
  H   H1271     1.0  0.68296  0.23912  0.68796  1.0000
  H   H1272     1.0  0.73127  0.13966  0.64924  1.0000
  H   H1273     1.0  0.71709  0.16120  0.71872  1.0000
  N   N55       1.0  0.54390  0.10018  0.85337  1.0000
  C   C738      1.0  0.54260  0.09035  0.89294  1.0000
  C   C739      1.0  0.52676  0.10448  0.84060  1.0000
  C   C740      1.0  0.55264  0.11562  0.86182  1.0000
  C   C741      1.0  0.55324  0.08998  0.82259  1.0000
  C   C742      1.0  0.55849  0.08751  0.91659  1.0000
  C   C743      1.0  0.68176  0.00205  0.29480  1.0000
  C   C744      1.0  0.55549  0.12759  0.82565  1.0000
  C   C745      1.0  0.66515  0.23563  0.01201  1.0000
  C   C746      1.0  0.58021  0.99143  0.92245  1.0000
  C   C747      1.0  0.63456  0.00167  0.23291  1.0000
  C   C748      1.0  0.63321  0.99938  0.83494  1.0000
  S   S216      1.0  0.71080  0.22199  0.72631  1.0000
  H   H1274     1.0  0.72133  0.23073  0.34928  1.0000
  H   H1275     1.0  0.59882  0.21710  0.03890  1.0000
  H   H1276     1.0  0.64029  0.00883  0.20767  1.0000
  H   H1277     1.0  0.57386  0.99524  0.89520  1.0000
  H   H1278     1.0  0.73383  0.16798  0.36088  1.0000
  H   H1279     1.0  0.57694  0.22248  0.79648  1.0000
  C   C749      1.0  0.57490  0.22665  0.76439  1.0000
  C   C750      1.0  0.61359  0.23660  0.05556  1.0000
  H   H1280     1.0  0.62632  0.23289  0.04712  1.0000
  H   H1281     1.0  0.60309  0.23280  0.78265  1.0000
  H   H1282     1.0  0.71913  0.22340  0.27786  1.0000
  H   H1283     1.0  0.65746  0.23234  0.84315  1.0000
  H   H1284     1.0  0.73679  0.22860  0.24866  1.0000
  H   H1285     1.0  0.56652  0.23832  0.97517  1.0000
  C   C751      1.0  0.49039  0.04671  0.77649  1.0000
  H   H1286     1.0  0.65912  0.99024  0.30678  1.0000
  H   H1287     1.0  0.68814  0.98988  0.29558  1.0000
  H   H1288     1.0  0.54687  0.98987  0.05854  1.0000
  H   H1289     1.0  0.51165  0.45067  0.23565  1.0000
  S   S217      1.0  0.72739  0.26407  0.53292  1.0000
  S   S218      1.0  0.73063  0.26002  0.65870  1.0000
  Fe  Fe110     1.0  0.72475  0.25529  0.16033  1.0000
  S   S219      1.0  0.71088  0.26990  0.20930  1.0000
  S   S220      1.0  0.72214  0.25725  0.09197  1.0000
  Fe  Fe111     1.0  0.70302  0.34972  0.42476  1.0000
  S   S221      1.0  0.72684  0.35692  0.39537  1.0000
  S   S222      1.0  0.70207  0.33670  0.48724  1.0000
  Fe  Fe112     1.0  0.68214  0.36676  0.35805  1.0000
  S   S223      1.0  0.70489  0.37495  0.32489  1.0000
  S   S224      1.0  0.65926  0.37331  0.32051  1.0000
  Fe  Fe113     1.0  0.71521  0.34964  0.33720  1.0000
  H   H1290     1.0  0.49274  0.44261  0.25093  1.0000
  Fe  Fe114     1.0  0.71481  0.38178  0.38533  1.0000
  S   S225      1.0  0.72515  0.40752  0.39244  1.0000
  S   S226      1.0  0.69214  0.34087  0.36711  1.0000
  S   S227      1.0  0.69136  0.37512  0.41807  1.0000
  S   S228      1.0  0.50123  0.32972  0.93060  1.0000
  H   H1291     1.0  0.62189  0.43591  0.28416  1.0000
  Fe  Fe115     1.0  0.50633  0.30236  0.93753  1.0000
  S   S229      1.0  0.53281  0.29345  0.92560  1.0000
  Fe  Fe116     1.0  0.55983  0.39437  0.31128  1.0000
  S   S230      1.0  0.55864  0.40215  0.24514  1.0000
  S   S231      1.0  0.58226  0.38621  0.34857  1.0000
  Fe  Fe117     1.0  0.52328  0.40440  0.32733  1.0000
  S   S232      1.0  0.52013  0.41238  0.26137  1.0000
  H   H1292     1.0  0.73424  0.29461  0.18300  1.0000
  Fe  Fe118     1.0  0.53451  0.38938  0.24443  1.0000
  S   S233      1.0  0.53059  0.37096  0.19253  1.0000
  Fe  Fe119     1.0  0.54423  0.42433  0.26727  1.0000
  S   S234      1.0  0.54826  0.45069  0.24493  1.0000
  S   S235      1.0  0.53637  0.38062  0.31071  1.0000
  S   S236      1.0  0.54680  0.41728  0.33281  1.0000
  C   C752      1.0  0.54971  0.46826  0.27545  1.0000
  C   C753      1.0  0.49119  0.38253  0.95148  1.0000
  H   H1293     1.0  0.50214  0.35127  0.69519  1.0000
  H   H1294     1.0  0.55219  0.45508  0.33253  1.0000
  H   H1295     1.0  0.67373  0.24080  0.81197  1.0000
  C   C754      1.0  0.51520  0.34611  0.09347  1.0000
  C   C755      1.0  0.52411  0.35143  0.12691  1.0000
  C   C756      1.0  0.51863  0.36483  0.15041  1.0000
  C   C757      1.0  0.50391  0.37274  0.13976  1.0000
  C   C758      1.0  0.49494  0.36737  0.10651  1.0000
  H   H1296     1.0  0.51977  0.33589  0.07593  1.0000
  H   H1297     1.0  0.53544  0.34515  0.13454  1.0000
  H   H1298     1.0  0.54941  0.25969  0.76251  1.0000
  C   C759      1.0  0.73228  0.31339  0.22838  1.0000
  H   H1299     1.0  0.50598  0.39110  0.58563  1.0000
  H   H1300     1.0  0.57346  0.27605  0.72353  1.0000
  H   H1301     1.0  0.62106  0.25613  0.77348  1.0000
  C   C760      1.0  0.53305  0.26019  0.90818  1.0000
  C   C761      1.0  0.54208  0.27409  0.91396  1.0000
  C   C762      1.0  0.55916  0.27272  0.90999  1.0000
  C   C763      1.0  0.56711  0.25773  0.90029  1.0000
  H   H1302     1.0  0.73563  0.33431  0.58575  1.0000
  H   H1303     1.0  0.51992  0.26102  0.91103  1.0000
  H   H1304     1.0  0.56627  0.28340  0.91422  1.0000
  H   H1305     1.0  0.58020  0.25699  0.89687  1.0000
  H   H1306     1.0  0.61437  0.45672  0.38212  1.0000
  H   H1307     1.0  0.73260  0.44148  0.39730  1.0000
  H   H1308     1.0  0.72603  0.29752  0.65279  1.0000
  C   C764      1.0  0.63790  0.37699  0.32938  1.0000
  C   C765      1.0  0.62798  0.38105  0.29593  1.0000
  C   C766      1.0  0.61098  0.38370  0.30097  1.0000
  C   C767      1.0  0.60362  0.38260  0.33980  1.0000
  C   C768      1.0  0.61356  0.37870  0.37328  1.0000
  C   C769      1.0  0.63054  0.37588  0.36819  1.0000
  H   H1309     1.0  0.63348  0.38213  0.26579  1.0000
  H   H1310     1.0  0.60357  0.38665  0.27485  1.0000
  H   H1311     1.0  0.60807  0.37777  0.40349  1.0000
  H   H1312     1.0  0.63790  0.37278  0.39430  1.0000
  C   C770      1.0  0.72474  0.31856  0.26496  1.0000
  C   C771      1.0  0.55252  0.48117  0.34084  1.0000
  C   C772      1.0  0.72852  0.29833  0.21144  1.0000
  C   C773      1.0  0.71710  0.28831  0.23089  1.0000
  C   C774      1.0  0.70975  0.29340  0.26778  1.0000
  C   C775      1.0  0.71358  0.30839  0.28482  1.0000
  C   C776      1.0  0.49196  0.40681  0.41558  1.0000
  H   H1313     1.0  0.70106  0.28566  0.28335  1.0000
  H   H1314     1.0  0.70798  0.31200  0.31346  1.0000
  H   H1315     1.0  0.55082  0.26474  0.81478  1.0000
  C   C777      1.0  0.72018  0.28428  0.52101  1.0000
  C   C778      1.0  0.72240  0.29055  0.48102  1.0000
  C   C779      1.0  0.71692  0.30654  0.47011  1.0000
  C   C780      1.0  0.70900  0.31640  0.49908  1.0000
  C   C781      1.0  0.70669  0.31009  0.53901  1.0000
  C   C782      1.0  0.71219  0.29411  0.54993  1.0000
  H   H1316     1.0  0.49680  0.30359  0.14176  1.0000
  C   C783      1.0  0.49057  0.35795  0.70254  1.0000
  H   H1317     1.0  0.70046  0.31758  0.56152  1.0000
  H   H1318     1.0  0.71005  0.28932  0.58052  1.0000
  N   N56       1.0  0.66708  0.33050  0.23968  1.0000
  C   C784      1.0  0.67353  0.34714  0.22846  1.0000
  C   C785      1.0  0.64962  0.33055  0.22667  1.0000
  C   C786      1.0  0.67699  0.31810  0.21556  1.0000
  C   C787      1.0  0.66890  0.32747  0.28493  1.0000
  C   C788      1.0  0.69166  0.34956  0.23681  1.0000
  C   C789      1.0  0.63823  0.34370  0.24611  1.0000
  C   C790      1.0  0.67209  0.30017  0.22023  1.0000
  C   C791      1.0  0.65760  0.31494  0.30612  1.0000
  H   H1319     1.0  0.67162  0.35019  0.19560  1.0000
  H   H1320     1.0  0.66682  0.35687  0.24561  1.0000
  H   H1321     1.0  0.64395  0.31867  0.23300  1.0000
  H   H1322     1.0  0.64896  0.33234  0.19296  1.0000
  H   H1323     1.0  0.67679  0.32139  0.18240  1.0000
  H   H1324     1.0  0.68998  0.31803  0.22403  1.0000
  H   H1325     1.0  0.68164  0.32355  0.29169  1.0000
  H   H1326     1.0  0.66661  0.33909  0.30135  1.0000
  H   H1327     1.0  0.69983  0.34269  0.21553  1.0000
  H   H1328     1.0  0.69435  0.36269  0.23211  1.0000
  H   H1329     1.0  0.69472  0.34628  0.26870  1.0000
  H   H1330     1.0  0.64015  0.35589  0.23162  1.0000
  H   H1331     1.0  0.62537  0.34075  0.24102  1.0000
  H   H1332     1.0  0.63975  0.34448  0.27944  1.0000
  H   H1333     1.0  0.68001  0.29268  0.19951  1.0000
  H   H1334     1.0  0.65942  0.29825  0.21142  1.0000
  H   H1335     1.0  0.67435  0.29523  0.25138  1.0000
  H   H1336     1.0  0.66451  0.30813  0.33016  1.0000
  H   H1337     1.0  0.65277  0.30568  0.28626  1.0000
  H   H1338     1.0  0.64739  0.32133  0.32256  1.0000
  N   N57       1.0  0.58104  0.24370  0.75728  1.0000
  C   C792      1.0  0.67641  0.24358  0.87847  1.0000
  H   H1339     1.0  0.68491  0.24237  0.05002  1.0000
  H   H1340     1.0  0.54742  0.48510  0.22420  1.0000
  C   C793      1.0  0.50638  0.48160  0.32403  1.0000
  H   H1341     1.0  0.54939  0.24388  0.80255  1.0000
  H   H1342     1.0  0.70540  0.25824  0.85287  1.0000
  S   S237      1.0  0.50458  0.41427  0.37468  1.0000
  H   H1343     1.0  0.50661  0.38536  0.89607  1.0000
  C   C794      1.0  0.66613  0.24243  0.83998  1.0000
  H   H1344     1.0  0.55392  0.48002  0.37347  1.0000
  H   H1345     1.0  0.49389  0.33322  0.62861  1.0000
  C   C795      1.0  0.50628  0.45291  0.30061  1.0000
  C   C796      1.0  0.54100  0.24521  0.89834  1.0000
  H   H1346     1.0  0.70065  0.25094  0.80302  1.0000
  H   H1347     1.0  0.51538  0.37277  0.93545  1.0000
  H   H1348     1.0  0.68109  0.25608  0.87835  1.0000
  C   C797      1.0  0.57697  0.24123  0.05556  1.0000
  C   C798      1.0  0.57979  0.26722  0.70311  1.0000
  H   H1349     1.0  0.49987  0.36473  0.90533  1.0000
  N   N58       1.0  0.49824  0.46539  0.32824  1.0000
  H   H1350     1.0  0.69741  0.25918  0.92911  1.0000
  H   H1351     1.0  0.56101  0.26235  0.03762  1.0000
  H   H1352     1.0  0.64100  0.42028  0.32393  1.0000
  H   H1353     1.0  0.51969  0.45410  0.30017  1.0000
  H   H1354     1.0  0.65919  0.24759  0.01287  1.0000
  C   C799      1.0  0.62986  0.42476  0.34055  1.0000
  H   H1355     1.0  0.60264  0.24755  0.94198  1.0000
  H   H1356     1.0  0.49940  0.38301  0.15729  1.0000
  H   H1357     1.0  0.57959  0.26194  0.98492  1.0000
  H   H1358     1.0  0.72437  0.40344  0.30787  1.0000
  H   H1359     1.0  0.63315  0.43555  0.35769  1.0000
  H   H1360     1.0  0.62637  0.46278  0.33769  1.0000
  C   C800      1.0  0.70713  0.24803  0.83176  1.0000
  H   H1361     1.0  0.51165  0.36109  0.63354  1.0000
  H   H1362     1.0  0.61635  0.25417  0.97987  1.0000
  H   H1363     1.0  0.55173  0.24273  0.03353  1.0000
  H   H1364     1.0  0.52374  0.46833  0.39072  1.0000
  H   H1365     1.0  0.58511  0.41879  0.30088  1.0000
  C   C801      1.0  0.60426  0.25645  0.96623  1.0000
  H   H1366     1.0  0.58950  0.44954  0.24543  1.0000
  H   H1367     1.0  0.71002  0.24802  0.96382  1.0000
  C   C802      1.0  0.58138  0.43876  0.38837  1.0000
  H   H1368     1.0  0.73737  0.33721  0.53197  1.0000
  H   H1369     1.0  0.58263  0.24181  0.69160  1.0000
  H   H1370     1.0  0.57758  0.26710  0.78689  1.0000
  H   H1371     1.0  0.59301  0.26929  0.70164  1.0000
  H   H1372     1.0  0.61322  0.25010  0.05509  1.0000
  H   H1373     1.0  0.58975  0.46139  0.32714  1.0000
  H   H1374     1.0  0.57756  0.24989  0.82031  1.0000
  C   C803      1.0  0.61394  0.46274  0.35165  1.0000
  C   C804      1.0  0.55160  0.46698  0.31766  1.0000
  H   H1375     1.0  0.71875  0.31120  0.43926  1.0000
  H   H1376     1.0  0.50418  0.44036  0.31304  1.0000
  H   H1377     1.0  0.72842  0.28300  0.45829  1.0000
  H   H1378     1.0  0.65867  0.25387  0.83586  1.0000
  C   C805      1.0  0.55806  0.24386  0.89431  1.0000
  H   H1379     1.0  0.57556  0.43839  0.30654  1.0000
  H   H1380     1.0  0.61385  0.41658  0.29636  1.0000
  H   H1381     1.0  0.55445  0.25125  0.08222  1.0000
  H   H1382     1.0  0.49411  0.44757  0.37706  1.0000
  C   C806      1.0  0.50148  0.35857  0.61309  1.0000
  H   H1383     1.0  0.49884  0.38508  0.65874  1.0000
  H   H1384     1.0  0.56305  0.24769  0.71072  1.0000
  H   H1385     1.0  0.60439  0.26881  0.95149  1.0000
  H   H1386     1.0  0.60118  0.43047  0.23903  1.0000
  H   H1387     1.0  0.58273  0.45208  0.39177  1.0000
  H   H1388     1.0  0.57968  0.43124  0.23493  1.0000
  C   C807      1.0  0.50381  0.37593  0.91989  1.0000
  C   C808      1.0  0.60766  0.25799  0.77698  1.0000
  H   H1389     1.0  0.49559  0.40780  0.60973  1.0000
  C   C809      1.0  0.49413  0.39515  0.59928  1.0000
  H   H1390     1.0  0.59375  0.26446  0.02331  1.0000
  H   H1391     1.0  0.62639  0.41469  0.36206  1.0000
  C   C810      1.0  0.49999  0.45947  0.37196  1.0000
  C   C811      1.0  0.51752  0.45668  0.38699  1.0000
  H   H1392     1.0  0.51395  0.33481  0.61006  1.0000
  C   C812      1.0  0.59936  0.24284  0.76098  1.0000
  H   H1393     1.0  0.57522  0.26988  0.67198  1.0000
  H   H1394     1.0  0.51703  0.45051  0.41753  1.0000
  S   S238      1.0  0.72945  0.33785  0.28449  1.0000
  H   H1395     1.0  0.49518  0.39482  0.96016  1.0000
  C   C813      1.0  0.55470  0.25555  0.79186  1.0000
  H   H1396     1.0  0.59456  0.41718  0.36758  1.0000
  H   H1397     1.0  0.60500  0.25944  0.81004  1.0000
  H   H1398     1.0  0.60648  0.43190  0.38913  1.0000
  C   C814      1.0  0.57625  0.24939  0.71508  1.0000
  N   N59       1.0  0.60075  0.43680  0.32523  1.0000
  H   H1399     1.0  0.73393  0.42043  0.28221  1.0000
  H   H1400     1.0  0.57009  0.43652  0.37224  1.0000
  C   C815      1.0  0.60190  0.45513  0.32296  1.0000
  C   C816      1.0  0.56013  0.24989  0.05139  1.0000
  C   C817      1.0  0.61635  0.42858  0.30962  1.0000
  C   C818      1.0  0.58986  0.43617  0.25189  1.0000
  H   H1401     1.0  0.60426  0.26948  0.76056  1.0000
  H   H1402     1.0  0.58380  0.24839  0.07747  1.0000
  C   C819      1.0  0.59646  0.43057  0.36770  1.0000
  H   H1403     1.0  0.57978  0.43333  0.41951  1.0000
  H   H1404     1.0  0.60575  0.45925  0.29175  1.0000
  C   C820      1.0  0.50080  0.45296  0.25579  1.0000
  H   H1405     1.0  0.49537  0.38127  0.40304  1.0000
  C   C821      1.0  0.58726  0.43215  0.29781  1.0000
  H   H1406     1.0  0.52489  0.44847  0.36698  1.0000
  Fe  Fe120     1.0  0.73416  0.25189  0.59385  1.0000
  C   C822      1.0  0.59053  0.25599  0.99903  1.0000
  H   H1407     1.0  0.60985  0.47555  0.35755  1.0000
  C   C823      1.0  0.50048  0.35404  0.08290  1.0000
  H   H1408     1.0  0.72024  0.24754  0.82271  1.0000
  H   H1409     1.0  0.71767  0.41046  0.25924  1.0000
  H   H1410     1.0  0.49268  0.37456  0.97924  1.0000
  H   H1411     1.0  0.50551  0.36407  0.58334  1.0000
  H   H1412     1.0  0.51324  0.48342  0.25896  1.0000
  H   H1413     1.0  0.49663  0.32515  0.14625  1.0000
  C   C824      1.0  0.57345  0.25436  0.78985  1.0000
  C   C825      1.0  0.50143  0.34003  0.60618  1.0000
  H   H1414     1.0  0.71682  0.24982  0.91215  1.0000
  H   H1415     1.0  0.72539  0.31330  0.61490  1.0000
  C   C826      1.0  0.73359  0.30659  0.63608  1.0000
  H   H1416     1.0  0.49361  0.46808  0.39322  1.0000
  S   S239      1.0  0.49484  0.30084  0.00063  1.0000
  C   C827      1.0  0.54882  0.48393  0.25683  1.0000
  H   H1417     1.0  0.66782  0.24313  0.90530  1.0000
  C   C828      1.0  0.70580  0.24838  0.93185  1.0000
  C   C829      1.0  0.72863  0.40835  0.27801  1.0000
  H   H1418     1.0  0.49298  0.37022  0.71407  1.0000
  H   H1419     1.0  0.51947  0.48021  0.33080  1.0000
  H   H1420     1.0  0.73321  0.38543  0.24972  1.0000
  H   H1421     1.0  0.49493  0.46440  0.24432  1.0000
  H   H1422     1.0  0.49754  0.33751  0.57485  1.0000
  H   H1423     1.0  0.73807  0.31486  0.65918  1.0000
  H   H1424     1.0  0.55125  0.67491  0.08350  1.0000
  S   S240      1.0  0.49003  0.67694  0.96351  1.0000
  C   C830      1.0  0.58842  0.69692  0.87839  1.0000
  S   S241      1.0  0.73092  0.71887  0.76599  1.0000
  H   H1425     1.0  0.72810  0.69820  0.23276  1.0000
  H   H1426     1.0  0.73848  0.72186  0.45294  1.0000
  H   H1427     1.0  0.69581  0.67556  0.44966  1.0000
  S   S242      1.0  0.51170  0.64949  0.01433  1.0000
  H   H1428     1.0  0.68411  0.69395  0.45605  1.0000
  H   H1429     1.0  0.66807  0.70300  0.23799  1.0000
  Fe  Fe121     1.0  0.51095  0.67714  0.00741  1.0000
  S   S243      1.0  0.53660  0.68802  0.00034  1.0000
  H   H1430     1.0  0.68596  0.67596  0.15893  1.0000
  Fe  Fe122     1.0  0.53068  0.57085  0.38680  1.0000
  S   S244      1.0  0.55296  0.55556  0.40371  1.0000
  S   S245      1.0  0.50687  0.57579  0.42349  1.0000
  Fe  Fe123     1.0  0.54188  0.57505  0.29676  1.0000
  S   S246      1.0  0.56460  0.55931  0.30800  1.0000
  S   S247      1.0  0.53904  0.58587  0.23107  1.0000
  Fe  Fe124     1.0  0.54901  0.54223  0.34538  1.0000
  S   S248      1.0  0.55145  0.51421  0.35402  1.0000
  Fe  Fe125     1.0  0.56745  0.57351  0.36530  1.0000
  S   S249      1.0  0.59378  0.58259  0.36946  1.0000
  S   S250      1.0  0.52612  0.55672  0.33011  1.0000
  S   S251      1.0  0.54535  0.59002  0.35228  1.0000
  Fe  Fe126     1.0  0.67785  0.61280  0.47005  1.0000
  S   S252      1.0  0.69072  0.61006  0.40958  1.0000
  S   S253      1.0  0.65178  0.60397  0.48321  1.0000
  Fe  Fe127     1.0  0.70812  0.62834  0.50736  1.0000
  S   S254      1.0  0.72269  0.62599  0.44840  1.0000
  S   S255      1.0  0.72196  0.63869  0.56055  1.0000
  Fe  Fe128     1.0  0.69972  0.63529  0.41898  1.0000
  S   S256      1.0  0.69647  0.65618  0.37270  1.0000
  Fe  Fe129     1.0  0.71260  0.60075  0.44505  1.0000
  H   H1431     1.0  0.60671  0.69902  0.95505  1.0000
  S   S257      1.0  0.68558  0.63878  0.47779  1.0000
  S   S258      1.0  0.69933  0.60241  0.50557  1.0000
  C   C831      1.0  0.64659  0.55305  0.42971  1.0000
  H   H1432     1.0  0.50944  0.62391  0.80080  1.0000
  H   H1433     1.0  0.50895  0.68961  0.19405  1.0000
  C   C832      1.0  0.60975  0.58831  0.40196  1.0000
  C   C833      1.0  0.60829  0.58766  0.44454  1.0000
  C   C834      1.0  0.62124  0.59247  0.46868  1.0000
  C   C835      1.0  0.63586  0.59806  0.45083  1.0000
  C   C836      1.0  0.63737  0.59862  0.40823  1.0000
  C   C837      1.0  0.62443  0.59377  0.38408  1.0000
  H   H1434     1.0  0.59715  0.58351  0.45892  1.0000
  H   H1435     1.0  0.61986  0.59197  0.50154  1.0000
  H   H1436     1.0  0.64846  0.60290  0.39388  1.0000
  H   H1437     1.0  0.62579  0.59432  0.35125  1.0000
  H   H1438     1.0  0.67221  0.69941  0.12308  1.0000
  H   H1439     1.0  0.70304  0.68967  0.51268  1.0000
  C   C838      1.0  0.55120  0.49687  0.32240  1.0000
  H   H1440     1.0  0.54089  0.71869  0.10354  1.0000
  C   C839      1.0  0.69518  0.70539  0.22859  1.0000
  Fe  Fe130     1.0  0.49472  0.65297  0.06825  1.0000
  C   C840      1.0  0.50724  0.61806  0.67895  1.0000
  C   C841      1.0  0.49978  0.57569  0.47534  1.0000
  C   C842      1.0  0.51032  0.57500  0.50820  1.0000
  C   C843      1.0  0.50404  0.57579  0.54859  1.0000
  N   N60       1.0  0.60200  0.72422  0.89114  1.0000
  H   H1441     1.0  0.52332  0.57420  0.50243  1.0000
  H   H1442     1.0  0.51234  0.57548  0.57363  1.0000
  C   C844      1.0  0.50835  0.62531  0.15928  1.0000
  C   C845      1.0  0.50627  0.62335  0.20191  1.0000
  C   C846      1.0  0.51529  0.61129  0.22433  1.0000
  C   C847      1.0  0.52658  0.60089  0.20446  1.0000
  C   C848      1.0  0.52873  0.60292  0.16186  1.0000
  C   C849      1.0  0.51974  0.61499  0.13947  1.0000
  H   H1443     1.0  0.70596  0.70810  0.48467  1.0000
  H   H1444     1.0  0.51342  0.60999  0.25697  1.0000
  C   C850      1.0  0.56297  0.73711  0.00909  1.0000
  C   C851      1.0  0.69664  0.68905  0.44972  1.0000
  C   C852      1.0  0.54624  0.70723  0.00373  1.0000
  C   C853      1.0  0.53752  0.72213  0.00692  1.0000
  C   C854      1.0  0.57167  0.72218  0.00681  1.0000
  C   C855      1.0  0.56338  0.70741  0.00370  1.0000
  H   H1445     1.0  0.52437  0.72228  0.00705  1.0000
  H   H1446     1.0  0.58480  0.72199  0.00737  1.0000
  H   H1447     1.0  0.57030  0.69599  0.00161  1.0000
  H   H1448     1.0  0.61328  0.71829  0.97369  1.0000
  C   C856      1.0  0.71859  0.68785  0.62792  1.0000
  C   C857      1.0  0.70587  0.68327  0.60302  1.0000
  C   C858      1.0  0.70663  0.66831  0.58242  1.0000
  C   C859      1.0  0.72016  0.65763  0.58646  1.0000
  C   C860      1.0  0.58724  0.71397  0.89732  1.0000
  H   H1449     1.0  0.62109  0.70526  0.88742  1.0000
  H   H1450     1.0  0.69668  0.66497  0.56373  1.0000
  H   H1451     1.0  0.51178  0.51900  0.55073  1.0000
  H   H1452     1.0  0.73824  0.54663  0.39132  1.0000
  H   H1453     1.0  0.49942  0.58232  0.77674  1.0000
  C   C861      1.0  0.72215  0.69347  0.32375  1.0000
  C   C862      1.0  0.70952  0.68390  0.33966  1.0000
  C   C863      1.0  0.71283  0.66815  0.35591  1.0000
  C   C864      1.0  0.72892  0.66217  0.35710  1.0000
  C   C865      1.0  0.70790  0.69466  0.48310  1.0000
  H   H1454     1.0  0.71956  0.70568  0.31199  1.0000
  H   H1455     1.0  0.69713  0.68873  0.33949  1.0000
  H   H1456     1.0  0.70575  0.67579  0.25985  1.0000
  H   H1457     1.0  0.59864  0.68926  0.89051  1.0000
  N   N61       1.0  0.58013  0.61487  0.26019  1.0000
  C   C866      1.0  0.58382  0.61377  0.30505  1.0000
  C   C867      1.0  0.57936  0.59753  0.24603  1.0000
  C   C868      1.0  0.56359  0.62316  0.25590  1.0000
  C   C869      1.0  0.59322  0.62450  0.23851  1.0000
  C   C870      1.0  0.58383  0.62998  0.32801  1.0000
  C   C871      1.0  0.59534  0.58719  0.24825  1.0000
  C   C872      1.0  0.55788  0.62678  0.21218  1.0000
  C   C873      1.0  0.59548  0.62227  0.19192  1.0000
  H   H1458     1.0  0.57504  0.60581  0.32171  1.0000
  H   H1459     1.0  0.59606  0.60798  0.30980  1.0000
  H   H1460     1.0  0.57494  0.59682  0.21460  1.0000
  H   H1461     1.0  0.57012  0.59083  0.26461  1.0000
  H   H1462     1.0  0.55411  0.61575  0.27193  1.0000
  H   H1463     1.0  0.56306  0.63523  0.27050  1.0000
  H   H1464     1.0  0.59109  0.63779  0.24362  1.0000
  H   H1465     1.0  0.60527  0.62140  0.25203  1.0000
  H   H1466     1.0  0.57131  0.63496  0.33373  1.0000
  H   H1467     1.0  0.58906  0.62746  0.35857  1.0000
  H   H1468     1.0  0.59143  0.63927  0.31247  1.0000
  H   H1469     1.0  0.60577  0.59328  0.23324  1.0000
  H   H1470     1.0  0.59834  0.58379  0.28018  1.0000
  H   H1471     1.0  0.59371  0.57551  0.23256  1.0000
  H   H1472     1.0  0.55772  0.61570  0.19369  1.0000
  H   H1473     1.0  0.56527  0.63623  0.19656  1.0000
  H   H1474     1.0  0.54515  0.63176  0.21362  1.0000
  H   H1475     1.0  0.59585  0.63445  0.17628  1.0000
  H   H1476     1.0  0.58592  0.61550  0.17731  1.0000
  H   H1477     1.0  0.60740  0.61606  0.18501  1.0000
  H   H1478     1.0  0.50449  0.52931  0.59627  1.0000
  C   C874      1.0  0.50016  0.59230  0.71367  1.0000
  H   H1479     1.0  0.57067  0.66397  0.13288  1.0000
  S   S259      1.0  0.72529  0.57724  0.42084  1.0000
  C   C875      1.0  0.65604  0.55444  0.46934  1.0000
  C   C876      1.0  0.67356  0.56788  0.53655  1.0000
  H   H1480     1.0  0.63339  0.55285  0.43765  1.0000
  C   C877      1.0  0.50441  0.52951  0.56254  1.0000
  H   H1481     1.0  0.52209  0.69735  0.11072  1.0000
  H   H1482     1.0  0.64806  0.56392  0.40936  1.0000
  H   H1483     1.0  0.65124  0.56601  0.48286  1.0000
  H   H1484     1.0  0.70033  0.69376  0.41912  1.0000
  C   C878      1.0  0.61707  0.71553  0.90722  1.0000
  H   H1485     1.0  0.57080  0.68590  0.12908  1.0000
  H   H1486     1.0  0.73160  0.65006  0.36964  1.0000
  H   H1487     1.0  0.49749  0.63116  0.21776  1.0000
  C   C879      1.0  0.54941  0.49816  0.28015  1.0000
  S   S260      1.0  0.71707  0.70726  0.65167  1.0000
  H   H1488     1.0  0.71393  0.67742  0.16540  1.0000
  H   H1489     1.0  0.64957  0.54166  0.41335  1.0000
  C   C880      1.0  0.60466  0.72757  0.84608  1.0000
  C   C881      1.0  0.50705  0.61237  0.63448  1.0000
  H   H1490     1.0  0.67806  0.68306  0.28362  1.0000
  H   H1491     1.0  0.55035  0.68605  0.19112  1.0000
  Fe  Fe131     1.0  0.73231  0.72104  0.69702  1.0000
  H   H1492     1.0  0.69348  0.73703  0.07238  1.0000
  H   H1493     1.0  0.72166  0.66691  0.44868  1.0000
  H   H1494     1.0  0.52525  0.67902  0.22164  1.0000
  H   H1495     1.0  0.51990  0.61574  0.68932  1.0000
  H   H1496     1.0  0.54857  0.64707  0.07301  1.0000
  H   H1497     1.0  0.58945  0.69776  0.84467  1.0000
  H   H1498     1.0  0.51177  0.50230  0.28422  1.0000
  H   H1499     1.0  0.70027  0.71534  0.20889  1.0000
  N   N62       1.0  0.49525  0.61012  0.70810  1.0000
  H   H1500     1.0  0.53012  0.64577  0.10211  1.0000
  H   H1501     1.0  0.51552  0.60510  0.77812  1.0000
  H   H1502     1.0  0.54844  0.51012  0.26545  1.0000
  C   C882      1.0  0.73495  0.69533  0.51447  1.0000
  H   H1503     1.0  0.68183  0.66171  0.28218  1.0000
  C   C883      1.0  0.69611  0.67502  0.23698  1.0000
  C   C884      1.0  0.68381  0.68758  0.17550  1.0000
  C   C885      1.0  0.49165  0.58308  0.74957  1.0000
  C   C886      1.0  0.73814  0.68721  0.32313  1.0000
  H   H1504     1.0  0.71441  0.69909  0.16366  1.0000
  S   S261      1.0  0.49661  0.64098  0.13287  1.0000
  H   H1505     1.0  0.49783  0.58550  0.68555  1.0000
  C   C887      1.0  0.73297  0.69658  0.43870  1.0000
  H   H1506     1.0  0.69870  0.66336  0.22090  1.0000
  H   H1507     1.0  0.58410  0.71234  0.93025  1.0000
  C   C888      1.0  0.68254  0.70156  0.14321  1.0000
  H   H1508     1.0  0.66958  0.67104  0.24370  1.0000
  H   H1509     1.0  0.55539  0.70904  0.13646  1.0000
  C   C889      1.0  0.72905  0.71130  0.53508  1.0000
  H   H1510     1.0  0.68004  0.71355  0.15723  1.0000
  H   H1511     1.0  0.53019  0.67310  0.07807  1.0000
  C   C890      1.0  0.67795  0.71149  0.24248  1.0000
  H   H1512     1.0  0.67150  0.68644  0.18923  1.0000
  H   H1513     1.0  0.70284  0.70493  0.25596  1.0000
  H   H1514     1.0  0.50651  0.66932  0.21309  1.0000
  C   C891      1.0  0.68033  0.67289  0.26245  1.0000
  N   N63       1.0  0.67437  0.55436  0.46573  1.0000
  C   C892      1.0  0.68093  0.55463  0.50841  1.0000
  C   C893      1.0  0.68068  0.53861  0.44735  1.0000
  C   C894      1.0  0.68007  0.56931  0.44247  1.0000
  H   H1515     1.0  0.67471  0.72324  0.22651  1.0000
  C   C895      1.0  0.69936  0.53696  0.44183  1.0000
  C   C896      1.0  0.67925  0.56933  0.39535  1.0000
  H   H1516     1.0  0.67918  0.54269  0.52478  1.0000
  H   H1517     1.0  0.59307  0.73102  0.83087  1.0000
  H   H1518     1.0  0.67555  0.53653  0.41724  1.0000
  H   H1519     1.0  0.67667  0.52795  0.46639  1.0000
  H   H1520     1.0  0.67317  0.58034  0.45281  1.0000
  H   H1521     1.0  0.69289  0.57172  0.44980  1.0000
  H   H1522     1.0  0.72006  0.66589  0.50250  1.0000
  H   H1523     1.0  0.69530  0.69135  0.59976  1.0000
  H   H1524     1.0  0.70255  0.52552  0.42561  1.0000
  H   H1525     1.0  0.70438  0.54716  0.42318  1.0000
  H   H1526     1.0  0.70559  0.53605  0.47142  1.0000
  H   H1527     1.0  0.67176  0.58006  0.38461  1.0000
  H   H1528     1.0  0.67406  0.55848  0.38218  1.0000
  H   H1529     1.0  0.69162  0.57079  0.38162  1.0000
  H   H1530     1.0  0.60907  0.71628  0.83058  1.0000
  H   H1531     1.0  0.69356  0.70222  0.12320  1.0000
  H   H1532     1.0  0.52444  0.65728  0.16561  1.0000
  H   H1533     1.0  0.57712  0.67545  0.17453  1.0000
  H   H1534     1.0  0.50550  0.63160  0.67840  1.0000
  S   S262      1.0  0.49452  0.68067  0.06284  1.0000
  H   H1535     1.0  0.50914  0.59898  0.63228  1.0000
  H   H1536     1.0  0.54974  0.66459  0.18729  1.0000
  C   C897      1.0  0.61585  0.70861  0.95134  1.0000
  H   H1537     1.0  0.51349  0.59095  0.71849  1.0000
  N   N64       1.0  0.72570  0.68993  0.47808  1.0000
  H   H1538     1.0  0.66109  0.56491  0.54734  1.0000
  S   S263      1.0  0.72525  0.73611  0.26155  1.0000
  H   H1539     1.0  0.68109  0.56857  0.56404  1.0000
  H   H1540     1.0  0.54915  0.64669  0.12782  1.0000
  H   H1541     1.0  0.52865  0.70221  0.16001  1.0000
  N   N65       1.0  0.53688  0.67822  0.13961  1.0000
  C   C898      1.0  0.52204  0.67051  0.15878  1.0000
  C   C899      1.0  0.54027  0.67015  0.09935  1.0000
  C   C900      1.0  0.53261  0.69606  0.13154  1.0000
  C   C901      1.0  0.55082  0.67608  0.16862  1.0000
  C   C902      1.0  0.51556  0.67773  0.19921  1.0000
  C   C903      1.0  0.54222  0.65134  0.10122  1.0000
  C   C904      1.0  0.54623  0.70662  0.11333  1.0000
  C   C905      1.0  0.56820  0.67538  0.14967  1.0000
  H   H1542     1.0  0.51179  0.67119  0.13724  1.0000
  H   H1543     1.0  0.53737  0.59498  0.14595  1.0000
  H   H1544     1.0  0.72754  0.69076  0.41232  1.0000
  N   N66       1.0  0.69662  0.68932  0.20708  1.0000
  H   H1545     1.0  0.72970  0.67614  0.22881  1.0000
  H   H1546     1.0  0.67794  0.71415  0.27551  1.0000
  H   H1547     1.0  0.62779  0.70283  0.95939  1.0000
  H   H1548     1.0  0.65209  0.54437  0.49042  1.0000
  H   H1549     1.0  0.69430  0.55642  0.50753  1.0000
  H   H1550     1.0  0.67330  0.58013  0.52165  1.0000
  H   H1551     1.0  0.52145  0.61612  0.10676  1.0000
  C   C906      1.0  0.72709  0.67150  0.47674  1.0000
  H   H1552     1.0  0.57707  0.69042  0.88616  1.0000
  H   H1553     1.0  0.51704  0.61824  0.61671  1.0000
  H   H1554     1.0  0.49342  0.49297  0.27143  1.0000
  H   H1555     1.0  0.71853  0.71966  0.43117  1.0000
  H   H1556     1.0  0.62748  0.72387  0.90634  1.0000
  H   H1557     1.0  0.72782  0.72188  0.51378  1.0000
  H   H1558     1.0  0.49237  0.63213  0.74324  1.0000
  H   H1559     1.0  0.57632  0.72033  0.88417  1.0000
  C   C907      1.0  0.71293  0.68839  0.18483  1.0000
  C   C908      1.0  0.51136  0.61783  0.77109  1.0000
  H   H1560     1.0  0.55218  0.70133  0.08599  1.0000
  H   H1561     1.0  0.52112  0.62437  0.75427  1.0000
  H   H1562     1.0  0.49558  0.61607  0.61922  1.0000
  H   H1563     1.0  0.71726  0.70967  0.55161  1.0000
  H   H1564     1.0  0.51061  0.54070  0.55161  1.0000
  S   S264      1.0  0.71412  0.73400  0.14114  1.0000
  H   H1565     1.0  0.59699  0.73715  0.94696  1.0000
  C   C909      1.0  0.73284  0.66215  0.61155  1.0000
  H   H1566     1.0  0.66230  0.73320  0.85322  1.0000
  H   H1567     1.0  0.73789  0.71440  0.55852  1.0000
  C   C910      1.0  0.54583  0.73693  0.00927  1.0000
  H   H1568     1.0  0.68793  0.73632  0.81246  1.0000
  H   H1569     1.0  0.49536  0.49897  0.57292  1.0000
  H   H1570     1.0  0.62932  0.73746  0.84607  1.0000
  C   C911      1.0  0.49525  0.61886  0.74797  1.0000
  C   C912      1.0  0.73211  0.67715  0.63203  1.0000
  C   C913      1.0  0.73137  0.71515  0.43106  1.0000
  H   H1571     1.0  0.73653  0.71808  0.40019  1.0000
  H   H1572     1.0  0.73448  0.68591  0.53959  1.0000
  C   C914      1.0  0.72813  0.68789  0.21158  1.0000
  C   C915      1.0  0.50593  0.49031  0.28198  1.0000
  H   H1573     1.0  0.50112  0.49032  0.34671  1.0000
  H   H1574     1.0  0.49009  0.57020  0.74100  1.0000
  Fe  Fe132     1.0  0.73036  0.73883  0.19411  1.0000
  H   H1575     1.0  0.73913  0.68896  0.19155  1.0000
  C   C916      1.0  0.59913  0.73982  0.91396  1.0000
  H   H1576     1.0  0.68254  0.94363  0.40975  1.0000
  H   H1577     1.0  0.57322  0.74719  0.91853  1.0000
  H   H1578     1.0  0.68473  0.89808  0.40827  1.0000
  H   H1579     1.0  0.64150  0.98850  0.83743  1.0000
  H   H1580     1.0  0.58411  0.81308  0.02713  1.0000
  C   C917      1.0  0.72088  0.81091  0.79900  1.0000
  Fe  Fe133     1.0  0.58153  0.90910  0.11764  1.0000
  S   S265      1.0  0.60066  0.92724  0.09981  1.0000
  S   S266      1.0  0.58404  0.88077  0.11755  1.0000
  Fe  Fe134     1.0  0.55716  0.93676  0.14566  1.0000
  S   S267      1.0  0.57537  0.95631  0.13121  1.0000
  S   S268      1.0  0.53194  0.94753  0.16507  1.0000
  Fe  Fe135     1.0  0.58033  0.94311  0.07274  1.0000
  S   S269      1.0  0.57604  0.95494  0.00910  1.0000
  Fe  Fe136     1.0  0.59427  0.93935  0.16010  1.0000
  S   S270      1.0  0.61602  0.94628  0.19955  1.0000
  S   S271      1.0  0.56162  0.92399  0.08663  1.0000
  S   S272      1.0  0.57575  0.92065  0.17878  1.0000
  Fe  Fe137     1.0  0.63094  0.76687  0.06014  1.0000
  S   S273      1.0  0.64276  0.78312  0.01263  1.0000
  S   S274      1.0  0.64166  0.76161  0.12222  1.0000
  Fe  Fe138     1.0  0.59954  0.76377  0.01233  1.0000
  S   S275      1.0  0.60934  0.78002  0.96153  1.0000
  S   S276      1.0  0.57275  0.75630  0.01113  1.0000
  Fe  Fe139     1.0  0.63310  0.76566  0.96778  1.0000
  S   S277      1.0  0.64549  0.75287  0.91326  1.0000
  Fe  Fe140     1.0  0.61816  0.79627  0.01051  1.0000
  S   S278      1.0  0.61563  0.82434  0.00472  1.0000
  S   S279      1.0  0.62267  0.74845  0.01608  1.0000
  S   S280      1.0  0.60700  0.78099  0.06064  1.0000
  H   H1581     1.0  0.61015  0.74736  0.91361  1.0000
  S   S281      1.0  0.65623  0.97335  0.47607  1.0000
  S   S282      1.0  0.71184  0.76245  0.80901  1.0000
  Fe  Fe141     1.0  0.68328  0.97341  0.46166  1.0000
  S   S283      1.0  0.69809  0.95102  0.48553  1.0000
  H   H1582     1.0  0.71965  0.79754  0.80077  1.0000
  C   C918      1.0  0.71369  0.93746  0.46611  1.0000
  C   C919      1.0  0.71980  0.92476  0.49176  1.0000
  H   H1583     1.0  0.49913  0.97729  0.02085  1.0000
  C   C920      1.0  0.71967  0.93856  0.42590  1.0000
  H   H1584     1.0  0.71528  0.92375  0.52292  1.0000
  H   H1585     1.0  0.53889  0.74835  0.01111  1.0000
  H   H1586     1.0  0.71520  0.94827  0.40578  1.0000
  H   H1587     1.0  0.68801  0.91469  0.46728  1.0000
  C   C921      1.0  0.62017  0.95480  0.24794  1.0000
  C   C922      1.0  0.63640  0.95493  0.26084  1.0000
  C   C923      1.0  0.64045  0.96184  0.29822  1.0000
  C   C924      1.0  0.62831  0.96885  0.32349  1.0000
  C   C925      1.0  0.61208  0.96867  0.31071  1.0000
  C   C926      1.0  0.60802  0.96170  0.27339  1.0000
  H   H1588     1.0  0.64593  0.94967  0.24154  1.0000
  H   H1589     1.0  0.65298  0.96178  0.30721  1.0000
  H   H1590     1.0  0.54567  0.82963  0.06722  1.0000
  H   H1591     1.0  0.59549  0.96176  0.26414  1.0000
  C   C927      1.0  0.59337  0.86543  0.08593  1.0000
  C   C928      1.0  0.59998  0.86894  0.04711  1.0000
  C   C929      1.0  0.60673  0.85625  0.02291  1.0000
  C   C930      1.0  0.60708  0.83986  0.03705  1.0000
  C   C931      1.0  0.60069  0.83634  0.07610  1.0000
  C   C932      1.0  0.59381  0.84901  0.10015  1.0000
  H   H1592     1.0  0.59977  0.88144  0.03559  1.0000
  H   H1593     1.0  0.61169  0.85920  0.99290  1.0000
  H   H1594     1.0  0.60100  0.82388  0.08779  1.0000
  H   H1595     1.0  0.58881  0.84611  0.13015  1.0000
  C   C933      1.0  0.58296  0.97265  0.98179  1.0000
  C   C934      1.0  0.67462  0.89674  0.38725  1.0000
  C   C935      1.0  0.63352  0.93528  0.41049  1.0000
  H   H1596     1.0  0.49196  0.93538  0.32789  1.0000
  H   H1597     1.0  0.56324  0.80903  0.12232  1.0000
  C   C936      1.0  0.50843  0.92388  0.15859  1.0000
  C   C937      1.0  0.51171  0.94031  0.16405  1.0000
  H   H1598     1.0  0.67744  0.82117  0.07270  1.0000
  H   H1599     1.0  0.51840  0.91512  0.15409  1.0000
  H   H1600     1.0  0.66153  0.81119  0.04874  1.0000
  C   C938      1.0  0.49223  0.91864  0.16049  1.0000
  H   H1601     1.0  0.61310  0.75299  0.84523  1.0000
  C   C939      1.0  0.57426  0.80747  0.01033  1.0000
  C   C940      1.0  0.69366  0.75914  0.83875  1.0000
  C   C941      1.0  0.68843  0.77092  0.86720  1.0000
  C   C942      1.0  0.67395  0.76910  0.89079  1.0000
  C   C943      1.0  0.66434  0.75553  0.88589  1.0000
  H   H1602     1.0  0.58545  0.98258  0.83461  1.0000
  C   C944      1.0  0.57617  0.81295  0.96506  1.0000
  H   H1603     1.0  0.67013  0.77830  0.91234  1.0000
  H   H1604     1.0  0.65524  0.91108  0.36069  1.0000
  C   C945      1.0  0.68415  0.74547  0.83421  1.0000
  H   H1605     1.0  0.68637  0.79379  0.05877  1.0000
  H   H1606     1.0  0.56687  0.78747  0.11918  1.0000
  H   H1607     1.0  0.73513  0.81130  0.59146  1.0000
  C   C946      1.0  0.66220  0.75494  0.12639  1.0000
  C   C947      1.0  0.49851  0.95147  0.17011  1.0000
  H   H1608     1.0  0.69179  0.75079  0.19779  1.0000
  C   C948      1.0  0.66985  0.75588  0.16403  1.0000
  C   C949      1.0  0.61707  0.74073  0.83450  1.0000
  H   H1609     1.0  0.70872  0.81627  0.79136  1.0000
  C   C950      1.0  0.73160  0.91321  0.47748  1.0000
  C   C951      1.0  0.64405  0.82930  0.09397  1.0000
  S   S284      1.0  0.68030  0.98335  0.39729  1.0000
  H   H1610     1.0  0.64038  0.79711  0.10214  1.0000
  H   H1611     1.0  0.49967  0.92948  0.27932  1.0000
  H   H1612     1.0  0.53435  0.92574  0.01317  1.0000
  H   H1613     1.0  0.62881  0.79438  0.17215  1.0000
  N   N67       1.0  0.61536  0.98371  0.78655  1.0000
  C   C952      1.0  0.66324  0.92492  0.45520  1.0000
  C   C953      1.0  0.64681  0.80265  0.12763  1.0000
  H   H1614     1.0  0.65847  0.85169  0.08964  1.0000
  C   C954      1.0  0.67680  0.81465  0.17097  1.0000
  N   N68       1.0  0.65622  0.81708  0.11187  1.0000
  H   H1615     1.0  0.63175  0.93867  0.44284  1.0000
  S   S285      1.0  0.73292  0.77800  0.31002  1.0000
  H   H1616     1.0  0.57346  0.97657  0.79380  1.0000
  C   C955      1.0  0.67695  0.79513  0.08338  1.0000
  H   H1617     1.0  0.73914  0.80575  0.50078  1.0000
  H   H1618     1.0  0.65833  0.84033  0.04280  1.0000
  H   H1619     1.0  0.65489  0.79267  0.13961  1.0000
  C   C956      1.0  0.67518  0.91278  0.47634  1.0000
  C   C957      1.0  0.53012  0.94881  0.04360  1.0000
  H   H1620     1.0  0.67432  0.91464  0.50975  1.0000
  H   H1621     1.0  0.58180  0.75013  0.86801  1.0000
  H   H1622     1.0  0.58673  0.76364  0.90638  1.0000
  Fe  Fe142     1.0  0.72734  0.74624  0.76551  1.0000
  H   H1623     1.0  0.60252  0.97403  0.32974  1.0000
  H   H1624     1.0  0.56500  0.97088  0.93555  1.0000
  H   H1625     1.0  0.55738  0.85379  0.03855  1.0000
  H   H1626     1.0  0.56929  0.80521  0.94485  1.0000
  C   C958      1.0  0.52388  0.93422  0.02008  1.0000
  H   H1627     1.0  0.66530  0.93723  0.46745  1.0000
  H   H1628     1.0  0.55113  0.84296  0.99552  1.0000
  C   C959      1.0  0.55968  0.84246  0.02107  1.0000
  H   H1629     1.0  0.58844  0.96240  0.81284  1.0000
  C   C960      1.0  0.68605  0.75019  0.16858  1.0000
  H   H1630     1.0  0.55066  0.96935  0.07840  1.0000
  H   H1631     1.0  0.50088  0.96422  0.17439  1.0000
  H   H1632     1.0  0.72186  0.80276  0.67802  1.0000
  C   C961      1.0  0.57510  0.97769  0.94569  1.0000
  C   C962      1.0  0.66494  0.82532  0.14516  1.0000
  C   C963      1.0  0.63404  0.80616  0.16169  1.0000
  C   C964      1.0  0.67089  0.74843  0.09319  1.0000
  H   H1633     1.0  0.69039  0.92363  0.40446  1.0000
  H   H1634     1.0  0.67006  0.88426  0.39304  1.0000
  N   N69       1.0  0.52229  0.96544  0.03486  1.0000
  H   H1635     1.0  0.73581  0.92785  0.38029  1.0000
  H   H1636     1.0  0.62508  0.94341  0.39273  1.0000
  C   C965      1.0  0.66957  0.74376  0.85742  1.0000
  H   H1637     1.0  0.62374  0.81400  0.15064  1.0000
  H   H1638     1.0  0.63107  0.96211  0.85850  1.0000
  N   N70       1.0  0.55799  0.81097  0.03119  1.0000
  C   C966      1.0  0.55554  0.79843  0.06519  1.0000
  C   C967      1.0  0.54397  0.80990  0.00275  1.0000
  C   C968      1.0  0.55740  0.82762  0.05007  1.0000
  H   H1639     1.0  0.67586  0.94641  0.33886  1.0000
  H   H1640     1.0  0.68318  0.79352  0.11268  1.0000
  C   C969      1.0  0.54125  0.79269  0.98643  1.0000
  H   H1641     1.0  0.72353  0.81498  0.83009  1.0000
  H   H1642     1.0  0.66318  0.76093  0.18984  1.0000
  H   H1643     1.0  0.54289  0.79939  0.07809  1.0000
  H   H1644     1.0  0.55704  0.78579  0.05353  1.0000
  H   H1645     1.0  0.54527  0.81832  0.97596  1.0000
  H   H1646     1.0  0.53239  0.81400  0.01819  1.0000
  C   C970      1.0  0.58590  0.97557  0.80626  1.0000
  H   H1647     1.0  0.56709  0.82859  0.07278  1.0000
  C   C971      1.0  0.71919  0.79572  0.70649  1.0000
  H   H1648     1.0  0.61985  0.94637  0.83799  1.0000
  H   H1649     1.0  0.69539  0.93640  0.34101  1.0000
  H   H1650     1.0  0.51543  0.92699  0.03971  1.0000
  H   H1651     1.0  0.67776  0.82009  0.20144  1.0000
  H   H1652     1.0  0.53505  0.78489  0.00980  1.0000
  H   H1653     1.0  0.53323  0.79371  0.95969  1.0000
  H   H1654     1.0  0.55275  0.78635  0.97674  1.0000
  H   H1655     1.0  0.57246  0.84304  0.00972  1.0000
  H   H1656     1.0  0.51819  0.93734  0.99069  1.0000
  H   H1657     1.0  0.67802  0.92466  0.33074  1.0000
  C   C972      1.0  0.62042  0.95987  0.83949  1.0000
  H   H1658     1.0  0.52852  0.94543  0.07650  1.0000
  H   H1659     1.0  0.57268  0.82589  0.95912  1.0000
  H   H1660     1.0  0.57989  0.80100  0.09113  1.0000
  H   H1661     1.0  0.65049  0.90330  0.41043  1.0000
  C   C973      1.0  0.56715  0.79917  0.10129  1.0000
  H   H1662     1.0  0.73959  0.78539  0.63163  1.0000
  H   H1663     1.0  0.66850  0.78499  0.07997  1.0000
  H   H1664     1.0  0.69562  0.78156  0.87100  1.0000
  C   C974      1.0  0.59794  0.98239  0.77404  1.0000
  H   H1665     1.0  0.61879  0.95797  0.77404  1.0000
  H   H1666     1.0  0.65627  0.83179  0.16628  1.0000
  H   H1667     1.0  0.71018  0.80264  0.72537  1.0000
  H   H1668     1.0  0.67194  0.89995  0.47142  1.0000
  H   H1669     1.0  0.62831  0.96963  0.71340  1.0000
  H   H1670     1.0  0.59706  0.97433  0.74754  1.0000
  H   H1671     1.0  0.53640  0.95359  0.95701  1.0000
  H   H1672     1.0  0.64088  0.85201  0.05905  1.0000
  H   H1673     1.0  0.65061  0.93867  0.36143  1.0000
  H   H1674     1.0  0.73082  0.78203  0.75459  1.0000
  H   H1675     1.0  0.65103  0.92141  0.46690  1.0000
  C   C975      1.0  0.66022  0.90929  0.39184  1.0000
  H   H1676     1.0  0.63948  0.81156  0.18858  1.0000
  H   H1677     1.0  0.57744  0.79414  0.01113  1.0000
  C   C976      1.0  0.73465  0.79066  0.73010  1.0000
  H   H1678     1.0  0.53448  0.97322  0.93298  1.0000
  H   H1679     1.0  0.67236  0.83536  0.13206  1.0000
  C   C977      1.0  0.65113  0.93811  0.39527  1.0000
  C   C978      1.0  0.68228  0.93490  0.34863  1.0000
  H   H1680     1.0  0.62977  0.92258  0.40622  1.0000
  H   H1681     1.0  0.73050  0.80686  0.35816  1.0000
  C   C979      1.0  0.65113  0.84406  0.07019  1.0000
  H   H1682     1.0  0.67270  0.80213  0.17759  1.0000
  H   H1683     1.0  0.68912  0.81406  0.15637  1.0000
  C   C980      1.0  0.62303  0.96706  0.79576  1.0000
  C   C981      1.0  0.66798  0.81189  0.07813  1.0000
  C   C982      1.0  0.68696  0.74245  0.09796  1.0000
  S   S286      1.0  0.63264  0.97850  0.37042  1.0000
  H   H1684     1.0  0.63584  0.83456  0.11803  1.0000
  N   N71       1.0  0.66390  0.92563  0.40921  1.0000
  H   H1685     1.0  0.54348  0.94915  0.03795  1.0000
  H   H1686     1.0  0.63602  0.82315  0.07275  1.0000
  C   C983      1.0  0.73389  0.81710  0.76782  1.0000
  H   H1687     1.0  0.51640  0.96331  0.94847  1.0000
  H   H1688     1.0  0.52534  0.98641  0.99421  1.0000
  H   H1689     1.0  0.67944  0.89678  0.35535  1.0000
  C   C984      1.0  0.68018  0.93186  0.39499  1.0000
  H   H1690     1.0  0.61219  0.98369  0.69626  1.0000
  C   C985      1.0  0.69458  0.74324  0.13564  1.0000
  H   H1691     1.0  0.58916  0.81150  0.95550  1.0000
  H   H1692     1.0  0.65425  0.95062  0.40438  1.0000
  H   H1693     1.0  0.60919  0.96406  0.85568  1.0000
  C   C986      1.0  0.52463  0.97608  0.07107  1.0000
  S   S287      1.0  0.72689  0.74840  0.69675  1.0000
  C   C987      1.0  0.49415  0.95810  0.06512  1.0000
  H   H1694     1.0  0.73611  0.90353  0.49764  1.0000
  H   H1695     1.0  0.49946  0.94655  0.07803  1.0000
  C   C988      1.0  0.50423  0.96483  0.02851  1.0000
  H   H1696     1.0  0.73726  0.80087  0.44728  1.0000
  C   C989      1.0  0.58433  0.75064  0.90083  1.0000
  H   H1697     1.0  0.63646  0.96745  0.79093  1.0000
  C   C990      1.0  0.62432  0.98264  0.71029  1.0000
  H   H1698     1.0  0.54294  0.98498  0.11116  1.0000
  C   C991      1.0  0.53031  0.97366  0.99829  1.0000
  C   C992      1.0  0.59614  0.98152  0.99415  1.0000
  H   H1699     1.0  0.50130  0.95746  0.00208  1.0000
  H   H1700     1.0  0.71316  0.78447  0.69742  1.0000
  H   H1701     1.0  0.51980  0.97016  0.09957  1.0000
  H   H1702     1.0  0.60239  0.97781  0.02165  1.0000
  Fe  Fe143     1.0  0.65349  0.98472  0.41285  1.0000
  C   C993      1.0  0.73136  0.92693  0.41152  1.0000
  H   H1703     1.0  0.51765  0.98791  0.06763  1.0000
  H   H1704     1.0  0.66512  0.74766  0.06406  1.0000
  C   C994      1.0  0.52909  0.96522  0.95722  1.0000
  H   H1705     1.0  0.49277  0.96722  0.08949  1.0000
  H   H1706     1.0  0.72736  0.82515  0.74523  1.0000
  H   H1707     1.0  0.54360  0.97470  0.00273  1.0000
  C   C995      1.0  0.54235  0.98021  0.07987  1.0000
  C   C996      1.0  0.73741  0.91417  0.43714  1.0000
  H   H1708     1.0  0.63287  0.98861  0.68827  1.0000
  H   H1709     1.0  0.63967  0.98896  0.23352  1.0000
  H   H1710     1.0  0.61832  0.74174  0.80078  1.0000
  H   H1711     1.0  0.48993  0.90580  0.15756  1.0000
  C   C997      1.0  0.76910  0.17071  0.55199  1.0000
  S   S288      1.0  0.75995  0.13735  0.25771  1.0000
  H   H1712     1.0  0.96140  0.13845  0.28957  1.0000
  H   H1713     1.0  0.93897  0.07156  0.44246  1.0000
  H   H1714     1.0  0.95893  0.14585  0.23845  1.0000
  S   S289      1.0  0.76679  0.21153  0.19612  1.0000
  Fe  Fe144     1.0  0.76723  0.13824  0.40693  1.0000
  S   S290      1.0  0.74944  0.12543  0.36904  1.0000
  S   S291      1.0  0.75752  0.16205  0.43449  1.0000
  Fe  Fe145     1.0  0.79637  0.11651  0.37550  1.0000
  S   S292      1.0  0.78032  0.10260  0.33467  1.0000
  S   S293      1.0  0.82349  0.11215  0.39067  1.0000
  Fe  Fe146     1.0  0.76862  0.12746  0.31930  1.0000
  H   H1715     1.0  0.96550  0.06448  0.41064  1.0000
  Fe  Fe147     1.0  0.76221  0.10176  0.38777  1.0000
  H   H1716     1.0  0.95377  0.03330  0.51735  1.0000
  S   S294      1.0  0.78581  0.14124  0.35621  1.0000
  S   S295      1.0  0.77887  0.11463  0.42962  1.0000
  Fe  Fe148     1.0  0.97609  0.18339  0.92404  1.0000
  S   S296      1.0  0.95260  0.19254  0.89282  1.0000
  H   H1717     1.0  0.91264  0.20514  0.06869  1.0000
  S   S297      1.0  0.97678  0.15628  0.93828  1.0000
  Fe  Fe149     1.0  0.91645  0.08837  0.29986  1.0000
  S   S298      1.0  0.92845  0.07074  0.25541  1.0000
  S   S299      1.0  0.88922  0.09391  0.28933  1.0000
  Fe  Fe150     1.0  0.94869  0.09146  0.34537  1.0000
  S   S300      1.0  0.96225  0.07429  0.30384  1.0000
  S   S301      1.0  0.95957  0.10239  0.40168  1.0000
  Fe  Fe151     1.0  0.94932  0.08817  0.25241  1.0000
  S   S302      1.0  0.96423  0.09475  0.19358  1.0000
  Fe  Fe152     1.0  0.94023  0.05852  0.31018  1.0000
  S   S303      1.0  0.94125  0.03263  0.33947  1.0000
  S   S304      1.0  0.93681  0.10627  0.29429  1.0000
  S   S305      1.0  0.92721  0.07537  0.35421  1.0000
  C   C998      1.0  0.93873  0.01178  0.32704  1.0000
  H   H1718     1.0  0.97922  0.10546  0.26767  1.0000
  H   H1719     1.0  0.93415  0.01602  0.26336  1.0000
  C   C999      1.0  0.97117  0.13691  0.09661  1.0000
  C   C1000     1.0  0.98085  0.12251  0.09581  1.0000
  C   C1001     1.0  0.97852  0.10988  0.12560  1.0000
  C   C1002     1.0  0.96643  0.11127  0.15664  1.0000
  C   C1003     1.0  0.95671  0.12565  0.15737  1.0000
  C   C1004     1.0  0.95914  0.13834  0.12785  1.0000
  C   C1005     1.0  0.95965  0.05502  0.43048  1.0000
  H   H1720     1.0  0.77527  0.16440  0.57682  1.0000
  H   H1721     1.0  0.94717  0.12694  0.18040  1.0000
  H   H1722     1.0  0.74414  0.18618  0.17555  1.0000
  C   C1006     1.0  0.89711  0.04775  0.39525  1.0000
  H   H1723     1.0  0.98669  0.15318  0.82711  1.0000
  H   H1724     1.0  0.80283  0.22215  0.08067  1.0000
  C   C1007     1.0  0.91601  0.22701  0.87690  1.0000
  C   C1008     1.0  0.92576  0.21247  0.87597  1.0000
  C   C1009     1.0  0.94101  0.21138  0.89464  1.0000
  C   C1010     1.0  0.94642  0.22509  0.91422  1.0000
  H   H1725     1.0  0.75404  0.20869  0.28505  1.0000
  H   H1726     1.0  0.98903  0.08401  0.37586  1.0000
  H   H1727     1.0  0.92138  0.20198  0.86074  1.0000
  H   H1728     1.0  0.95812  0.22453  0.92863  1.0000
  C   C1011     1.0  0.93534  0.00693  0.28767  1.0000
  N   N72       1.0  0.88166  0.04451  0.32809  1.0000
  C   C1012     1.0  0.76329  0.18691  0.55684  1.0000
  C   C1013     1.0  0.84155  0.10685  0.36182  1.0000
  C   C1014     1.0  0.85645  0.10497  0.38208  1.0000
  C   C1015     1.0  0.87113  0.10103  0.36066  1.0000
  C   C1016     1.0  0.87115  0.09895  0.31846  1.0000
  C   C1017     1.0  0.85624  0.10070  0.29829  1.0000
  C   C1018     1.0  0.84156  0.10461  0.31971  1.0000
  H   H1729     1.0  0.85664  0.10665  0.41463  1.0000
  H   H1730     1.0  0.88243  0.09976  0.37675  1.0000
  H   H1731     1.0  0.85603  0.09910  0.26570  1.0000
  H   H1732     1.0  0.83027  0.10597  0.30356  1.0000
  C   C1019     1.0  0.76219  0.15790  0.24037  1.0000
  H   H1733     1.0  0.93717  0.18035  0.80613  1.0000
  H   H1734     1.0  0.94206  0.05686  0.48277  1.0000
  C   C1020     1.0  0.76484  0.19076  0.21192  1.0000
  C   C1021     1.0  0.77578  0.18388  0.24035  1.0000
  C   C1022     1.0  0.77440  0.16760  0.25478  1.0000
  C   C1023     1.0  0.94025  0.99969  0.35815  1.0000
  H   H1735     1.0  0.78424  0.23729  0.15435  1.0000
  H   H1736     1.0  0.78535  0.19121  0.25144  1.0000
  H   H1737     1.0  0.78288  0.16249  0.27665  1.0000
  C   C1024     1.0  0.75930  0.17085  0.48273  1.0000
  C   C1025     1.0  0.76700  0.16265  0.51516  1.0000
  C   C1026     1.0  0.93796  0.16690  0.81137  1.0000
  H   H1738     1.0  0.96983  0.05312  0.51017  1.0000
  C   C1027     1.0  0.75523  0.19493  0.52476  1.0000
  H   H1739     1.0  0.75144  0.20858  0.37569  1.0000
  H   H1740     1.0  0.77142  0.15017  0.51171  1.0000
  H   H1741     1.0  0.74195  0.04818  0.45540  1.0000
  H   H1742     1.0  0.74724  0.19338  0.46309  1.0000
  H   H1743     1.0  0.80861  0.22913  0.18809  1.0000
  C   C1028     1.0  0.97782  0.09629  0.42683  1.0000
  C   C1029     1.0  0.88393  0.05420  0.36590  1.0000
  H   H1744     1.0  0.97584  0.13122  0.85967  1.0000
  H   H1745     1.0  0.80849  0.23186  0.00051  1.0000
  N   N73       1.0  0.96752  0.16107  0.78637  1.0000
  H   H1746     1.0  0.77274  0.18782  0.37717  1.0000
  S   S306      1.0  0.98466  0.18911  0.98621  1.0000
  C   C1030     1.0  0.74247  0.21267  0.30051  1.0000
  H   H1747     1.0  0.97023  0.16390  0.85104  1.0000
  C   C1031     1.0  0.94843  0.06472  0.46018  1.0000
  C   C1032     1.0  0.97727  0.15330  0.75205  1.0000
  H   H1748     1.0  0.74696  0.17352  0.65413  1.0000
  H   H1749     1.0  0.85207  0.06562  0.34923  1.0000
  H   H1750     1.0  0.76302  0.17520  0.34244  1.0000
  C   C1033     1.0  0.97988  0.10073  0.46747  1.0000
  C   C1034     1.0  0.98144  0.03636  0.37496  1.0000
  C   C1035     1.0  0.75261  0.18110  0.19755  1.0000
  H   H1751     1.0  0.90766  0.18923  0.10323  1.0000
  H   H1752     1.0  0.87260  0.05477  0.38497  1.0000
  H   H1753     1.0  0.89357  0.03613  0.41056  1.0000
  C   C1036     1.0  0.74834  0.19671  0.36258  1.0000
  H   H1754     1.0  0.74359  0.14871  0.68707  1.0000
  C   C1037     1.0  0.81707  0.23629  0.16797  1.0000
  H   H1755     1.0  0.84776  0.04408  0.34503  1.0000
  H   H1756     1.0  0.88666  0.06711  0.35737  1.0000
  N   N74       1.0  0.81397  0.16476  0.44988  1.0000
  C   C1038     1.0  0.80403  0.17662  0.47574  1.0000
  C   C1039     1.0  0.80587  0.14852  0.45449  1.0000
  C   C1040     1.0  0.81282  0.17080  0.40619  1.0000
  C   C1041     1.0  0.83130  0.16422  0.46393  1.0000
  C   C1042     1.0  0.81004  0.19426  0.47728  1.0000
  C   C1043     1.0  0.80748  0.13964  0.49635  1.0000
  C   C1044     1.0  0.82293  0.16130  0.37391  1.0000
  C   C1045     1.0  0.84243  0.14961  0.45025  1.0000
  H   H1757     1.0  0.79126  0.17758  0.46524  1.0000
  H   H1758     1.0  0.80330  0.17226  0.50803  1.0000
  H   H1759     1.0  0.81029  0.13977  0.43145  1.0000
  H   H1760     1.0  0.79263  0.15001  0.44836  1.0000
  H   H1761     1.0  0.79989  0.17108  0.39664  1.0000
  H   H1762     1.0  0.81690  0.18354  0.40262  1.0000
  H   H1763     1.0  0.83747  0.17554  0.45360  1.0000
  H   H1764     1.0  0.83152  0.16427  0.49788  1.0000
  H   H1765     1.0  0.80219  0.20107  0.49955  1.0000
  H   H1766     1.0  0.82265  0.19474  0.48816  1.0000
  H   H1767     1.0  0.80882  0.20100  0.44777  1.0000
  H   H1768     1.0  0.80160  0.12765  0.49502  1.0000
  H   H1769     1.0  0.82030  0.13697  0.50430  1.0000
  H   H1770     1.0  0.80121  0.14636  0.52130  1.0000
  H   H1771     1.0  0.83611  0.16321  0.37670  1.0000
  H   H1772     1.0  0.81959  0.16610  0.34316  1.0000
  H   H1773     1.0  0.82062  0.14808  0.37409  1.0000
  H   H1774     1.0  0.85298  0.15408  0.43192  1.0000
  H   H1775     1.0  0.83651  0.14050  0.43195  1.0000
  H   H1776     1.0  0.84751  0.14299  0.47729  1.0000
  H   H1777     1.0  0.96443  0.13010  0.74616  1.0000
  H   H1778     1.0  0.74201  0.15728  0.19984  1.0000
  S   S307      1.0  0.75102  0.07841  0.41629  1.0000
  H   H1779     1.0  0.97339  0.15864  0.72211  1.0000
  S   S308      1.0  0.76650  0.19679  0.60308  1.0000
  C   C1046     1.0  0.89676  0.04561  0.30135  1.0000
  C   C1047     1.0  0.87731  0.02711  0.33877  1.0000
  C   C1048     1.0  0.89595  0.03758  0.25951  1.0000
  C   C1049     1.0  0.89158  0.01469  0.34695  1.0000
  H   H1780     1.0  0.86508  0.04549  0.27746  1.0000
  H   H1781     1.0  0.90769  0.04035  0.31631  1.0000
  H   H1782     1.0  0.89962  0.05866  0.29542  1.0000
  H   H1783     1.0  0.87046  0.02195  0.31348  1.0000
  H   H1784     1.0  0.88845  0.04519  0.23820  1.0000
  H   H1785     1.0  0.90841  0.03669  0.24569  1.0000
  H   H1786     1.0  0.89127  0.02506  0.26179  1.0000
  H   H1787     1.0  0.88777  0.00585  0.37132  1.0000
  H   H1788     1.0  0.90294  0.01991  0.35716  1.0000
  H   H1789     1.0  0.89432  0.00718  0.31978  1.0000
  N   N75       1.0  0.92786  0.18596  0.00958  1.0000
  C   C1050     1.0  0.93914  0.17219  0.99553  1.0000
  C   C1051     1.0  0.93834  0.20025  0.01770  1.0000
  C   C1052     1.0  0.91630  0.19019  0.97550  1.0000
  C   C1053     1.0  0.91881  0.17999  0.04727  1.0000
  C   C1054     1.0  0.93102  0.15706  0.97896  1.0000
  C   C1055     1.0  0.94987  0.19793  0.05395  1.0000
  C   C1056     1.0  0.90785  0.20729  0.97522  1.0000
  C   C1057     1.0  0.90801  0.19263  0.07024  1.0000
  H   H1790     1.0  0.94771  0.17657  0.97120  1.0000
  H   H1791     1.0  0.94690  0.16751  0.02067  1.0000
  H   H1792     1.0  0.93106  0.21157  0.02380  1.0000
  H   H1793     1.0  0.94587  0.20337  0.99002  1.0000
  H   H1794     1.0  0.92279  0.18937  0.94541  1.0000
  H   H1795     1.0  0.90651  0.18114  0.97481  1.0000
  H   H1796     1.0  0.91060  0.17005  0.03970  1.0000
  H   H1797     1.0  0.92724  0.17394  0.06955  1.0000
  H   H1798     1.0  0.92289  0.15118  0.00195  1.0000
  H   H1799     1.0  0.92437  0.15996  0.95056  1.0000
  H   H1800     1.0  0.94069  0.14780  0.97112  1.0000
  H   H1801     1.0  0.95863  0.18751  0.05018  1.0000
  H   H1802     1.0  0.95719  0.20901  0.05613  1.0000
  H   H1803     1.0  0.94307  0.19642  0.08330  1.0000
  H   H1804     1.0  0.89887  0.20802  0.95044  1.0000
  H   H1805     1.0  0.91662  0.21702  0.96801  1.0000
  H   H1806     1.0  0.90112  0.21003  0.00382  1.0000
  H   H1807     1.0  0.89537  0.19284  0.05902  1.0000
  H   H1808     1.0  0.89834  0.05676  0.41963  1.0000
  C   C1058     1.0  0.86789  0.05265  0.30461  1.0000
  H   H1809     1.0  0.86890  0.02680  0.36587  1.0000
  C   C1059     1.0  0.76466  0.18811  0.35055  1.0000
  C   C1060     1.0  0.75329  0.18694  0.48789  1.0000
  H   H1810     1.0  0.74603  0.18105  0.28732  1.0000
  H   H1811     1.0  0.78429  0.23408  0.83574  1.0000
  H   H1812     1.0  0.94277  0.00323  0.38878  1.0000
  H   H1813     1.0  0.87140  0.06485  0.29224  1.0000
  H   H1814     1.0  0.82795  0.23697  0.87379  1.0000
  H   H1815     1.0  0.90925  0.04626  0.38038  1.0000
  H   H1816     1.0  0.98928  0.02806  0.51579  1.0000
  H   H1817     1.0  0.95164  0.04846  0.41006  1.0000
  S   S309      1.0  0.97349  0.15351  0.06000  1.0000
  C   C1061     1.0  0.85158  0.05525  0.32817  1.0000
  H   H1818     1.0  0.97026  0.10759  0.48307  1.0000
  C   C1062     1.0  0.79558  0.22178  0.10951  1.0000
  H   H1819     1.0  0.95659  0.14088  0.86772  1.0000
  H   H1820     1.0  0.90435  0.22763  0.86231  1.0000
  Fe  Fe153     1.0  0.74918  0.22618  0.15528  1.0000
  H   H1821     1.0  0.81222  0.22995  0.84321  1.0000
  H   H1822     1.0  0.92552  0.16237  0.80775  1.0000
  H   H1823     1.0  0.80123  0.21296  0.13157  1.0000
  C   C1063     1.0  0.96533  0.13639  0.25752  1.0000
  C   C1064     1.0  0.95184  0.02571  0.49070  1.0000
  C   C1065     1.0  0.97005  0.17928  0.78346  1.0000
  C   C1066     1.0  0.97322  0.15472  0.82737  1.0000
  H   H1824     1.0  0.75069  0.20739  0.52816  1.0000
  Fe  Fe154     1.0  0.98665  0.16186  0.99960  1.0000
  C   C1067     1.0  0.79262  0.23891  0.12754  1.0000
  H   H1825     1.0  0.95524  0.07405  0.47605  1.0000
  H   H1826     1.0  0.95150  0.14932  0.12899  1.0000
  H   H1827     1.0  0.94612  0.16324  0.74935  1.0000
  C   C1068     1.0  0.97686  0.13458  0.74938  1.0000
  H   H1828     1.0  0.78365  0.21675  0.10225  1.0000
  H   H1829     1.0  0.74299  0.18970  0.38877  1.0000
  H   H1830     1.0  0.82434  0.22707  0.15028  1.0000
  C   C1069     1.0  0.75142  0.16470  0.21138  1.0000
  H   H1831     1.0  0.96450  0.18474  0.75538  1.0000
  H   H1832     1.0  0.96114  0.12445  0.24772  1.0000
  H   H1833     1.0  0.83610  0.23420  0.21273  1.0000
  H   H1834     1.0  0.98299  0.12842  0.77560  1.0000
  C   C1070     1.0  0.94968  0.15859  0.78020  1.0000
  H   H1835     1.0  0.94674  0.14550  0.78039  1.0000
  H   H1836     1.0  0.98595  0.13634  0.21706  1.0000
  C   C1071     1.0  0.98383  0.13785  0.25043  1.0000
  Fe  Fe155     1.0  0.75363  0.22099  0.61864  1.0000
  S   S310      1.0  0.75212  0.22717  0.68500  1.0000
  H   H1837     1.0  0.78370  0.23677  0.90601  1.0000
  H   H1838     1.0  0.93974  0.02879  0.47772  1.0000
  C   C1072     1.0  0.96536  0.02685  0.45757  1.0000
  H   H1839     1.0  0.96136  0.13043  0.82087  1.0000
  H   H1840     1.0  0.80994  0.23008  0.89861  1.0000
  H   H1841     1.0  0.84193  0.05871  0.30616  1.0000
  H   H1842     1.0  0.96380  0.18559  0.80937  1.0000
  H   H1843     1.0  0.94145  0.16423  0.84328  1.0000
  H   H1844     1.0  0.77105  0.19462  0.32526  1.0000
  C   C1073     1.0  0.96611  0.13848  0.84389  1.0000
  H   H1845     1.0  0.98397  0.13075  0.72181  1.0000
  C   C1074     1.0  0.81453  0.23676  0.87113  1.0000
  H   H1846     1.0  0.97862  0.12013  0.32663  1.0000
  S   S311      1.0  0.74884  0.22607  0.08670  1.0000
  H   H1847     1.0  0.98409  0.06291  0.47837  1.0000
  H   H1848     1.0  0.98798  0.19798  0.78965  1.0000
  H   H1849     1.0  0.75277  0.18925  0.71386  1.0000
  H   H1850     1.0  0.97501  0.01742  0.46465  1.0000
  H   H1851     1.0  0.95987  0.02221  0.42965  1.0000
  C   C1075     1.0  0.97924  0.05068  0.48625  1.0000
  H   H1852     1.0  0.74190  0.17177  0.73050  1.0000
  N   N76       1.0  0.97231  0.04341  0.44887  1.0000
  H   H1853     1.0  0.98613  0.09888  0.12433  1.0000
  H   H1854     1.0  0.97342  0.04572  0.35999  1.0000
  H   H1855     1.0  0.98675  0.15073  0.25667  1.0000
  H   H1856     1.0  0.97566  0.02433  0.37488  1.0000
  H   H1857     1.0  0.98600  0.14028  0.32651  1.0000
  C   C1076     1.0  0.98784  0.18469  0.78365  1.0000
  H   H1858     1.0  0.95172  0.01298  0.50331  1.0000
  H   H1859     1.0  0.74557  0.22364  0.31769  1.0000
  H   H1860     1.0  0.78120  0.23843  0.03136  1.0000
  C   C1077     1.0  0.93370  0.99019  0.27960  1.0000
  C   C1078     1.0  0.74078  0.18344  0.71285  1.0000
  C   C1079     1.0  0.98614  0.04126  0.41813  1.0000
  H   H1861     1.0  0.82228  0.23773  0.72328  1.0000
  C   C1080     1.0  0.98960  0.12740  0.31933  1.0000
  C   C1081     1.0  0.93679  0.23972  0.91458  1.0000
  C   C1082     1.0  0.80778  0.25456  0.86863  1.0000
  S   S312      1.0  0.77204  0.27090  0.69928  1.0000
  H   H1862     1.0  0.77956  0.27668  0.53383  1.0000
  H   H1863     1.0  0.90758  0.48349  0.26819  1.0000
  S   S313      1.0  0.76445  0.26986  0.04669  1.0000
  S   S314      1.0  0.75192  0.25346  0.15705  1.0000
  Fe  Fe156     1.0  0.85304  0.26863  0.82794  1.0000
  S   S315      1.0  0.83842  0.28413  0.87178  1.0000
  S   S316      1.0  0.84224  0.25665  0.77326  1.0000
  Fe  Fe157     1.0  0.88336  0.26645  0.88225  1.0000
  S   S317      1.0  0.87024  0.28155  0.93002  1.0000
  C   C1083     1.0  0.82890  0.42592  0.45874  1.0000
  Fe  Fe158     1.0  0.84827  0.26668  0.91980  1.0000
  S   S318      1.0  0.83365  0.25180  0.96673  1.0000
  Fe  Fe159     1.0  0.86164  0.29792  0.87787  1.0000
  S   S319      1.0  0.86166  0.32560  0.88796  1.0000
  H   H1864     1.0  0.93737  0.44081  0.90008  1.0000
  S   S320      1.0  0.87572  0.28357  0.83033  1.0000
  Fe  Fe160     1.0  0.80059  0.47042  0.43082  1.0000
  S   S321      1.0  0.79833  0.47998  0.49462  1.0000
  S   S322      1.0  0.79202  0.44427  0.41896  1.0000
  S   S323      1.0  0.86200  0.25050  0.87569  1.0000
  S   S324      1.0  0.84499  0.47138  0.53572  1.0000
  S   S325      1.0  0.82803  0.47254  0.42808  1.0000
  Fe  Fe161     1.0  0.90065  0.41196  0.79898  1.0000
  S   S326      1.0  0.90937  0.42533  0.74148  1.0000
  S   S327      1.0  0.89748  0.38420  0.79241  1.0000
  Fe  Fe162     1.0  0.90076  0.44381  0.84796  1.0000
  S   S328      1.0  0.90902  0.45874  0.79369  1.0000
  S   S329      1.0  0.89708  0.45380  0.91247  1.0000
  Fe  Fe163     1.0  0.89083  0.44529  0.75710  1.0000
  S   S330      1.0  0.87086  0.45926  0.71929  1.0000
  Fe  Fe164     1.0  0.92677  0.43761  0.78259  1.0000
  S   S331      1.0  0.95326  0.44385  0.76711  1.0000
  S   S332      1.0  0.88143  0.43141  0.81300  1.0000
  S   S333      1.0  0.91924  0.42317  0.83844  1.0000
  C   C1084     1.0  0.97148  0.43826  0.79328  1.0000
  H   H1865     1.0  0.79416  0.24843  0.80307  1.0000
  C   C1085     1.0  0.97155  0.42774  0.82756  1.0000
  H   H1866     1.0  0.78556  0.24621  0.10468  1.0000
  H   H1867     1.0  0.96031  0.42247  0.83838  1.0000
  C   C1086     1.0  0.85189  0.46814  0.58712  1.0000
  C   C1087     1.0  0.86603  0.45832  0.59409  1.0000
  C   C1088     1.0  0.87194  0.45533  0.63395  1.0000
  C   C1089     1.0  0.86385  0.46217  0.66784  1.0000
  C   C1090     1.0  0.84963  0.47186  0.66085  1.0000
  C   C1091     1.0  0.84368  0.47480  0.62103  1.0000
  H   H1868     1.0  0.87257  0.45306  0.56838  1.0000
  H   H1869     1.0  0.88288  0.44788  0.63839  1.0000
  H   H1870     1.0  0.79307  0.27945  0.83057  1.0000
  H   H1871     1.0  0.80103  0.44132  0.51822  1.0000
  C   C1092     1.0  0.81433  0.41405  0.56787  1.0000
  C   C1093     1.0  0.89920  0.47369  0.93210  1.0000
  C   C1094     1.0  0.89695  0.47599  0.97423  1.0000
  H   H1872     1.0  0.79466  0.39932  0.54554  1.0000
  C   C1095     1.0  0.87098  0.34192  0.85990  1.0000
  C   C1096     1.0  0.87825  0.33981  0.82132  1.0000
  C   C1097     1.0  0.88605  0.35295  0.80105  1.0000
  C   C1098     1.0  0.88666  0.36841  0.81880  1.0000
  C   C1099     1.0  0.87921  0.37056  0.85716  1.0000
  C   C1100     1.0  0.87144  0.35741  0.87748  1.0000
  H   H1873     1.0  0.87783  0.32809  0.80706  1.0000
  H   H1874     1.0  0.89166  0.35114  0.77130  1.0000
  H   H1875     1.0  0.87955  0.38232  0.87132  1.0000
  H   H1876     1.0  0.86583  0.35924  0.90722  1.0000
  C   C1101     1.0  0.75860  0.40870  0.40709  1.0000
  C   C1102     1.0  0.77313  0.41714  0.41237  1.0000
  C   C1103     1.0  0.77314  0.43437  0.41276  1.0000
  C   C1104     1.0  0.75836  0.44302  0.40749  1.0000
  H   H1877     1.0  0.75879  0.39550  0.40771  1.0000
  H   H1878     1.0  0.78443  0.41026  0.41650  1.0000
  H   H1879     1.0  0.75807  0.45623  0.40763  1.0000
  H   H1880     1.0  0.84230  0.42496  0.46136  1.0000
  C   C1105     1.0  0.78315  0.26441  0.02217  1.0000
  C   C1106     1.0  0.79283  0.27684  0.00548  1.0000
  C   C1107     1.0  0.80814  0.27314  0.98729  1.0000
  C   C1108     1.0  0.81394  0.25694  0.98588  1.0000
  H   H1881     1.0  0.78621  0.29872  0.88508  1.0000
  N   N77       1.0  0.75557  0.39110  0.27910  1.0000
  H   H1882     1.0  0.78858  0.28946  0.00726  1.0000
  H   H1883     1.0  0.81563  0.28286  0.97536  1.0000
  H   H1884     1.0  0.93240  0.48082  0.20639  1.0000
  H   H1885     1.0  0.78926  0.28654  0.15449  1.0000
  C   C1109     1.0  0.82260  0.26075  0.75355  1.0000
  C   C1110     1.0  0.81393  0.27541  0.76085  1.0000
  C   C1111     1.0  0.79853  0.27835  0.74374  1.0000
  C   C1112     1.0  0.79152  0.26662  0.71967  1.0000
  H   H1886     1.0  0.80272  0.28573  0.90066  1.0000
  H   H1887     1.0  0.81925  0.28459  0.77903  1.0000
  H   H1888     1.0  0.79202  0.28982  0.74911  1.0000
  H   H1889     1.0  0.75885  0.27675  0.55045  1.0000
  Fe  Fe165     1.0  0.75719  0.25286  0.66525  1.0000
  C   C1113     1.0  0.74385  0.41737  0.40131  1.0000
  H   H1890     1.0  0.78033  0.32293  0.67326  1.0000
  N   N78       1.0  0.80758  0.24766  0.13961  1.0000
  H   H1891     1.0  0.82022  0.45011  0.59459  1.0000
  H   H1892     1.0  0.76713  0.30613  0.67631  1.0000
  H   H1893     1.0  0.83499  0.47254  0.84975  1.0000
  H   H1894     1.0  0.79967  0.28032  0.10890  1.0000
  H   H1895     1.0  0.77048  0.36080  0.21276  1.0000
  H   H1896     1.0  0.84748  0.44641  0.87439  1.0000
  C   C1114     1.0  0.94980  0.46888  0.86848  1.0000
  C   C1115     1.0  0.76489  0.37180  0.33835  1.0000
  C   C1116     1.0  0.76885  0.28479  0.54101  1.0000
  H   H1897     1.0  0.75371  0.34281  0.56305  1.0000
  H   H1898     1.0  0.76971  0.38997  0.22269  1.0000
  C   C1117     1.0  0.79238  0.27581  0.13546  1.0000
  H   H1899     1.0  0.77236  0.36331  0.31934  1.0000
  H   H1900     1.0  0.82075  0.40189  0.56784  1.0000
  S   S334      1.0  0.76105  0.24629  0.59962  1.0000
  H   H1901     1.0  0.78629  0.30467  0.64794  1.0000
  Fe  Fe166     1.0  0.82560  0.48259  0.49148  1.0000
  C   C1118     1.0  0.77327  0.29641  0.57514  1.0000
  H   H1902     1.0  0.75367  0.28926  0.63603  1.0000
  C   C1119     1.0  0.81562  0.24906  0.72928  1.0000
  H   H1903     1.0  0.78236  0.28263  0.92130  1.0000
  H   H1904     1.0  0.79384  0.25952  0.18813  1.0000
  C   C1120     1.0  0.76310  0.25321  0.90863  1.0000
  H   H1905     1.0  0.77619  0.32721  0.59975  1.0000
  N   N79       1.0  0.91939  0.31823  0.87083  1.0000
  C   C1121     1.0  0.90491  0.31079  0.89263  1.0000
  C   C1122     1.0  0.91899  0.31326  0.82692  1.0000
  C   C1123     1.0  0.91766  0.33662  0.87380  1.0000
  C   C1124     1.0  0.93447  0.31178  0.89179  1.0000
  C   C1125     1.0  0.90096  0.31686  0.93607  1.0000
  C   C1126     1.0  0.92124  0.29479  0.81953  1.0000
  C   C1127     1.0  0.92650  0.34715  0.84108  1.0000
  C   C1128     1.0  0.95097  0.31647  0.87240  1.0000
  H   H1906     1.0  0.89373  0.31301  0.87467  1.0000
  H   H1907     1.0  0.90645  0.29727  0.89561  1.0000
  H   H1908     1.0  0.92842  0.31925  0.80770  1.0000
  H   H1909     1.0  0.90727  0.31748  0.81323  1.0000
  H   H1910     1.0  0.90467  0.34068  0.87199  1.0000
  H   H1911     1.0  0.92161  0.34064  0.90405  1.0000
  H   H1912     1.0  0.93462  0.31615  0.92355  1.0000
  H   H1913     1.0  0.93447  0.29823  0.89607  1.0000
  H   H1914     1.0  0.89037  0.31021  0.94877  1.0000
  H   H1915     1.0  0.91111  0.31439  0.95710  1.0000
  H   H1916     1.0  0.89725  0.33001  0.93610  1.0000
  H   H1917     1.0  0.93320  0.28987  0.82988  1.0000
  H   H1918     1.0  0.91142  0.28763  0.83410  1.0000
  H   H1919     1.0  0.92076  0.29270  0.78630  1.0000
  H   H1920     1.0  0.92087  0.34626  0.81085  1.0000
  H   H1921     1.0  0.93967  0.34426  0.83847  1.0000
  H   H1922     1.0  0.92505  0.36022  0.84929  1.0000
  H   H1923     1.0  0.95490  0.32828  0.88411  1.0000
  H   H1924     1.0  0.95108  0.31706  0.83876  1.0000
  H   H1925     1.0  0.96026  0.30682  0.88023  1.0000
  N   N80       1.0  0.82153  0.42520  0.53556  1.0000
  C   C1129     1.0  0.83909  0.42782  0.54514  1.0000
  C   C1130     1.0  0.82001  0.41740  0.49481  1.0000
  C   C1131     1.0  0.85048  0.41248  0.54515  1.0000
  C   C1132     1.0  0.78869  0.24813  0.01941  1.0000
  H   H1926     1.0  0.84450  0.43695  0.52356  1.0000
  C   C1133     1.0  0.81274  0.44167  0.53442  1.0000
  H   H1927     1.0  0.82434  0.40439  0.49599  1.0000
  H   H1928     1.0  0.80698  0.41704  0.48638  1.0000
  H   H1929     1.0  0.84756  0.40393  0.57081  1.0000
  H   H1930     1.0  0.85053  0.40605  0.51591  1.0000
  H   H1931     1.0  0.86312  0.41635  0.54970  1.0000
  C   C1134     1.0  0.76878  0.41882  0.26308  1.0000
  H   H1932     1.0  0.75842  0.42356  0.24489  1.0000
  C   C1135     1.0  0.85437  0.45779  0.87629  1.0000
  H   H1933     1.0  0.81635  0.41848  0.59910  1.0000
  H   H1934     1.0  0.74099  0.32111  0.21284  1.0000
  H   H1935     1.0  0.78069  0.27132  0.12502  1.0000
  C   C1136     1.0  0.76711  0.31993  0.61749  1.0000
  C   C1137     1.0  0.97213  0.45822  0.91274  1.0000
  H   H1936     1.0  0.75982  0.35655  0.25948  1.0000
  C   C1138     1.0  0.80010  0.25190  0.71271  1.0000
  H   H1937     1.0  0.77317  0.27756  0.85021  1.0000
  C   C1139     1.0  0.74428  0.33358  0.55965  1.0000
  H   H1938     1.0  0.96867  0.48628  0.84420  1.0000
  H   H1939     1.0  0.83094  0.27154  0.12836  1.0000
  C   C1140     1.0  0.75075  0.38016  0.31470  1.0000
  H   H1940     1.0  0.78378  0.30353  0.56336  1.0000
  H   H1941     1.0  0.94834  0.46131  0.97198  1.0000
  H   H1942     1.0  0.84011  0.43323  0.57565  1.0000
  H   H1943     1.0  0.77527  0.40188  0.31076  1.0000
  H   H1944     1.0  0.75803  0.25215  0.82944  1.0000
  H   H1945     1.0  0.76913  0.26451  0.79234  1.0000
  H   H1946     1.0  0.76150  0.31834  0.52900  1.0000
  H   H1947     1.0  0.82579  0.41998  0.43002  1.0000
  H   H1948     1.0  0.95138  0.45665  0.85457  1.0000
  H   H1949     1.0  0.76557  0.29140  0.51231  1.0000
  H   H1950     1.0  0.83479  0.26862  0.07620  1.0000
  H   H1951     1.0  0.79970  0.44277  0.59394  1.0000
  S   S335      1.0  0.91010  0.25978  0.89674  1.0000
  H   H1952     1.0  0.93639  0.47135  0.86999  1.0000
  H   H1953     1.0  0.95096  0.43429  0.94053  1.0000
  H   H1954     1.0  0.98645  0.45299  0.75309  1.0000
  H   H1955     1.0  0.75788  0.32899  0.62883  1.0000
  H   H1956     1.0  0.90541  0.48552  0.87493  1.0000
  C   C1141     1.0  0.78162  0.25023  0.90312  1.0000
  H   H1957     1.0  0.78904  0.42060  0.54865  1.0000
  H   H1958     1.0  0.85258  0.46221  0.90774  1.0000
  H   H1959     1.0  0.77870  0.41426  0.24247  1.0000
  H   H1960     1.0  0.81430  0.26061  0.84249  1.0000
  H   H1961     1.0  0.93245  0.46741  0.93875  1.0000
  C   C1142     1.0  0.77565  0.31276  0.65564  1.0000
  H   H1962     1.0  0.74160  0.28906  0.59240  1.0000
  H   H1963     1.0  0.77917  0.37987  0.26454  1.0000
  H   H1964     1.0  0.97026  0.44580  0.90130  1.0000
  H   H1965     1.0  0.98606  0.41589  0.87443  1.0000
  H   H1966     1.0  0.91063  0.48105  0.19765  1.0000
  H   H1967     1.0  0.80443  0.46214  0.57155  1.0000
  C   C1143     1.0  0.79612  0.41048  0.56346  1.0000
  H   H1968     1.0  0.75618  0.41177  0.31909  1.0000
  H   H1969     1.0  0.79039  0.40869  0.59417  1.0000
  H   H1970     1.0  0.82498  0.43891  0.45544  1.0000
  H   H1971     1.0  0.74295  0.30870  0.54008  1.0000
  C   C1144     1.0  0.80917  0.44940  0.57625  1.0000
  C   C1145     1.0  0.76715  0.38224  0.25033  1.0000
  H   H1972     1.0  0.96504  0.48423  0.95736  1.0000
  C   C1146     1.0  0.83247  0.26191  0.10556  1.0000
  C   C1147     1.0  0.76126  0.36587  0.23467  1.0000
  C   C1148     1.0  0.76386  0.40569  0.29519  1.0000
  H   H1973     1.0  0.77803  0.28837  0.60034  1.0000
  H   H1974     1.0  0.80964  0.25762  0.07779  1.0000
  N   N81       1.0  0.95660  0.46850  0.91088  1.0000
  C   C1149     1.0  0.78963  0.28587  0.89357  1.0000
  N   N82       1.0  0.75970  0.30774  0.59033  1.0000
  C   C1150     1.0  0.76853  0.25235  0.80791  1.0000
  H   H1975     1.0  0.93005  0.43915  0.95145  1.0000
  H   H1976     1.0  0.81985  0.45062  0.51596  1.0000
  H   H1977     1.0  0.77279  0.38072  0.35215  1.0000
  C   C1151     1.0  0.80411  0.24444  0.00173  1.0000
  C   C1152     1.0  0.94068  0.44270  0.93205  1.0000
  C   C1153     1.0  0.80180  0.26286  0.16141  1.0000
  C   C1154     1.0  0.78604  0.27486  0.85767  1.0000
  C   C1155     1.0  0.75217  0.31640  0.55368  1.0000
  H   H1978     1.0  0.89398  0.46567  0.99397  1.0000
  H   H1979     1.0  0.83281  0.48235  0.61658  1.0000
  H   H1980     1.0  0.81196  0.26936  0.17447  1.0000
  H   H1981     1.0  0.78748  0.25484  0.93051  1.0000
  H   H1982     1.0  0.77357  0.42939  0.27912  1.0000
  H   H1983     1.0  0.86732  0.45434  0.87114  1.0000
  H   H1984     1.0  0.75844  0.26476  0.89455  1.0000
  C   C1156     1.0  0.98630  0.44487  0.77961  1.0000
  C   C1157     1.0  0.94439  0.46069  0.93982  1.0000
  H   H1985     1.0  0.87330  0.47498  0.79476  1.0000
  H   H1986     1.0  0.95801  0.47589  0.80711  1.0000
  H   H1987     1.0  0.79488  0.24277  0.69418  1.0000
  H   H1988     1.0  0.74966  0.36734  0.21832  1.0000
  C   C1158     1.0  0.95963  0.48527  0.92656  1.0000
  C   C1159     1.0  0.84822  0.47024  0.84369  1.0000
  H   H1989     1.0  0.94123  0.25029  0.92936  1.0000
  H   H1990     1.0  0.93536  0.48778  0.27044  1.0000
  H   H1991     1.0  0.81199  0.26042  0.89644  1.0000
  H   H1992     1.0  0.75639  0.24283  0.89691  1.0000
  H   H1993     1.0  0.74363  0.40178  0.22589  1.0000
  H   H1994     1.0  0.84314  0.47723  0.68645  1.0000
  H   H1995     1.0  0.75975  0.36432  0.36391  1.0000
  H   H1996     1.0  0.84901  0.46371  0.81430  1.0000
  C   C1160     1.0  0.78478  0.24737  0.82797  1.0000
  H   H1997     1.0  0.82193  0.25068  0.22178  1.0000
  H   H1998     1.0  0.88126  0.47493  0.84399  1.0000
  H   H1999     1.0  0.97595  0.45643  0.94494  1.0000
  C   C1161     1.0  0.74748  0.29742  0.61321  1.0000
  N   N83       1.0  0.78959  0.25681  0.86453  1.0000
  Fe  Fe167     1.0  0.74944  0.25336  0.08891  1.0000
  C   C1162     1.0  0.98691  0.46454  0.88823  1.0000
  H   H2000     1.0  0.76009  0.25430  0.94170  1.0000
  C   C1163     1.0  0.74389  0.43458  0.40160  1.0000
  C   C1164     1.0  0.98620  0.42399  0.84789  1.0000
  H   H2001     1.0  0.84033  0.48103  0.76559  1.0000
  C   C1165     1.0  0.95665  0.48159  0.83742  1.0000
  H   H2002     1.0  0.98493  0.46425  0.85502  1.0000
  H   H2003     1.0  0.86709  0.48577  0.90087  1.0000
  C   C1166     1.0  0.87388  0.48252  0.82231  1.0000
  H   H2004     1.0  0.83739  0.25233  0.18180  1.0000
  C   C1167     1.0  0.90313  0.48715  0.90711  1.0000
  H   H2005     1.0  0.84336  0.25404  0.11239  1.0000
  H   H2006     1.0  0.76617  0.24356  0.78365  1.0000
  C   C1168     1.0  0.81735  0.25155  0.10135  1.0000
  C   C1169     1.0  0.92202  0.48780  0.19291  1.0000
  N   N84       1.0  0.85713  0.48605  0.84015  1.0000
  H   H2007     1.0  0.83563  0.48590  0.91043  1.0000
  C   C1170     1.0  0.92151  0.24081  0.89602  1.0000
  H   H2008     1.0  0.92441  0.48845  0.15945  1.0000
  C   C1171     1.0  0.82876  0.24407  0.19735  1.0000
  H   H2009     1.0  0.74333  0.38713  0.33742  1.0000
  H   H2010     1.0  0.74272  0.37037  0.30498  1.0000
  C   C1172     1.0  0.74047  0.39625  0.25627  1.0000
  H   H2011     1.0  0.82185  0.24015  0.08658  1.0000
  H   H2012     1.0  0.92773  0.51470  0.33133  1.0000
  H   H2013     1.0  0.87233  0.65429  0.09776  1.0000
  H   H2014     1.0  0.80830  0.55868  0.49237  1.0000
  H   H2015     1.0  0.86685  0.65950  0.18953  1.0000
  H   H2016     1.0  0.88374  0.64896  0.16392  1.0000
  S   S336      1.0  0.83946  0.51471  0.35920  1.0000
  Fe  Fe168     1.0  0.92882  0.53981  0.12166  1.0000
  S   S337      1.0  0.91209  0.51955  0.10690  1.0000
  S   S338      1.0  0.95352  0.52988  0.14536  1.0000
  Fe  Fe169     1.0  0.90264  0.56625  0.09853  1.0000
  S   S339      1.0  0.88428  0.54751  0.08337  1.0000
  S   S340      1.0  0.89825  0.59433  0.09986  1.0000
  Fe  Fe170     1.0  0.89228  0.53381  0.14081  1.0000
  S   S341      1.0  0.87563  0.51806  0.18285  1.0000
  Fe  Fe171     1.0  0.90529  0.53428  0.05114  1.0000
  S   S342      1.0  0.90458  0.52493  0.98560  1.0000
  S   S343      1.0  0.90932  0.55327  0.15836  1.0000
  S   S344      1.0  0.92330  0.55382  0.06332  1.0000
  Fe  Fe172     1.0  0.87146  0.67845  0.98803  1.0000
  S   S345      1.0  0.87641  0.69004  0.04725  1.0000
  S   S346      1.0  0.87683  0.65159  0.97262  1.0000
  Fe  Fe173     1.0  0.85260  0.70923  0.95586  1.0000
  S   S347      1.0  0.85627  0.72289  0.01360  1.0000
  S   S348      1.0  0.83855  0.72266  0.90504  1.0000
  Fe  Fe174     1.0  0.88222  0.71307  0.01047  1.0000
  H   H2017     1.0  0.79565  0.73609  0.80644  1.0000
  Fe  Fe175     1.0  0.85045  0.69917  0.04548  1.0000
  S   S349      1.0  0.83367  0.69416  0.09926  1.0000
  S   S350      1.0  0.87906  0.70069  0.95044  1.0000
  S   S351      1.0  0.84493  0.68632  0.98844  1.0000
  C   C1173     1.0  0.73996  0.56291  0.44150  1.0000
  S   S352      1.0  0.82319  0.50827  0.46554  1.0000
  Fe  Fe176     1.0  0.82398  0.49810  0.40224  1.0000
  Fe  Fe177     1.0  0.79606  0.50506  0.46385  1.0000
  S   S353      1.0  0.78028  0.52665  0.48833  1.0000
  H   H2018     1.0  0.77562  0.71628  0.91864  1.0000
  C   C1174     1.0  0.75630  0.53741  0.43356  1.0000
  C   C1175     1.0  0.76430  0.54002  0.46988  1.0000
  C   C1176     1.0  0.75980  0.55401  0.49216  1.0000
  H   H2019     1.0  0.90723  0.51309  0.90425  1.0000
  H   H2020     1.0  0.75947  0.52669  0.41616  1.0000
  H   H2021     1.0  0.76582  0.55618  0.52037  1.0000
  H   H2022     1.0  0.76812  0.73673  0.91274  1.0000
  C   C1177     1.0  0.86544  0.51764  0.23179  1.0000
  C   C1178     1.0  0.86635  0.53026  0.25953  1.0000
  C   C1179     1.0  0.85848  0.52902  0.29826  1.0000
  C   C1180     1.0  0.84942  0.51526  0.30995  1.0000
  C   C1181     1.0  0.84855  0.50262  0.28225  1.0000
  C   C1182     1.0  0.85651  0.50382  0.24361  1.0000
  H   H2023     1.0  0.87318  0.54095  0.25122  1.0000
  H   H2024     1.0  0.85954  0.53875  0.31953  1.0000
  H   H2025     1.0  0.82949  0.55154  0.39180  1.0000
  H   H2026     1.0  0.94431  0.50638  0.25809  1.0000
  C   C1183     1.0  0.89353  0.60976  0.06192  1.0000
  C   C1184     1.0  0.89641  0.62620  0.07023  1.0000
  C   C1185     1.0  0.89178  0.63902  0.04283  1.0000
  C   C1186     1.0  0.88388  0.63567  0.00687  1.0000
  C   C1187     1.0  0.88133  0.61921  0.99799  1.0000
  C   C1188     1.0  0.88610  0.60635  0.02527  1.0000
  H   H2027     1.0  0.90232  0.62903  0.09815  1.0000
  H   H2028     1.0  0.89436  0.65152  0.04952  1.0000
  H   H2029     1.0  0.87543  0.61637  0.97010  1.0000
  H   H2030     1.0  0.88378  0.59381  0.01827  1.0000
  C   C1189     1.0  0.90224  0.50503  0.96616  1.0000
  H   H2031     1.0  0.80962  0.69509  0.02016  1.0000
  C   C1190     1.0  0.86345  0.65558  0.12356  1.0000
  H   H2032     1.0  0.82539  0.57290  0.38385  1.0000
  N   N85       1.0  0.91794  0.50707  0.25421  1.0000
  H   H2033     1.0  0.84170  0.49194  0.29051  1.0000
  H   H2034     1.0  0.78440  0.52875  0.33977  1.0000
  C   C1191     1.0  0.97466  0.55562  0.15449  1.0000
  C   C1192     1.0  0.97232  0.53878  0.15735  1.0000
  H   H2035     1.0  0.85836  0.72627  0.11001  1.0000
  H   H2036     1.0  0.96480  0.56377  0.14487  1.0000
  H   H2037     1.0  0.74199  0.68043  0.65103  1.0000
  N   N86       1.0  0.78607  0.72159  0.00278  1.0000
  H   H2038     1.0  0.90316  0.52904  0.24357  1.0000
  C   C1193     1.0  0.78096  0.72345  0.04703  1.0000
  C   C1194     1.0  0.90383  0.49668  0.26755  1.0000
  C   C1195     1.0  0.87024  0.72364  0.12407  1.0000
  C   C1196     1.0  0.79200  0.71249  0.83469  1.0000
  C   C1197     1.0  0.80017  0.72709  0.82845  1.0000
  C   C1198     1.0  0.92776  0.53673  0.25151  1.0000
  C   C1199     1.0  0.82045  0.71840  0.87900  1.0000
  C   C1200     1.0  0.81214  0.70391  0.88578  1.0000
  S   S354      1.0  0.77420  0.70801  0.80764  1.0000
  H   H2039     1.0  0.93852  0.53411  0.27057  1.0000
  H   H2040     1.0  0.79083  0.70134  0.96214  1.0000
  H   H2041     1.0  0.81655  0.69498  0.90798  1.0000
  H   H2042     1.0  0.77067  0.55602  0.36493  1.0000
  C   C1201     1.0  0.79814  0.70091  0.86343  1.0000
  H   H2043     1.0  0.88016  0.67036  0.15573  1.0000
  C   C1202     1.0  0.82235  0.72617  0.10135  1.0000
  C   C1203     1.0  0.82097  0.71024  0.11712  1.0000
  C   C1204     1.0  0.80932  0.70702  0.14790  1.0000
  C   C1205     1.0  0.79919  0.71969  0.16318  1.0000
  S   S355      1.0  0.75292  0.72259  0.19570  1.0000
  H   H2044     1.0  0.79775  0.54275  0.31480  1.0000
  H   H2045     1.0  0.80818  0.69472  0.16021  1.0000
  H   H2046     1.0  0.79035  0.71715  0.18727  1.0000
  C   C1206     1.0  0.84761  0.49786  0.81319  1.0000
  C   C1207     1.0  0.78618  0.70359  0.99369  1.0000
  H   H2047     1.0  0.88599  0.49103  0.31517  1.0000
  C   C1208     1.0  0.74777  0.56539  0.47810  1.0000
  H   H2048     1.0  0.78872  0.56096  0.44062  1.0000
  H   H2049     1.0  0.83994  0.56110  0.32648  1.0000
  H   H2050     1.0  0.79525  0.56781  0.32726  1.0000
  H   H2051     1.0  0.76142  0.72502  0.98201  1.0000
  H   H2052     1.0  0.86493  0.50545  0.87822  1.0000
  H   H2053     1.0  0.94780  0.49199  0.83309  1.0000
  C   C1209     1.0  0.77489  0.56860  0.36845  1.0000
  H   H2054     1.0  0.85821  0.49227  0.75212  1.0000
  H   H2055     1.0  0.74810  0.69650  0.50653  1.0000
  H   H2056     1.0  0.85279  0.51024  0.81333  1.0000
  C   C1210     1.0  0.93498  0.50410  0.32007  1.0000
  H   H2057     1.0  0.82064  0.56788  0.30917  1.0000
  C   C1211     1.0  0.81434  0.72995  0.85026  1.0000
  S   S356      1.0  0.90354  0.72735  0.03486  1.0000
  H   H2058     1.0  0.79664  0.58259  0.36446  1.0000
  H   H2059     1.0  0.75166  0.66698  0.44967  1.0000
  H   H2060     1.0  0.74468  0.57616  0.49542  1.0000
  C   C1212     1.0  0.82162  0.56058  0.37480  1.0000
  H   H2061     1.0  0.76830  0.57654  0.34593  1.0000
  Fe  Fe178     1.0  0.74896  0.72177  0.26371  1.0000
  H   H2062     1.0  0.78860  0.53805  0.40223  1.0000
  H   H2063     1.0  0.75393  0.66682  0.34051  1.0000
  H   H2064     1.0  0.88915  0.51221  0.30952  1.0000
  H   H2065     1.0  0.93134  0.51169  0.19732  1.0000
  C   C1213     1.0  0.84292  0.49693  0.90555  1.0000
  H   H2066     1.0  0.82525  0.54621  0.31915  1.0000
  S   S357      1.0  0.75950  0.72373  0.69489  1.0000
  C   C1214     1.0  0.77369  0.73002  0.97558  1.0000
  C   C1215     1.0  0.98537  0.52845  0.17012  1.0000
  C   C1216     1.0  0.89860  0.49151  0.99125  1.0000
  C   C1217     1.0  0.80080  0.73567  0.14803  1.0000
  H   H2067     1.0  0.80264  0.57686  0.43234  1.0000
  C   C1218     1.0  0.87398  0.65858  0.16072  1.0000
  C   C1219     1.0  0.74421  0.54875  0.41962  1.0000
  C   C1220     1.0  0.90429  0.50275  0.92393  1.0000
  H   H2068     1.0  0.93756  0.49743  0.90160  1.0000
  H   H2069     1.0  0.79190  0.68959  0.86855  1.0000
  H   H2070     1.0  0.80554  0.52369  0.33408  1.0000
  H   H2071     1.0  0.83113  0.72872  0.07731  1.0000
  H   H2072     1.0  0.80930  0.53255  0.39729  1.0000
  N   N87       1.0  0.86035  0.66910  0.84782  1.0000
  C   C1221     1.0  0.86677  0.65167  0.85291  1.0000
  C   C1222     1.0  0.85096  0.67318  0.88644  1.0000
  C   C1223     1.0  0.87486  0.67986  0.84356  1.0000
  C   C1224     1.0  0.85002  0.67045  0.81037  1.0000
  C   C1225     1.0  0.87825  0.64527  0.81857  1.0000
  C   C1226     1.0  0.83672  0.66196  0.89759  1.0000
  C   C1227     1.0  0.87133  0.69837  0.83893  1.0000
  C   C1228     1.0  0.83706  0.68461  0.80857  1.0000
  H   H2073     1.0  0.87340  0.64996  0.88207  1.0000
  H   H2074     1.0  0.85662  0.64301  0.85503  1.0000
  H   H2075     1.0  0.84594  0.68588  0.88594  1.0000
  H   H2076     1.0  0.85927  0.67264  0.91272  1.0000
  H   H2077     1.0  0.88291  0.67786  0.87025  1.0000
  H   H2078     1.0  0.88241  0.67671  0.81618  1.0000
  H   H2079     1.0  0.85786  0.67148  0.78234  1.0000
  H   H2080     1.0  0.84316  0.65905  0.80732  1.0000
  H   H2081     1.0  0.81156  0.72188  0.01745  1.0000
  C   C1229     1.0  0.91393  0.52488  0.26154  1.0000
  H   H2082     1.0  0.87317  0.64750  0.78790  1.0000
  H   H2083     1.0  0.84126  0.65004  0.91051  1.0000
  H   H2084     1.0  0.82894  0.66767  0.92171  1.0000
  H   H2085     1.0  0.82891  0.65990  0.87132  1.0000
  H   H2086     1.0  0.88304  0.70475  0.83897  1.0000
  H   H2087     1.0  0.86390  0.70336  0.86448  1.0000
  H   H2088     1.0  0.86567  0.70160  0.80937  1.0000
  H   H2089     1.0  0.83584  0.68897  0.77642  1.0000
  H   H2090     1.0  0.83970  0.69547  0.82618  1.0000
  H   H2091     1.0  0.82485  0.68020  0.81777  1.0000
  H   H2092     1.0  0.89393  0.49795  0.24500  1.0000
  H   H2093     1.0  0.93155  0.53672  0.21893  1.0000
  H   H2094     1.0  0.82530  0.55892  0.45756  1.0000
  Fe  Fe179     1.0  0.75797  0.72349  0.76393  1.0000
  H   H2095     1.0  0.77122  0.71477  0.05569  1.0000
  H   H2096     1.0  0.77117  0.57311  0.39896  1.0000
  C   C1230     1.0  0.81255  0.55508  0.46139  1.0000
  H   H2097     1.0  0.81205  0.54163  0.46081  1.0000
  S   S358      1.0  0.79665  0.49545  0.40003  1.0000
  C   C1231     1.0  0.79671  0.53391  0.34050  1.0000
  C   C1232     1.0  0.82675  0.55880  0.32965  1.0000
  C   C1233     1.0  0.79967  0.54059  0.38333  1.0000
  H   H2098     1.0  0.98373  0.51541  0.17265  1.0000
  C   C1234     1.0  0.74454  0.66393  0.47779  1.0000
  H   H2099     1.0  0.88010  0.63184  0.82285  1.0000
  H   H2100     1.0  0.91019  0.52713  0.29354  1.0000
  H   H2101     1.0  0.79124  0.72016  0.06735  1.0000
  N   N88       1.0  0.85240  0.64118  0.12609  1.0000
  C   C1235     1.0  0.84931  0.63591  0.08324  1.0000
  C   C1236     1.0  0.86066  0.62689  0.14804  1.0000
  C   C1237     1.0  0.83621  0.64600  0.14545  1.0000
  C   C1238     1.0  0.84392  0.64956  0.05262  1.0000
  C   C1239     1.0  0.85111  0.61100  0.15099  1.0000
  C   C1240     1.0  0.83612  0.65088  0.19045  1.0000
  H   H2102     1.0  0.86038  0.62978  0.06981  1.0000
  H   H2103     1.0  0.83973  0.62664  0.08312  1.0000
  H   H2104     1.0  0.86380  0.62978  0.17960  1.0000
  H   H2105     1.0  0.87259  0.62381  0.13279  1.0000
  H   H2106     1.0  0.85639  0.66713  0.11686  1.0000
  H   H2107     1.0  0.83073  0.65679  0.12893  1.0000
  H   H2108     1.0  0.82705  0.63646  0.14202  1.0000
  H   H2109     1.0  0.85342  0.65869  0.04734  1.0000
  H   H2110     1.0  0.84197  0.64404  0.02264  1.0000
  H   H2111     1.0  0.83233  0.65581  0.06199  1.0000
  H   H2112     1.0  0.83903  0.61283  0.16611  1.0000
  H   H2113     1.0  0.84987  0.60553  0.12070  1.0000
  H   H2114     1.0  0.85809  0.60181  0.16966  1.0000
  H   H2115     1.0  0.83879  0.66403  0.19302  1.0000
  H   H2116     1.0  0.84452  0.64336  0.20943  1.0000
  H   H2117     1.0  0.82388  0.64880  0.20425  1.0000
  N   N89       1.0  0.80393  0.55831  0.38598  1.0000
  C   C1241     1.0  0.80130  0.56343  0.42966  1.0000
  C   C1242     1.0  0.79335  0.56966  0.36024  1.0000
  H   H2118     1.0  0.74620  0.69341  0.43631  1.0000
  H   H2119     1.0  0.90995  0.51141  0.19239  1.0000
  H   H2120     1.0  0.92336  0.54939  0.25798  1.0000
  H   H2121     1.0  0.85571  0.49393  0.22261  1.0000
  H   H2122     1.0  0.89695  0.49302  0.02375  1.0000
  C   C1243     1.0  0.93346  0.50117  0.27407  1.0000
  S   S359      1.0  0.75407  0.69838  0.30044  1.0000
  H   H2123     1.0  0.88637  0.50514  0.83716  1.0000
  H   H2124     1.0  0.87879  0.71895  0.10013  1.0000
  H   H2125     1.0  0.84596  0.50126  0.93619  1.0000
  H   H2126     1.0  0.77357  0.69898  0.99508  1.0000
  H   H2127     1.0  0.89048  0.65053  0.82001  1.0000
  H   H2128     1.0  0.98584  0.54067  0.04754  1.0000
  C   C1244     1.0  0.92031  0.50539  0.20870  1.0000
  H   H2129     1.0  0.75123  0.66733  0.50506  1.0000
  C   C1245     1.0  0.74153  0.67166  0.34054  1.0000
  H   H2130     1.0  0.78934  0.73320  0.92031  1.0000
  H   H2131     1.0  0.93652  0.49328  0.95615  1.0000
  H   H2132     1.0  0.86813  0.71373  0.14714  1.0000
  H   H2133     1.0  0.74334  0.65398  0.61514  1.0000
  H   H2134     1.0  0.83542  0.50680  0.89082  1.0000
  H   H2135     1.0  0.94844  0.50942  0.93588  1.0000
  H   H2136     1.0  0.74384  0.65043  0.47954  1.0000
  C   C1246     1.0  0.81236  0.73887  0.11699  1.0000
  H   H2137     1.0  0.87835  0.50533  0.78628  1.0000
  H   H2138     1.0  0.94780  0.50679  0.32654  1.0000
  C   C1247     1.0  0.89556  0.50012  0.30926  1.0000
  H   H2139     1.0  0.83490  0.49950  0.82505  1.0000
  H   H2140     1.0  0.83865  0.50223  0.75182  1.0000
  H   H2141     1.0  0.89602  0.49334  0.79822  1.0000
  H   H2142     1.0  0.79219  0.69246  0.05413  1.0000
  C   C1248     1.0  0.85890  0.49352  0.88126  1.0000
  H   H2143     1.0  0.98869  0.52274  0.07822  1.0000
  H   H2144     1.0  0.96870  0.49185  0.90761  1.0000
  H   H2145     1.0  0.89081  0.73658  0.14173  1.0000
  H   H2146     1.0  0.79566  0.67944  0.01193  1.0000
  C   C1249     1.0  0.88399  0.49759  0.81059  1.0000
  H   H2147     1.0  0.93165  0.49304  0.33830  1.0000
  H   H2148     1.0  0.90398  0.49891  0.33487  1.0000
  C   C1250     1.0  0.94455  0.49685  0.92999  1.0000
  C   C1251     1.0  0.84625  0.49290  0.76834  1.0000
  C   C1252     1.0  0.79656  0.69223  0.02191  1.0000
  H   H2149     1.0  0.87489  0.73746  0.17808  1.0000
  C   C1253     1.0  0.87739  0.73849  0.14464  1.0000
  C   C1254     1.0  0.77713  0.72885  0.92937  1.0000
  C   C1255     1.0  0.98980  0.56199  0.16442  1.0000
  H   H2150     1.0  0.80823  0.72304  0.96524  1.0000
  C   C1256     1.0  0.80308  0.72746  0.99481  1.0000
  H   H2151     1.0  0.84556  0.73914  0.17423  1.0000
  C   C1257     1.0  0.95602  0.92340  0.23572  1.0000
  C   C1258     1.0  0.77885  0.79432  0.60910  1.0000
  C   C1259     1.0  0.76038  0.77733  0.43141  1.0000
  H   H2152     1.0  0.97734  0.96142  0.86498  1.0000
  C   C1260     1.0  0.96608  0.95613  0.20133  1.0000
  H   H2153     1.0  0.86131  0.77526  0.05864  1.0000
  N   N90       1.0  0.87227  0.75507  0.12751  1.0000
  S   S360      1.0  0.97058  0.82836  0.00345  1.0000
  S   S361      1.0  0.96540  0.84974  0.10673  1.0000
  Fe  Fe180     1.0  0.97002  0.80093  0.01403  1.0000
  S   S362      1.0  0.94917  0.78752  0.98424  1.0000
  S   S363      1.0  0.97689  0.80229  0.07996  1.0000
  Fe  Fe181     1.0  0.94729  0.89757  0.32742  1.0000
  S   S364      1.0  0.92453  0.91134  0.30939  1.0000
  S   S365      1.0  0.96181  0.87884  0.28771  1.0000
  Fe  Fe182     1.0  0.94629  0.91329  0.41243  1.0000
  S   S366      1.0  0.92283  0.92775  0.39884  1.0000
  S   S367      1.0  0.95714  0.91729  0.47545  1.0000
  Fe  Fe183     1.0  0.91417  0.90454  0.37177  1.0000
  S   S368      1.0  0.88888  0.89321  0.36779  1.0000
  Fe  Fe184     1.0  0.93482  0.93345  0.33793  1.0000
  S   S369      1.0  0.93346  0.95711  0.29836  1.0000
  S   S370      1.0  0.93675  0.88981  0.38905  1.0000
  S   S371      1.0  0.95848  0.92004  0.35233  1.0000
  Fe  Fe185     1.0  0.76669  0.87768  0.44350  1.0000
  S   S372      1.0  0.77875  0.87463  0.50429  1.0000
  H   H2154     1.0  0.93666  0.80301  0.80700  1.0000
  Fe  Fe186     1.0  0.78182  0.84489  0.41473  1.0000
  S   S373      1.0  0.79496  0.83985  0.47321  1.0000
  S   S374      1.0  0.78633  0.82660  0.36487  1.0000
  Fe  Fe187     1.0  0.77143  0.84813  0.50350  1.0000
  S   S375      1.0  0.75673  0.83414  0.55287  1.0000
  Fe  Fe188     1.0  0.80144  0.86645  0.46835  1.0000
  S   S376      1.0  0.82669  0.87615  0.48239  1.0000
  S   S377      1.0  0.75796  0.85188  0.44465  1.0000
  S   S378      1.0  0.78974  0.87085  0.40801  1.0000
  C   C1261     1.0  0.87166  0.88893  0.40045  1.0000
  C   C1262     1.0  0.85774  0.88251  0.38336  1.0000
  C   C1263     1.0  0.84395  0.87851  0.40775  1.0000
  C   C1264     1.0  0.84379  0.88094  0.44983  1.0000
  C   C1265     1.0  0.85765  0.88750  0.46688  1.0000
  C   C1266     1.0  0.87147  0.89145  0.44249  1.0000
  H   H2155     1.0  0.85760  0.88057  0.35092  1.0000
  H   H2156     1.0  0.83347  0.87347  0.39399  1.0000
  H   H2157     1.0  0.85775  0.88943  0.49934  1.0000
  H   H2158     1.0  0.88201  0.89634  0.45631  1.0000
  S   S379      1.0  0.75432  0.75070  0.76665  1.0000
  H   H2159     1.0  0.76352  0.78477  0.53399  1.0000
  C   C1267     1.0  0.93536  0.97808  0.31067  1.0000
  H   H2160     1.0  0.87982  0.77207  0.03000  1.0000
  C   C1268     1.0  0.78532  0.78331  0.47062  1.0000
  H   H2161     1.0  0.93987  0.97386  0.37436  1.0000
  C   C1269     1.0  0.87811  0.75623  0.08376  1.0000
  H   H2162     1.0  0.90499  0.74950  0.96211  1.0000
  H   H2163     1.0  0.94729  0.76575  0.05749  1.0000
  H   H2164     1.0  0.92948  0.74255  0.07545  1.0000
  H   H2165     1.0  0.97009  0.90717  0.17502  1.0000
  C   C1270     1.0  0.97551  0.91190  0.50160  1.0000
  H   H2166     1.0  0.77213  0.74321  0.98176  1.0000
  Fe  Fe189     1.0  0.74093  0.75806  0.26669  1.0000
  H   H2167     1.0  0.96810  0.92551  0.55459  1.0000
  C   C1271     1.0  0.74426  0.80760  0.46948  1.0000
  C   C1272     1.0  0.96439  0.85725  0.15770  1.0000
  C   C1273     1.0  0.95301  0.86993  0.16728  1.0000
  C   C1274     1.0  0.95183  0.87648  0.20677  1.0000
  C   C1275     1.0  0.96213  0.87056  0.23753  1.0000
  C   C1276     1.0  0.97347  0.85787  0.22803  1.0000
  C   C1277     1.0  0.97458  0.85123  0.18859  1.0000
  H   H2168     1.0  0.94503  0.87472  0.14381  1.0000
  H   H2169     1.0  0.94301  0.88617  0.21327  1.0000
  H   H2170     1.0  0.87258  0.74670  0.06548  1.0000
  C   C1278     1.0  0.76931  0.76180  0.41549  1.0000
  C   C1279     1.0  0.93644  0.77093  0.99944  1.0000
  C   C1280     1.0  0.92432  0.76617  0.97290  1.0000
  H   H2171     1.0  0.76640  0.80657  0.78001  1.0000
  C   C1281     1.0  0.93807  0.76234  0.03666  1.0000
  H   H2172     1.0  0.92286  0.77266  0.94406  1.0000
  C   C1282     1.0  0.75958  0.77793  0.50731  1.0000
  Fe  Fe190     1.0  0.76624  0.74549  0.20497  1.0000
  H   H2173     1.0  0.78260  0.75029  0.05310  1.0000
  C   C1283     1.0  0.77636  0.80877  0.58531  1.0000
  C   C1284     1.0  0.76059  0.81515  0.57925  1.0000
  H   H2174     1.0  0.83258  0.75690  0.16948  1.0000
  H   H2175     1.0  0.78956  0.77033  0.47000  1.0000
  H   H2176     1.0  0.78666  0.81526  0.57281  1.0000
  C   C1285     1.0  0.76317  0.75970  0.51688  1.0000
  H   H2177     1.0  0.94133  0.83885  0.86770  1.0000
  C   C1286     1.0  0.79485  0.79242  0.43645  1.0000
  C   C1287     1.0  0.77105  0.81380  0.34853  1.0000
  C   C1288     1.0  0.98409  0.92719  0.25658  1.0000
  H   H2178     1.0  0.97058  0.81401  0.81141  1.0000
  H   H2179     1.0  0.81353  0.75122  0.10508  1.0000
  H   H2180     1.0  0.95507  0.91163  0.25324  1.0000
  H   H2181     1.0  0.77093  0.75205  0.43901  1.0000
  C   C1289     1.0  0.98808  0.95353  0.85654  1.0000
  S   S380      1.0  0.76433  0.74349  0.27337  1.0000
  H   H2182     1.0  0.76736  0.80904  0.43881  1.0000
  H   H2183     1.0  0.98342  0.84153  0.18201  1.0000
  N   N91       1.0  0.95900  0.81842  0.87048  1.0000
  S   S381      1.0  0.74397  0.76195  0.19890  1.0000
  C   C1290     1.0  0.94913  0.83210  0.89012  1.0000
  C   C1291     1.0  0.76206  0.82799  0.71690  1.0000
  C   C1292     1.0  0.94907  0.80351  0.86551  1.0000
  C   C1293     1.0  0.87456  0.77270  0.06146  1.0000
  C   C1294     1.0  0.93803  0.82707  0.92651  1.0000
  H   H2184     1.0  0.97799  0.89939  0.22166  1.0000
  H   H2185     1.0  0.98806  0.94248  0.18559  1.0000
  H   H2186     1.0  0.74246  0.78288  0.70972  1.0000
  H   H2187     1.0  0.98243  0.91667  0.27842  1.0000
  H   H2188     1.0  0.98158  0.85315  0.25132  1.0000
  C   C1295     1.0  0.91412  0.75299  0.98307  1.0000
  H   H2189     1.0  0.76469  0.78757  0.75604  1.0000
  C   C1296     1.0  0.89839  0.76912  0.14921  1.0000
  H   H2190     1.0  0.95651  0.79365  0.85071  1.0000
  H   H2191     1.0  0.94549  0.79784  0.89552  1.0000
  H   H2192     1.0  0.76711  0.83252  0.68713  1.0000
  H   H2193     1.0  0.97067  0.93633  0.16007  1.0000
  C   C1297     1.0  0.75475  0.81604  0.36085  1.0000
  H   H2194     1.0  0.92763  0.81994  0.91679  1.0000
  H   H2195     1.0  0.94476  0.81992  0.94999  1.0000
  H   H2196     1.0  0.93288  0.83821  0.94122  1.0000
  C   C1298     1.0  0.87969  0.76798  0.15255  1.0000
  H   H2197     1.0  0.82063  0.74121  0.84470  1.0000
  H   H2198     1.0  0.76296  0.78342  0.82822  1.0000
  H   H2199     1.0  0.89141  0.75355  0.08124  1.0000
  H   H2200     1.0  0.94211  0.93554  0.18583  1.0000
  H   H2201     1.0  0.78959  0.79105  0.40603  1.0000
  N   N92       1.0  0.91306  0.85156  0.29296  1.0000
  C   C1299     1.0  0.92866  0.84280  0.30574  1.0000
  C   C1300     1.0  0.90749  0.84315  0.25566  1.0000
  C   C1301     1.0  0.90074  0.84975  0.32756  1.0000
  C   C1302     1.0  0.91661  0.86932  0.28493  1.0000
  C   C1303     1.0  0.93582  0.84815  0.34604  1.0000
  C   C1304     1.0  0.91878  0.84464  0.21752  1.0000
  C   C1305     1.0  0.88273  0.85327  0.31772  1.0000
  C   C1306     1.0  0.90384  0.88003  0.26180  1.0000
  H   H2202     1.0  0.92698  0.82936  0.30871  1.0000
  H   H2203     1.0  0.93852  0.84450  0.28235  1.0000
  H   H2204     1.0  0.89528  0.84760  0.24617  1.0000
  H   H2205     1.0  0.90594  0.82989  0.26259  1.0000
  H   H2206     1.0  0.90138  0.83710  0.34089  1.0000
  H   H2207     1.0  0.90348  0.85797  0.35291  1.0000
  H   H2208     1.0  0.91855  0.87549  0.31413  1.0000
  H   H2209     1.0  0.92842  0.87061  0.26829  1.0000
  H   H2210     1.0  0.92754  0.84612  0.37269  1.0000
  H   H2211     1.0  0.94717  0.84081  0.35185  1.0000
  H   H2212     1.0  0.93933  0.86104  0.34399  1.0000
  H   H2213     1.0  0.91291  0.83906  0.19138  1.0000
  H   H2214     1.0  0.92095  0.85754  0.20862  1.0000
  H   H2215     1.0  0.93060  0.83796  0.22150  1.0000
  H   H2216     1.0  0.87784  0.84377  0.29840  1.0000
  H   H2217     1.0  0.88054  0.86555  0.30385  1.0000
  H   H2218     1.0  0.87548  0.85297  0.34673  1.0000
  H   H2219     1.0  0.89633  0.88748  0.28335  1.0000
  H   H2220     1.0  0.89562  0.87337  0.24268  1.0000
  H   H2221     1.0  0.91021  0.88862  0.24061  1.0000
  N   N93       1.0  0.79631  0.92491  0.45167  1.0000
  C   C1307     1.0  0.79429  0.91784  0.41008  1.0000
  C   C1308     1.0  0.77950  0.92856  0.46917  1.0000
  C   C1309     1.0  0.80503  0.91211  0.47779  1.0000
  C   C1310     1.0  0.80624  0.93997  0.44624  1.0000
  C   C1311     1.0  0.80995  0.91102  0.38879  1.0000
  C   C1312     1.0  0.76915  0.94148  0.44551  1.0000
  C   C1313     1.0  0.80284  0.91320  0.52445  1.0000
  C   C1314     1.0  0.80841  0.95036  0.48411  1.0000
  H   H2222     1.0  0.78566  0.90766  0.41197  1.0000
  H   H2223     1.0  0.78889  0.92706  0.38847  1.0000
  H   H2224     1.0  0.77975  0.93278  0.50090  1.0000
  H   H2225     1.0  0.77249  0.91714  0.47157  1.0000
  H   H2226     1.0  0.80089  0.89973  0.47060  1.0000
  H   H2227     1.0  0.81836  0.91186  0.47088  1.0000
  H   H2228     1.0  0.81881  0.93660  0.43551  1.0000
  H   H2229     1.0  0.80158  0.94816  0.42122  1.0000
  H   H2230     1.0  0.81572  0.90078  0.40646  1.0000
  H   H2231     1.0  0.80670  0.90598  0.35907  1.0000
  H   H2232     1.0  0.81891  0.92059  0.38215  1.0000
  H   H2233     1.0  0.75746  0.94362  0.46251  1.0000
  H   H2234     1.0  0.77515  0.95338  0.44261  1.0000
  H   H2235     1.0  0.76592  0.93722  0.41506  1.0000
  H   H2236     1.0  0.81123  0.90401  0.53907  1.0000
  H   H2237     1.0  0.79036  0.90996  0.53455  1.0000
  H   H2238     1.0  0.80576  0.92525  0.53610  1.0000
  H   H2239     1.0  0.81917  0.94589  0.50145  1.0000
  H   H2240     1.0  0.79762  0.95098  0.50470  1.0000
  H   H2241     1.0  0.81033  0.96323  0.47412  1.0000
  H   H2242     1.0  0.96942  0.94577  0.29144  1.0000
  H   H2243     1.0  0.77632  0.75638  0.51675  1.0000
  H   H2244     1.0  0.93082  0.92218  0.21828  1.0000
  H   H2245     1.0  0.74369  0.81610  0.68568  1.0000
  C   C1315     1.0  0.97759  0.91782  0.54105  1.0000
  H   H2246     1.0  0.80885  0.74961  0.02715  1.0000
  C   C1316     1.0  0.84554  0.75263  0.16992  1.0000
  C   C1317     1.0  0.74987  0.79187  0.61905  1.0000
  C   C1318     1.0  0.76262  0.80309  0.46732  1.0000
  H   H2247     1.0  0.79529  0.75368  0.98538  1.0000
  C   C1319     1.0  0.77552  0.80076  0.32328  1.0000
  H   H2248     1.0  0.90227  0.77867  0.16999  1.0000
  C   C1320     1.0  0.74762  0.79198  0.32350  1.0000
  C   C1321     1.0  0.76387  0.78988  0.31082  1.0000
  H   H2249     1.0  0.77260  0.82568  0.73678  1.0000
  H   H2250     1.0  0.88028  0.78301  0.07619  1.0000
  H   H2251     1.0  0.95213  0.93260  0.25820  1.0000
  C   C1322     1.0  0.76566  0.78587  0.62657  1.0000
  C   C1323     1.0  0.75226  0.78982  0.81434  1.0000
  C   C1324     1.0  0.97303  0.81385  0.89766  1.0000
  H   H2252     1.0  0.87663  0.76599  0.18547  1.0000
  N   N94       1.0  0.76705  0.78503  0.46860  1.0000
  C   C1325     1.0  0.98835  0.92901  0.76910  1.0000
  H   H2253     1.0  0.81591  0.74910  0.97485  1.0000
  H   H2254     1.0  0.80763  0.78764  0.43511  1.0000
  H   H2255     1.0  0.79113  0.78982  0.61467  1.0000
  H   H2256     1.0  0.92413  0.79788  0.85124  1.0000
  C   C1326     1.0  0.94286  0.92372  0.20290  1.0000
  H   H2257     1.0  0.78954  0.78787  0.50019  1.0000
  H   H2258     1.0  0.98377  0.94090  0.85464  1.0000
  H   H2259     1.0  0.90263  0.77288  0.11814  1.0000
  H   H2260     1.0  0.76131  0.80360  0.69462  1.0000
  S   S382      1.0  0.76970  0.76866  0.65965  1.0000
  H   H2261     1.0  0.78809  0.79901  0.31344  1.0000
  H   H2262     1.0  0.75850  0.75684  0.54826  1.0000
  H   H2263     1.0  0.97988  0.84207  0.79672  1.0000
  H   H2264     1.0  0.76846  0.80941  0.49254  1.0000
  C   C1327     1.0  0.75754  0.79725  0.77267  1.0000
  H   H2265     1.0  0.74284  0.78058  0.81235  1.0000
  H   H2266     1.0  0.79529  0.80565  0.44269  1.0000
  Fe  Fe191     1.0  0.97873  0.82956  0.06886  1.0000
  H   H2267     1.0  0.75115  0.82615  0.37994  1.0000
  H   H2268     1.0  0.87444  0.78034  0.14476  1.0000
  S   S383      1.0  0.75242  0.90011  0.41725  1.0000
  H   H2269     1.0  0.94451  0.91365  0.18124  1.0000
  H   H2270     1.0  0.92846  0.81855  0.83999  1.0000
  H   H2271     1.0  0.84811  0.75124  0.10448  1.0000
  S   S384      1.0  0.78870  0.75191  0.16735  1.0000
  C   C1328     1.0  0.93380  0.80599  0.83926  1.0000
  Fe  Fe192     1.0  0.75396  0.75092  0.69788  1.0000
  H   H2272     1.0  0.76749  0.77986  0.29143  1.0000
  H   H2273     1.0  0.78132  0.76460  0.40146  1.0000
  C   C1329     1.0  0.91593  0.74425  0.02002  1.0000
  H   H2274     1.0  0.75653  0.75188  0.49631  1.0000
  C   C1330     1.0  0.85402  0.75768  0.12930  1.0000
  C   C1331     1.0  0.80567  0.74600  0.99606  1.0000
  N   N95       1.0  0.74428  0.80442  0.74600  1.0000
  H   H2275     1.0  0.97967  0.82486  0.90592  1.0000
  H   H2276     1.0  0.96853  0.80858  0.92719  1.0000
  H   H2277     1.0  0.90480  0.75758  0.15866  1.0000
  H   H2278     1.0  0.95724  0.84154  0.90146  1.0000
  H   H2279     1.0  0.76205  0.75677  0.39087  1.0000
  C   C1332     1.0  0.92791  0.74914  0.04678  1.0000
  H   H2280     1.0  0.98340  0.91718  0.78002  1.0000
  C   C1333     1.0  0.97498  0.93975  0.19054  1.0000
  C   C1334     1.0  0.97701  0.83824  0.82873  1.0000
  H   H2281     1.0  0.74737  0.77434  0.43659  1.0000
  H   H2282     1.0  0.85058  0.77078  0.12356  1.0000
  H   H2283     1.0  0.98065  0.78902  0.87860  1.0000
  C   C1335     1.0  0.96489  0.82424  0.82894  1.0000
  H   H2284     1.0  0.95446  0.82868  0.81021  1.0000
  H   H2285     1.0  0.98870  0.83433  0.84258  1.0000
  H   H2286     1.0  0.97499  0.96586  0.20475  1.0000
  C   C1336     1.0  0.74738  0.80654  0.59610  1.0000
  C   C1337     1.0  0.98206  0.94300  0.28097  1.0000
  H   H2287     1.0  0.85101  0.75818  0.19653  1.0000
  C   C1338     1.0  0.93859  0.98297  0.35009  1.0000
  H   H2288     1.0  0.74174  0.82538  0.78443  1.0000
  H   H2289     1.0  0.95842  0.95577  0.22939  1.0000
  H   H2290     1.0  0.95803  0.96025  0.17613  1.0000
  H   H2291     1.0  0.98499  0.96169  0.79486  1.0000
  H   H2292     1.0  0.93118  0.98659  0.24898  1.0000
  C   C1339     1.0  0.74307  0.80514  0.34840  1.0000
  H   H2293     1.0  0.97846  0.93815  0.77485  1.0000
  N   N96       1.0  0.97329  0.92561  0.22049  1.0000
  C   C1340     1.0  0.97850  0.90995  0.19967  1.0000
  H   H2294     1.0  0.98657  0.89724  0.45449  1.0000
  H   H2295     1.0  0.98691  0.95362  0.26359  1.0000
  C   C1341     1.0  0.98793  0.90194  0.48465  1.0000
  C   C1342     1.0  0.98573  0.80133  0.88061  1.0000
  H   H2296     1.0  0.74244  0.82081  0.46202  1.0000
  C   C1343     1.0  0.75257  0.81242  0.70937  1.0000
  H   H2297     1.0  0.76036  0.78610  0.40504  1.0000
  H   H2298     1.0  0.75410  0.83801  0.72898  1.0000
  H   H2299     1.0  0.74610  0.77927  0.50730  1.0000
  H   H2300     1.0  0.74817  0.79943  0.83575  1.0000
  H   H2301     1.0  0.97191  0.84916  0.84438  1.0000
  H   H2302     1.0  0.76212  0.74330  0.04670  1.0000
  H   H2303     1.0  0.98937  0.94159  0.30894  1.0000
  H   H2304     1.0  0.77207  0.74005  0.09364  1.0000
  C   C1344     1.0  0.77416  0.74034  0.06005  1.0000
