data_image0
_chemical_formula_structural       HSH2SFeS2FeSFeS2HSH2FeSH2CFeCSCH3SHCHCH3CH3CHC4HC6H4C6HCH2C6H4C2H7SCSHC2H7NH4C3H2SHFeHCHNH7C2HFeSHCHC2H5CH2C5HCH3NH3C2HFeHFeCHCHCH2SCS2HCSCHFeHNH2CHCSH5NCH2CNH2SHS2C2HC7H3SH6CH4CHCHCH2CHSC2H2FeCHFeH2CH11CHCHNHC3HCH4SH3FeHSCH3FeH3FeHC3HCH4FeSHSH2SC2HFeH2CHNHCSCH2SFeH2FeSHFeSCFeS2FeSFeS3FeSFeSH2S2H3CFeC6H4C2HC6H4C5H5C6H4C2HCH5C2SHSHC2HFeH2SCHNH2SC2NHC4HC2H8SH3CH7CH2C3H4NC5HC2H12C2H9NFeH2FeHCHCHC2H5SH2C3H6CHNSH4CHCH3CHCH2CHSH2SH4Fe2S2FeHCSFeSFeSFeHSFeS2FeHCHS2HCH2CHCHC6H4C6H4CH4C3SH5CSH4SH2C2H2NSCH2C2H3CHSH2CH2SCH3C2H2CH2NCH7C6HCNHCH3CH8C2H2C2H3CHC2NCSFeSH2FeHS2HSCSHSHFeSHSFeS2FeSFeSCSC6H4C2H3C2HCHC3SC3HCHC7H3C6H5NC8H22NC6H8FeH4NCH2CH2CHSHCH2FeSH2C2H5CH2C2HSH3CH4CHC2HFeH3SHCH3CHCHCHCH2S2HFeSHFeS2FeHFeS3CSHCH4C6H6C4H2C7H2CH8CHCHCHCN2C4HC3HFeH7CH3CH15SH3CH3CNCHCH2SC3H2C2HCH5CHCH6NCFeS2FeH2SFeS3FeSHSH2CFeSH7C6H5C2FeC6H5C3H3C2H4CH6CH2CNS3H2SHFeHCH3CHCH2N2HCH5SHC2HC2NC4HC4H8CH5Fe2H3CH7CH2CH4CH4CSHCHCH2SC2H2FeCH2CHCHCHCH4CH5SHCS2FeSC2H3CFeH3SH2C6H4C6H4C5H5SCH6CSCHC6H2CH5CHC4H2SNC2H4CHCSH4SH2NH2CHCHC2SCH2SH4CHSHCH4CFeHFeCH2CH2CH3CHSHC2H4NCSHCFeCH8S2FeSHCSFeSHFeS2CFeHFeS2H3SHCHCHC5SH4C4H5C7H7CH3SCNHCHC3H2CH7C2H3C2H4NH2NHCH2CH3NH2CHC2HC2H2C2H3CHCH2CSCHCHC2H10FeH2CH3CH5C2S2FeSCFeS2FeS2FeSFeS3H3SH2CSCFeS2FeS2Fe2S2CHFeHSC6H4CHC7H4C7H2C6H4C6H3C2NC8H25C2H4CH3C2H13FeH9NHC3NCHNH2CH2CH4CH6SHC3H4CHCH2C2H2NFeCH4CHSHCH3CH5CHCHC2H2CH2CHCH2CSC3HCHCSH2CH6CHNCH3CSCHSH4CH7CH2C6HSH2FeC2HCHCH2CH2CHNC2H3CHC2H7CH2C3H4CHCHNH4CSH8NH2FeS2Fe2S2FeS2HSFeSFeSCSHSFeS2FeSFeS2HC6H4C2H3C5H4CHC6H4CH4C2H9C3HCSH3FeCH2NC8H21CH3SH2NC2H3CFeCH2CHCH4CHSHC5H4C3H3NH5SCH2SCH6NC3H4C2HCH4CH2CH5C2H3C
_chemical_formula_sum              "H1152 S192 Fe96 C672 N48"
_cell_length_a       32.5636
_cell_length_b       59.1398
_cell_length_c       56.9448
_cell_angle_alpha    89.9783
_cell_angle_beta     95.9014
_cell_angle_gamma    90.0943

_space_group_name_H-M_alt    "P 1"
_space_group_IT_number       1

loop_
  _space_group_symop_operation_xyz
  'x, y, z'

loop_
  _atom_site_type_symbol
  _atom_site_label
  _atom_site_symmetry_multiplicity
  _atom_site_fract_x
  _atom_site_fract_y
  _atom_site_fract_z
  _atom_site_occupancy
  H   H1        1.0  0.40153  0.23223  0.12653  1.0000
  S   S1        1.0  0.35698  0.01385  0.05735  1.0000
  H   H2        1.0  0.40695  0.24547  0.00471  1.0000
  H   H3        1.0  0.47792  0.19235  0.15953  1.0000
  S   S2        1.0  0.12799  0.01086  0.37459  1.0000
  Fe  Fe1       1.0  0.22364  0.05079  0.38180  1.0000
  S   S3        1.0  0.17345  0.05371  0.35138  1.0000
  S   S4        1.0  0.28009  0.07463  0.38990  1.0000
  Fe  Fe2       1.0  0.12856  0.04868  0.37889  1.0000
  S   S5        1.0  0.06302  0.06246  0.38001  1.0000
  Fe  Fe3       1.0  0.17643  0.01552  0.34985  1.0000
  S   S6        1.0  0.17799  0.04800  0.40935  1.0000
  S   S7        1.0  0.22877  0.01267  0.37920  1.0000
  H   H4        1.0  0.46846  0.11753  0.99879  1.0000
  S   S8        1.0  0.42752  0.16555  0.10610  1.0000
  H   H5        1.0  0.46757  0.11575  0.36996  1.0000
  H   H6        1.0  0.07726  0.06579  0.47774  1.0000
  Fe  Fe4       1.0  0.43489  0.13825  0.07950  1.0000
  S   S9        1.0  0.38074  0.12055  0.05872  1.0000
  H   H7        1.0  0.44996  0.20592  0.13556  1.0000
  H   H8        1.0  0.42688  0.06688  0.00830  1.0000
  C   C1        1.0  0.45604  0.03535  0.01812  1.0000
  Fe  Fe5       1.0  0.46125  0.15635  0.33515  1.0000
  C   C2        1.0  0.28945  0.22402  0.33012  1.0000
  S   S10       1.0  0.40542  0.13183  0.33209  1.0000
  C   C3        1.0  0.01250  0.11544  0.42896  1.0000
  H   H9        1.0  0.08909  0.02818  0.44266  1.0000
  H   H10       1.0  0.26039  0.21845  0.33690  1.0000
  H   H11       1.0  0.26786  0.18631  0.35791  1.0000
  S   S11       1.0  0.45822  0.18784  0.31243  1.0000
  H   H12       1.0  0.42132  0.10424  0.00670  1.0000
  C   C4        1.0  0.30247  0.15980  0.37621  1.0000
  H   H13       1.0  0.27693  0.15683  0.38737  1.0000
  C   C5        1.0  0.43107  0.24467  0.16104  1.0000
  H   H14       1.0  0.45028  0.32026  0.37119  1.0000
  H   H15       1.0  0.44262  0.27964  0.38143  1.0000
  H   H16       1.0  0.07454  0.12870  0.43318  1.0000
  C   C6        1.0  0.47314  0.22466  0.19245  1.0000
  H   H17       1.0  0.39729  0.19085  0.34868  1.0000
  H   H18       1.0  0.47898  0.07291  0.33847  1.0000
  H   H19       1.0  0.37895  0.16702  0.36289  1.0000
  C   C7        1.0  0.32244  0.17769  0.32769  1.0000
  H   H20       1.0  0.32761  0.15931  0.33099  1.0000
  C   C8        1.0  0.19390  0.01389  0.12437  1.0000
  C   C9        1.0  0.37438  0.18556  0.36083  1.0000
  C   C10       1.0  0.04498  0.08258  0.39967  1.0000
  C   C11       1.0  0.48692  0.27314  0.33044  1.0000
  H   H21       1.0  0.16927  0.02388  0.13167  1.0000
  C   C12       1.0  0.31468  0.09024  0.37332  1.0000
  C   C13       1.0  0.31175  0.09009  0.34861  1.0000
  C   C14       1.0  0.33984  0.10278  0.33645  1.0000
  C   C15       1.0  0.37135  0.11587  0.34867  1.0000
  C   C16       1.0  0.37422  0.11612  0.37338  1.0000
  C   C17       1.0  0.34621  0.10339  0.38555  1.0000
  H   H22       1.0  0.28785  0.08014  0.33884  1.0000
  H   H23       1.0  0.33707  0.10239  0.31735  1.0000
  H   H24       1.0  0.39759  0.12632  0.38314  1.0000
  H   H25       1.0  0.34877  0.10379  0.40463  1.0000
  C   C18       1.0  0.41593  0.27505  0.02678  1.0000
  C   C19       1.0  0.41723  0.25164  0.02219  1.0000
  C   C20       1.0  0.43202  0.23605  0.03995  1.0000
  C   C21       1.0  0.44598  0.24363  0.06267  1.0000
  C   C22       1.0  0.46965  0.26695  0.35103  1.0000
  C   C23       1.0  0.42968  0.28263  0.04954  1.0000
  H   H26       1.0  0.03203  0.99733  0.17204  1.0000
  C   C24       1.0  0.06140  0.05699  0.46203  1.0000
  H   H27       1.0  0.29877  0.14704  0.36188  1.0000
  H   H28       1.0  0.42907  0.30052  0.05344  1.0000
  C   C25       1.0  0.36210  0.04357  0.05810  1.0000
  C   C26       1.0  0.34025  0.05724  0.04114  1.0000
  C   C27       1.0  0.34578  0.08084  0.04185  1.0000
  C   C28       1.0  0.37335  0.09095  0.05937  1.0000
  C   C29       1.0  0.39477  0.07729  0.07657  1.0000
  C   C30       1.0  0.38902  0.05368  0.07596  1.0000
  H   H29       1.0  0.31925  0.04965  0.02739  1.0000
  H   H30       1.0  0.32895  0.09132  0.02857  1.0000
  H   H31       1.0  0.41580  0.08492  0.09026  1.0000
  H   H32       1.0  0.40592  0.04320  0.08921  1.0000
  C   C31       1.0  0.38779  0.19686  0.38483  1.0000
  C   C32       1.0  0.34850  0.18400  0.30739  1.0000
  H   H33       1.0  0.41931  0.19103  0.39131  1.0000
  H   H34       1.0  0.36751  0.19226  0.39855  1.0000
  H   H35       1.0  0.38961  0.21552  0.38317  1.0000
  H   H36       1.0  0.37013  0.17007  0.30430  1.0000
  H   H37       1.0  0.36701  0.19960  0.31039  1.0000
  H   H38       1.0  0.32802  0.18641  0.29074  1.0000
  H   H39       1.0  0.45892  0.11151  0.41314  1.0000
  S   S12       1.0  0.46551  0.22481  0.08590  1.0000
  C   C33       1.0  0.30360  0.03381  0.11311  1.0000
  S   S13       1.0  0.39691  0.29381  0.00339  1.0000
  H   H40       1.0  0.18765  0.03789  0.08067  1.0000
  C   C34       1.0  0.30078  0.05931  0.10771  1.0000
  C   C35       1.0  0.45611  0.28418  0.36549  1.0000
  H   H41       1.0  0.47935  0.10332  0.33510  1.0000
  H   H42       1.0  0.42565  0.02667  0.01787  1.0000
  H   H43       1.0  0.31645  0.03191  0.13192  1.0000
  H   H44       1.0  0.32790  0.02751  0.10246  1.0000
  H   H45       1.0  0.10266  0.05577  0.43426  1.0000
  H   H46       1.0  0.18181  0.00798  0.10650  1.0000
  H   H47       1.0  0.47675  0.02717  0.03227  1.0000
  N   N1        1.0  0.46510  0.22752  0.16603  1.0000
  H   H48       1.0  0.00433  0.00572  0.19607  1.0000
  H   H49       1.0  0.27642  0.06801  0.11645  1.0000
  H   H50       1.0  0.29708  0.06244  0.08840  1.0000
  H   H51       1.0  0.33054  0.06741  0.11439  1.0000
  C   C36       1.0  0.49067  0.29621  0.32453  1.0000
  C   C37       1.0  0.00292  0.08247  0.40343  1.0000
  C   C38       1.0  0.23321  0.02856  0.12414  1.0000
  H   H52       1.0  0.29008  0.21823  0.31164  1.0000
  H   H53       1.0  0.38560  0.20512  0.15788  1.0000
  S   S14       1.0  0.48638  0.12086  0.10155  1.0000
  H   H54       1.0  0.45545  0.27324  0.08468  1.0000
  Fe  Fe6       1.0  0.47312  0.18599  0.08776  1.0000
  H   H55       1.0  0.44476  0.14050  0.21206  1.0000
  C   C39       1.0  0.05452  0.11558  0.42519  1.0000
  H   H56       1.0  0.43871  0.25475  0.12431  1.0000
  N   N2        1.0  0.33118  0.19093  0.35028  1.0000
  H   H57       1.0  0.44153  0.26162  0.16769  1.0000
  H   H58       1.0  0.28913  0.24281  0.32967  1.0000
  H   H59       1.0  0.46765  0.13984  0.40436  1.0000
  H   H60       1.0  0.44367  0.22225  0.20048  1.0000
  H   H61       1.0  0.30118  0.19573  0.38234  1.0000
  H   H62       1.0  0.38935  0.26058  0.13362  1.0000
  H   H63       1.0  0.46994  0.03928  0.37997  1.0000
  C   C40       1.0  0.44463  0.26705  0.06728  1.0000
  C   C41       1.0  0.24842  0.02101  0.08242  1.0000
  H   H64       1.0  0.41595  0.19083  0.18210  1.0000
  Fe  Fe7       1.0  0.49032  0.20588  0.34399  1.0000
  S   S15       1.0  0.46483  0.23814  0.35969  1.0000
  H   H65       1.0  0.43285  0.21818  0.03600  1.0000
  C   C42       1.0  0.47779  0.31346  0.33919  1.0000
  H   H66       1.0  0.00620  0.08903  0.47329  1.0000
  C   C43       1.0  0.45300  0.20496  0.15518  1.0000
  C   C44       1.0  0.21835  0.04033  0.07425  1.0000
  H   H67       1.0  0.27465  0.02200  0.07137  1.0000
  H   H68       1.0  0.21328  0.04021  0.05464  1.0000
  H   H69       1.0  0.33158  0.15668  0.38761  1.0000
  H   H70       1.0  0.04852  0.07078  0.45022  1.0000
  H   H71       1.0  0.32758  0.22535  0.36306  1.0000
  C   C45       1.0  0.48764  0.15904  0.23639  1.0000
  H   H72       1.0  0.47534  0.07641  0.40499  1.0000
  H   H73       1.0  0.27023  0.28677  0.00990  1.0000
  C   C46       1.0  0.00789  0.02509  0.42756  1.0000
  C   C47       1.0  0.41469  0.24795  0.13484  1.0000
  C   C48       1.0  0.47277  0.15049  0.21394  1.0000
  C   C49       1.0  0.32792  0.21610  0.34604  1.0000
  C   C50       1.0  0.46040  0.30727  0.35974  1.0000
  H   H74       1.0  0.28920  0.17874  0.32084  1.0000
  C   C51       1.0  0.29973  0.18429  0.36676  1.0000
  H   H75       1.0  0.23009  0.05731  0.07947  1.0000
  H   H76       1.0  0.40735  0.17798  0.15388  1.0000
  H   H77       1.0  0.35569  0.22292  0.33853  1.0000
  N   N3        1.0  0.26435  0.02022  0.10829  1.0000
  H   H78       1.0  0.45534  0.07721  0.37539  1.0000
  H   H79       1.0  0.47105  0.15564  0.25152  1.0000
  H   H80       1.0  0.40411  0.24049  0.17078  1.0000
  C   C52       1.0  0.09592  0.04533  0.44963  1.0000
  C   C53       1.0  0.44973  0.06075  0.02275  1.0000
  H   H81       1.0  0.22295  0.04602  0.11953  1.0000
  Fe  Fe8       1.0  0.17930  0.01018  0.40416  1.0000
  H   H82       1.0  0.10320  0.09944  0.40807  1.0000
  Fe  Fe9       1.0  0.31407  0.99702  0.02855  1.0000
  C   C54       1.0  0.07086  0.09904  0.41093  1.0000
  H   H83       1.0  0.24751  0.02971  0.14276  1.0000
  C   C55       1.0  0.48486  0.07465  0.38688  1.0000
  H   H84       1.0  0.43363  0.06202  0.03888  1.0000
  C   C56       1.0  0.41307  0.19449  0.16290  1.0000
  H   H85       1.0  0.00288  0.14596  0.35418  1.0000
  H   H86       1.0  0.12520  0.04478  0.46149  1.0000
  S   S16       1.0  0.24492  0.99966  0.02534  1.0000
  C   C57       1.0  0.00632  0.05433  0.48831  1.0000
  S   S17       1.0  0.47338  0.14323  0.16616  1.0000
  S   S18       1.0  0.48934  0.17494  0.36721  1.0000
  H   H87       1.0  0.48243  0.04924  0.06792  1.0000
  C   C58       1.0  0.48231  0.12293  0.40668  1.0000
  S   S19       1.0  0.47627  0.15982  0.05942  1.0000
  C   C59       1.0  0.47602  0.09869  0.03247  1.0000
  H   H88       1.0  0.47930  0.26059  0.20299  1.0000
  Fe  Fe10      1.0  0.48258  0.14990  0.12725  1.0000
  H   H89       1.0  0.46733  0.03226  0.00071  1.0000
  N   N4        1.0  0.02700  0.04222  0.46930  1.0000
  H   H90       1.0  0.45762  0.09770  0.04783  1.0000
  H   H91       1.0  0.44120  0.12891  0.02159  1.0000
  C   C60       1.0  0.04205  0.01978  0.47944  1.0000
  H   H92       1.0  0.49068  0.20893  0.19716  1.0000
  C   C61       1.0  0.45036  0.11285  0.01352  1.0000
  S   S20       1.0  0.18315  0.99391  0.31689  1.0000
  H   H93       1.0  0.05603  0.00918  0.46639  1.0000
  H   H94       1.0  0.23186  0.00506  0.07686  1.0000
  H   H95       1.0  0.01552  0.00951  0.48442  1.0000
  H   H96       1.0  0.03065  0.03478  0.41841  1.0000
  H   H97       1.0  0.01963  0.00792  0.43217  1.0000
  N   N5        1.0  0.48795  0.07533  0.02489  1.0000
  C   C62       1.0  0.99451  0.03818  0.44887  1.0000
  H   H98       1.0  0.19987  0.99891  0.13601  1.0000
  H   H99       1.0  0.28448  0.99466  0.13438  1.0000
  C   C63       1.0  0.27449  0.99600  0.11510  1.0000
  N   N6        1.0  0.00365  0.14649  0.77822  1.0000
  H   H100      1.0  0.34509  0.01640  0.90932  1.0000
  H   H101      1.0  0.13705  0.29615  0.67910  1.0000
  S   S21       1.0  0.05128  0.29688  0.83091  1.0000
  H   H102      1.0  0.04160  0.22918  0.85245  1.0000
  S   S22       1.0  0.05953  0.03222  0.88779  1.0000
  S   S23       1.0  0.03215  0.08372  0.83918  1.0000
  C   C64       1.0  0.21476  0.02721  0.88821  1.0000
  C   C65       1.0  0.35334  0.25370  0.95215  1.0000
  H   H103      1.0  0.33147  0.30385  0.96275  1.0000
  C   C66       1.0  0.00482  0.17467  0.85318  1.0000
  C   C67       1.0  0.16985  0.03140  0.94538  1.0000
  C   C68       1.0  0.15694  0.05185  0.93435  1.0000
  C   C69       1.0  0.12241  0.05260  0.91725  1.0000
  C   C70       1.0  0.10073  0.03278  0.91075  1.0000
  C   C71       1.0  0.11308  0.01239  0.92213  1.0000
  C   C72       1.0  0.14717  0.01172  0.93953  1.0000
  H   H104      1.0  0.17414  0.06720  0.93882  1.0000
  H   H105      1.0  0.11329  0.06840  0.90865  1.0000
  H   H106      1.0  0.28450  0.31418  0.94879  1.0000
  S   S24       1.0  0.31793  0.00271  0.99004  1.0000
  H   H107      1.0  0.21662  0.02240  0.86955  1.0000
  H   H108      1.0  0.99441  0.14295  0.72529  1.0000
  H   H109      1.0  0.05151  0.12440  0.81758  1.0000
  H   H110      1.0  0.02890  0.06782  0.96554  1.0000
  H   H111      1.0  0.00373  0.08641  0.94409  1.0000
  H   H112      1.0  0.35797  0.29453  0.92555  1.0000
  C   C73       1.0  0.25363  0.02024  0.90443  1.0000
  H   H113      1.0  0.13188  0.29213  0.64800  1.0000
  H   H114      1.0  0.36227  0.00334  0.93691  1.0000
  H   H115      1.0  0.00248  0.28144  0.71456  1.0000
  H   H116      1.0  0.04926  0.02946  0.95572  1.0000
  C   C74       1.0  0.01180  0.30724  0.74143  1.0000
  H   H117      1.0  0.99606  0.11276  0.72673  1.0000
  C   C75       1.0  0.26096  0.28883  0.99068  1.0000
  H   H118      1.0  0.08748  0.00399  0.50498  1.0000
  C   C76       1.0  0.24262  0.27779  0.94007  1.0000
  H   H119      1.0  0.02899  0.05825  0.50375  1.0000
  H   H120      1.0  0.22744  0.26137  0.94352  1.0000
  C   C77       1.0  0.03282  0.19294  0.85534  1.0000
  H   H121      1.0  0.01374  0.16077  0.58833  1.0000
  S   S25       1.0  0.21572  0.03125  0.96521  1.0000
  C   C78       1.0  0.12740  0.30464  0.66206  1.0000
  C   C79       1.0  0.06872  0.13365  0.80491  1.0000
  H   H122      1.0  0.24955  0.02640  0.92248  1.0000
  H   H123      1.0  0.06349  0.16310  0.78264  1.0000
  Fe  Fe11      1.0  0.02118  0.06101  0.86980  1.0000
  C   C80       1.0  0.01074  0.31409  0.69883  1.0000
  H   H124      1.0  0.37057  0.24323  0.94028  1.0000
  Fe  Fe12      1.0  0.24835  0.00241  0.98623  1.0000
  H   H125      1.0  0.29157  0.24252  0.94071  1.0000
  H   H126      1.0  0.14218  0.31455  0.72545  1.0000
  C   C81       1.0  0.28697  0.27275  0.97683  1.0000
  H   H127      1.0  0.05945  0.02610  0.51735  1.0000
  H   H128      1.0  0.00165  0.19406  0.79316  1.0000
  H   H129      1.0  0.01282  0.05048  0.92474  1.0000
  H   H130      1.0  0.07967  0.12164  0.79199  1.0000
  H   H131      1.0  0.29432  0.01634  0.86424  1.0000
  H   H132      1.0  0.35194  0.24392  0.96871  1.0000
  H   H133      1.0  0.00378  0.01136  0.91766  1.0000
  H   H134      1.0  0.21182  0.04592  0.88868  1.0000
  H   H135      1.0  0.48121  0.08065  0.98681  1.0000
  H   H136      1.0  0.01481  0.11168  0.76814  1.0000
  H   H137      1.0  0.27924  0.03055  0.89867  1.0000
  C   C82       1.0  0.30950  0.25855  0.94014  1.0000
  H   H138      1.0  0.31231  0.26143  0.92112  1.0000
  C   C83       1.0  0.30732  0.30036  0.94786  1.0000
  H   H139      1.0  0.27593  0.25520  0.97970  1.0000
  N   N7        1.0  0.28703  0.27766  0.95078  1.0000
  H   H140      1.0  0.37139  0.26936  0.95636  1.0000
  C   C84       1.0  0.33468  0.01000  0.92595  1.0000
  C   C85       1.0  0.00777  0.29927  0.71792  1.0000
  C   C86       1.0  0.23486  0.28249  0.91341  1.0000
  H   H141      1.0  0.10243  0.31939  0.70238  1.0000
  C   C87       1.0  0.04278  0.15320  0.79322  1.0000
  H   H142      1.0  0.00965  0.29560  0.75592  1.0000
  H   H143      1.0  0.20146  0.28000  0.90771  1.0000
  H   H144      1.0  0.09647  0.14081  0.81529  1.0000
  H   H145      1.0  0.22456  0.29096  0.94835  1.0000
  S   S26       1.0  0.05600  0.31075  0.60886  1.0000
  H   H146      1.0  0.06507  0.18970  0.86083  1.0000
  H   H147      1.0  0.05817  0.99651  0.98235  1.0000
  H   H148      1.0  0.25196  0.27094  0.90264  1.0000
  Fe  Fe13      1.0  0.04950  0.31945  0.86309  1.0000
  H   H149      1.0  0.04667  0.13184  0.75566  1.0000
  S   S27       1.0  0.02389  0.14660  0.85886  1.0000
  C   C88       1.0  0.07403  0.02107  0.50136  1.0000
  H   H150      1.0  0.31884  0.27354  0.98598  1.0000
  H   H151      1.0  0.24142  0.30042  0.90940  1.0000
  H   H152      1.0  0.26570  0.30681  0.98626  1.0000
  Fe  Fe14      1.0  0.00872  0.31993  0.63359  1.0000
  H   H153      1.0  0.14570  0.31999  0.94142  1.0000
  H   H154      1.0  0.15625  0.99593  0.94812  1.0000
  H   H155      1.0  0.09639  0.99698  0.91727  1.0000
  Fe  Fe15      1.0  0.00268  0.30869  0.58019  1.0000
  H   H156      1.0  0.30899  0.29997  0.90875  1.0000
  C   C89       1.0  0.99944  0.07077  0.95439  1.0000
  C   C90       1.0  0.32867  0.30410  0.92513  1.0000
  C   C91       1.0  0.01469  0.12905  0.76042  1.0000
  H   H157      1.0  0.18597  0.02050  0.89438  1.0000
  C   C92       1.0  0.02159  0.02283  0.96359  1.0000
  H   H158      1.0  0.33690  0.32226  0.92385  1.0000
  H   H159      1.0  0.02155  0.03146  0.98098  1.0000
  H   H160      1.0  0.18639  0.31910  0.66038  1.0000
  H   H161      1.0  0.03593  0.16443  0.80801  1.0000
  Fe  Fe16      1.0  0.99672  0.11047  0.85726  1.0000
  S   S28       1.0  0.09755  0.32063  0.89617  1.0000
  H   H162      1.0  0.09399  0.30843  0.66048  1.0000
  S   S29       1.0  0.99648  0.28250  0.55008  1.0000
  H   H163      1.0  0.00936  0.17460  0.75447  1.0000
  H   H164      1.0  0.22760  0.28461  0.98764  1.0000
  S   S30       1.0  0.00621  0.30296  0.66959  1.0000
  C   C93       1.0  0.01960  0.21541  0.85057  1.0000
  C   C94       1.0  0.03125  0.99768  0.96872  1.0000
  H   H165      1.0  0.32276  0.02427  0.93597  1.0000
  Fe  Fe17      1.0  0.01511  0.32494  0.81102  1.0000
  H   H166      1.0  0.09994  0.03266  0.49877  1.0000
  H   H167      1.0  0.99365  0.12323  0.58590  1.0000
  C   C95       1.0  0.30189  0.99828  0.86758  1.0000
  H   H168      1.0  0.33330  0.99655  0.87685  1.0000
  N   N8        1.0  0.26407  0.99535  0.90519  1.0000
  H   H169      1.0  0.29370  0.44637  0.15621  1.0000
  C   C96       1.0  0.39799  0.40974  0.12343  1.0000
  S   S31       1.0  0.32529  0.39432  0.04764  1.0000
  C   C97       1.0  0.26539  0.44599  0.00881  1.0000
  H   H170      1.0  0.43119  0.59899  0.20363  1.0000
  H   H171      1.0  0.43131  0.40556  0.12358  1.0000
  S   S32       1.0  0.42675  0.40204  0.33826  1.0000
  Fe  Fe18      1.0  0.47632  0.42794  0.33394  1.0000
  H   H172      1.0  0.36118  0.60693  0.10326  1.0000
  H   H173      1.0  0.07449  0.53131  0.48062  1.0000
  Fe  Fe19      1.0  0.43431  0.41215  0.37688  1.0000
  S   S33       1.0  0.37636  0.41756  0.39556  1.0000
  H   H174      1.0  0.22626  0.38002  0.47601  1.0000
  Fe  Fe20      1.0  0.43491  0.54295  0.15096  1.0000
  S   S34       1.0  0.38029  0.54918  0.12456  1.0000
  C   C98       1.0  0.30371  0.54552  0.48480  1.0000
  Fe  Fe21      1.0  0.38657  0.50844  0.17860  1.0000
  S   S35       1.0  0.32832  0.51315  0.15350  1.0000
  S   S36       1.0  0.38359  0.48070  0.20677  1.0000
  Fe  Fe22      1.0  0.37118  0.51126  0.12467  1.0000
  S   S37       1.0  0.36926  0.49320  0.08885  1.0000
  Fe  Fe23      1.0  0.34217  0.55078  0.15562  1.0000
  S   S38       1.0  0.30623  0.58372  0.16232  1.0000
  S   S39       1.0  0.42818  0.50513  0.14958  1.0000
  S   S40       1.0  0.39785  0.54586  0.18231  1.0000
  Fe  Fe24      1.0  0.02521  0.64026  0.45099  1.0000
  S   S41       1.0  0.04027  0.61988  0.41994  1.0000
  Fe  Fe25      1.0  0.10624  0.62562  0.43450  1.0000
  S   S42       1.0  0.14741  0.59482  0.43282  1.0000
  H   H175      1.0  0.28544  0.37733  0.45330  1.0000
  H   H176      1.0  0.38267  0.54651  0.45735  1.0000
  S   S43       1.0  0.12013  0.62043  0.16466  1.0000
  S   S44       1.0  0.03463  0.64241  0.20102  1.0000
  H   H177      1.0  0.28261  0.35580  0.48968  1.0000
  H   H178      1.0  0.10382  0.55568  0.47694  1.0000
  H   H179      1.0  0.45783  0.50046  0.23329  1.0000
  C   C99       1.0  0.39533  0.60738  0.10713  1.0000
  Fe  Fe26      1.0  0.08476  0.65115  0.17779  1.0000
  C   C100      1.0  0.25411  0.59343  0.16301  1.0000
  C   C101      1.0  0.24718  0.61614  0.16914  1.0000
  C   C102      1.0  0.20670  0.62477  0.16973  1.0000
  C   C103      1.0  0.17230  0.61079  0.16410  1.0000
  C   C104      1.0  0.17927  0.58808  0.15807  1.0000
  C   C105      1.0  0.21971  0.57944  0.15761  1.0000
  H   H180      1.0  0.27333  0.62721  0.17339  1.0000
  H   H181      1.0  0.20213  0.64225  0.17438  1.0000
  H   H182      1.0  0.15308  0.57705  0.15362  1.0000
  H   H183      1.0  0.22422  0.56199  0.15281  1.0000
  C   C106      1.0  0.16752  0.58078  0.45884  1.0000
  C   C107      1.0  0.18133  0.55836  0.45749  1.0000
  H   H184      1.0  0.37554  0.42488  0.19501  1.0000
  C   C108      1.0  0.37600  0.43390  0.42157  1.0000
  C   C109      1.0  0.33807  0.43883  0.43020  1.0000
  C   C110      1.0  0.33663  0.45098  0.45139  1.0000
  C   C111      1.0  0.37324  0.45852  0.46397  1.0000
  C   C112      1.0  0.41108  0.45391  0.45513  1.0000
  C   C113      1.0  0.41252  0.44159  0.43408  1.0000
  H   H185      1.0  0.30970  0.43315  0.42041  1.0000
  H   H186      1.0  0.30725  0.45484  0.45772  1.0000
  H   H187      1.0  0.43954  0.45986  0.46463  1.0000
  H   H188      1.0  0.44190  0.43793  0.42760  1.0000
  C   C114      1.0  0.45693  0.46171  0.27827  1.0000
  C   C115      1.0  0.42196  0.44945  0.26933  1.0000
  C   C116      1.0  0.40010  0.45555  0.24750  1.0000
  C   C117      1.0  0.41263  0.47402  0.23429  1.0000
  C   C118      1.0  0.44764  0.48626  0.24319  1.0000
  H   H189      1.0  0.17915  0.54994  0.44055  1.0000
  H   H190      1.0  0.41174  0.43526  0.27924  1.0000
  H   H191      1.0  0.37309  0.44593  0.24088  1.0000
  H   H192      1.0  0.13397  0.42527  0.00828  1.0000
  H   H193      1.0  0.33369  0.46248  0.14502  1.0000
  C   C119      1.0  0.33879  0.42160  0.05927  1.0000
  C   C120      1.0  0.36994  0.43469  0.05083  1.0000
  C   C121      1.0  0.37922  0.45637  0.06035  1.0000
  C   C122      1.0  0.35803  0.46515  0.07866  1.0000
  C   C123      1.0  0.32672  0.45211  0.08701  1.0000
  C   C124      1.0  0.31711  0.43051  0.07731  1.0000
  H   H194      1.0  0.38669  0.42822  0.03681  1.0000
  H   H195      1.0  0.40298  0.46645  0.05342  1.0000
  H   H196      1.0  0.30911  0.45897  0.10044  1.0000
  H   H197      1.0  0.29248  0.42070  0.08370  1.0000
  C   C125      1.0  0.46683  0.62984  0.14656  1.0000
  C   C126      1.0  0.34822  0.38836  0.46187  1.0000
  H   H198      1.0  0.32808  0.42555  0.12686  1.0000
  C   C127      1.0  0.05756  0.58599  0.49680  1.0000
  H   H199      1.0  0.37023  0.52165  0.47265  1.0000
  H   H200      1.0  0.42054  0.63714  0.18402  1.0000
  H   H201      1.0  0.32973  0.41111  0.15403  1.0000
  H   H202      1.0  0.31813  0.49594  0.43637  1.0000
  H   H203      1.0  0.28784  0.55981  0.49273  1.0000
  C   C128      1.0  0.40721  0.40941  0.16657  1.0000
  C   C129      1.0  0.16692  0.42961  0.00710  1.0000
  S   S45       1.0  0.32095  0.34516  0.00109  1.0000
  H   H204      1.0  0.48567  0.61473  0.15228  1.0000
  S   S46       1.0  0.09131  0.64467  0.46671  1.0000
  H   H205      1.0  0.47449  0.43573  0.15777  1.0000
  C   C130      1.0  0.19698  0.54664  0.47802  1.0000
  C   C131      1.0  0.34354  0.42564  0.14518  1.0000
  H   H206      1.0  0.19069  0.41756  0.47402  1.0000
  Fe  Fe27      1.0  0.47776  0.37693  0.34884  1.0000
  H   H207      1.0  0.47768  0.64375  0.15888  1.0000
  H   H208      1.0  0.38440  0.37458  0.13353  1.0000
  S   S47       1.0  0.48632  0.34226  0.33149  1.0000
  C   C132      1.0  0.30167  0.39128  0.46368  1.0000
  H   H209      1.0  0.48846  0.53788  0.01633  1.0000
  N   N9        1.0  0.38985  0.42281  0.14528  1.0000
  H   H210      1.0  0.21064  0.64449  0.23610  1.0000
  H   H211      1.0  0.34106  0.45046  0.17425  1.0000
  S   S48       1.0  0.41608  0.36324  0.01672  1.0000
  C   C133      1.0  0.16980  0.59148  0.48080  1.0000
  C   C134      1.0  0.37483  0.38700  0.11945  1.0000
  N   N10       1.0  0.32353  0.53161  0.44446  1.0000
  H   H212      1.0  0.35328  0.38686  0.44291  1.0000
  C   C135      1.0  0.30396  0.54983  0.45813  1.0000
  C   C136      1.0  0.32317  0.53840  0.41884  1.0000
  C   C137      1.0  0.30327  0.50888  0.44679  1.0000
  C   C138      1.0  0.24186  0.39882  0.00329  1.0000
  H   H213      1.0  0.40286  0.52410  0.42380  1.0000
  C   C139      1.0  0.28398  0.55016  0.40709  1.0000
  C   C140      1.0  0.25681  0.50697  0.43867  1.0000
  H   H214      1.0  0.38449  0.49827  0.43608  1.0000
  H   H215      1.0  0.33524  0.54480  0.49416  1.0000
  H   H216      1.0  0.27143  0.55303  0.45124  1.0000
  H   H217      1.0  0.31994  0.56629  0.45608  1.0000
  H   H218      1.0  0.34869  0.55059  0.41667  1.0000
  H   H219      1.0  0.03501  0.59111  0.48177  1.0000
  H   H220      1.0  0.30699  0.42733  0.49029  1.0000
  H   H221      1.0  0.22735  0.41551  0.45297  1.0000
  S   S49       1.0  0.48041  0.43968  0.37193  1.0000
  H   H222      1.0  0.20658  0.52921  0.47704  1.0000
  H   H223      1.0  0.43956  0.40420  0.16480  1.0000
  H   H224      1.0  0.01281  0.54953  0.45600  1.0000
  C   C141      1.0  0.39663  0.51542  0.44034  1.0000
  H   H225      1.0  0.47004  0.46252  0.14363  1.0000
  H   H226      1.0  0.28006  0.56728  0.41456  1.0000
  H   H227      1.0  0.25552  0.54021  0.40807  1.0000
  H   H228      1.0  0.28734  0.55260  0.38803  1.0000
  H   H229      1.0  0.25166  0.50225  0.41971  1.0000
  H   H230      1.0  0.23920  0.52239  0.44171  1.0000
  H   H231      1.0  0.24303  0.49365  0.44919  1.0000
  C   C142      1.0  0.32770  0.44751  0.15594  1.0000
  H   H232      1.0  0.36105  0.37282  0.47062  1.0000
  H   H233      1.0  0.38984  0.39335  0.16795  1.0000
  C   C143      1.0  0.21918  0.37602  0.00462  1.0000
  C   C144      1.0  0.04552  0.55449  0.45536  1.0000
  C   C145      1.0  0.07185  0.54992  0.47896  1.0000
  H   H234      1.0  0.40768  0.62250  0.09894  1.0000
  H   H235      1.0  0.09949  0.61209  0.26493  1.0000
  H   H236      1.0  0.43210  0.59123  0.13612  1.0000
  H   H237      1.0  0.18343  0.42238  0.02329  1.0000
  N   N11       1.0  0.16283  0.60129  0.23754  1.0000
  C   C146      1.0  0.20602  0.59745  0.23083  1.0000
  C   C147      1.0  0.15201  0.62560  0.23168  1.0000
  C   C148      1.0  0.13419  0.58586  0.22241  1.0000
  C   C149      1.0  0.16210  0.59592  0.26344  1.0000
  C   C150      1.0  0.22202  0.57288  0.23234  1.0000
  H   H238      1.0  0.28628  0.52999  0.48834  1.0000
  C   C151      1.0  0.08807  0.58697  0.22599  1.0000
  C   C152      1.0  0.12762  0.60715  0.27626  1.0000
  H   H239      1.0  0.20855  0.60325  0.21245  1.0000
  H   H240      1.0  0.22897  0.60762  0.24218  1.0000
  H   H241      1.0  0.12034  0.63000  0.23540  1.0000
  H   H242      1.0  0.15178  0.62860  0.21237  1.0000
  H   H243      1.0  0.13696  0.58907  0.20337  1.0000
  H   H244      1.0  0.14266  0.56784  0.22551  1.0000
  H   H245      1.0  0.16003  0.57731  0.26611  1.0000
  H   H246      1.0  0.19173  0.60127  0.27345  1.0000
  H   H247      1.0  0.20760  0.56251  0.21744  1.0000
  H   H248      1.0  0.25571  0.57293  0.23057  1.0000
  H   H249      1.0  0.21750  0.56474  0.24941  1.0000
  H   H250      1.0  0.34081  0.38898  0.11769  1.0000
  C   C153      1.0  0.18114  0.64346  0.24422  1.0000
  C   C154      1.0  0.07438  0.65826  0.33372  1.0000
  H   H251      1.0  0.07058  0.57624  0.21238  1.0000
  H   H252      1.0  0.07522  0.60417  0.22362  1.0000
  H   H253      1.0  0.08211  0.58000  0.24340  1.0000
  H   H254      1.0  0.11752  0.59517  0.28956  1.0000
  H   H255      1.0  0.29326  0.40705  0.45381  1.0000
  H   H256      1.0  0.13978  0.62213  0.28649  1.0000
  H   H257      1.0  0.32910  0.52345  0.40776  1.0000
  H   H258      1.0  0.18576  0.37822  0.00607  1.0000
  H   H259      1.0  0.39701  0.45513  0.12832  1.0000
  N   N12       1.0  0.42150  0.62528  0.14792  1.0000
  Fe  Fe28      1.0  0.35159  0.37714  0.01627  1.0000
  H   H260      1.0  0.36592  0.40351  0.46849  1.0000
  H   H261      1.0  0.08828  0.59158  0.49200  1.0000
  Fe  Fe29      1.0  0.04522  0.65297  0.40079  1.0000
  H   H262      1.0  0.42688  0.51312  0.45102  1.0000
  C   C155      1.0  0.36807  0.52950  0.45478  1.0000
  H   H263      1.0  0.18741  0.64031  0.26341  1.0000
  C   C156      1.0  0.40718  0.42118  0.19070  1.0000
  H   H264      1.0  0.42112  0.40967  0.20473  1.0000
  C   C157      1.0  0.41541  0.62126  0.17358  1.0000
  C   C158      1.0  0.40778  0.60443  0.13396  1.0000
  H   H265      1.0  0.30851  0.50229  0.46516  1.0000
  H   H266      1.0  0.23237  0.36692  0.02074  1.0000
  H   H267      1.0  0.38302  0.61598  0.17548  1.0000
  H   H268      1.0  0.12185  0.65780  0.30987  1.0000
  H   H269      1.0  0.38043  0.59678  0.14116  1.0000
  S   S50       1.0  0.48222  0.38545  0.38759  1.0000
  H   H270      1.0  0.40673  0.59261  0.09766  1.0000
  H   H271      1.0  0.38262  0.37959  0.10252  1.0000
  C   C159      1.0  0.41080  0.44551  0.14405  1.0000
  C   C160      1.0  0.34988  0.64426  0.14258  1.0000
  C   C161      1.0  0.22427  0.41631  0.47217  1.0000
  H   H272      1.0  0.40572  0.45624  0.15950  1.0000
  H   H273      1.0  0.44251  0.58712  0.17626  1.0000
  H   H274      1.0  0.15966  0.60881  0.48202  1.0000
  H   H275      1.0  0.47588  0.62136  0.10983  1.0000
  H   H276      1.0  0.47530  0.60890  0.19045  1.0000
  H   H277      1.0  0.05775  0.54419  0.44133  1.0000
  C   C162      1.0  0.44296  0.60300  0.18647  1.0000
  H   H278      1.0  0.42611  0.43682  0.19197  1.0000
  N   N13       1.0  0.28781  0.39224  0.48814  1.0000
  S   S51       1.0  0.37336  0.47506  0.48986  1.0000
  H   H279      1.0  0.04769  0.57238  0.44976  1.0000
  H   H280      1.0  0.39022  0.42021  0.10730  1.0000
  H   H281      1.0  0.29008  0.43542  0.01809  1.0000
  H   H282      1.0  0.39975  0.65060  0.12164  1.0000
  C   C163      1.0  0.46961  0.48011  0.26498  1.0000
  H   H283      1.0  0.46861  0.56599  0.10082  1.0000
  C   C164      1.0  0.24138  0.39491  0.48531  1.0000
  H   H284      1.0  0.24190  0.40670  0.02094  1.0000
  H   H285      1.0  0.23850  0.43204  0.47983  1.0000
  H   H286      1.0  0.01985  0.51799  0.49297  1.0000
  C   C165      1.0  0.45794  0.44496  0.14274  1.0000
  H   H287      1.0  0.09547  0.65458  0.34918  1.0000
  C   C166      1.0  0.48011  0.63586  0.12214  1.0000
  H   H288      1.0  0.17018  0.44831  0.00740  1.0000
  H   H289      1.0  0.24016  0.44814  0.02016  1.0000
  C   C167      1.0  0.39663  0.64596  0.14018  1.0000
  H   H290      1.0  0.46469  0.65118  0.11436  1.0000
  S   S52       1.0  0.48612  0.45478  0.30567  1.0000
  H   H291      1.0  0.34348  0.64565  0.16130  1.0000
  H   H292      1.0  0.27926  0.46294  0.00656  1.0000
  S   S53       1.0  0.11245  0.65713  0.41295  1.0000
  H   H293      1.0  0.33360  0.65852  0.13296  1.0000
  H   H294      1.0  0.46590  0.43798  0.12572  1.0000
  H   H295      1.0  0.33604  0.62835  0.13509  1.0000
  H   H296      1.0  0.27490  0.39496  0.00185  1.0000
  Fe  Fe30      1.0  0.38573  0.33224  0.99910  1.0000
  Fe  Fe31      1.0  0.32552  0.36033  0.96526  1.0000
  S   S54       1.0  0.38919  0.34631  0.96226  1.0000
  S   S55       1.0  0.27765  0.35987  0.93233  1.0000
  Fe  Fe32      1.0  0.41461  0.37819  0.97994  1.0000
  H   H297      1.0  0.22669  0.40592  0.92252  1.0000
  C   C168      1.0  0.14750  0.33205  0.90581  1.0000
  S   S56       1.0  0.35117  0.39327  0.98056  1.0000
  Fe  Fe33      1.0  0.05808  0.34810  0.60065  1.0000
  S   S57       1.0  0.11978  0.36707  0.60472  1.0000
  Fe  Fe34      1.0  0.32212  0.47935  0.51382  1.0000
  S   S58       1.0  0.21912  0.54366  0.52623  1.0000
  Fe  Fe35      1.0  0.24990  0.45957  0.53756  1.0000
  H   H298      1.0  0.34318  0.59515  0.62527  1.0000
  S   S59       1.0  0.20422  0.43015  0.53182  1.0000
  Fe  Fe36      1.0  0.31693  0.48810  0.56631  1.0000
  S   S60       1.0  0.32439  0.51107  0.53582  1.0000
  S   S61       1.0  0.35419  0.49184  0.60230  1.0000
  Fe  Fe37      1.0  0.25506  0.51064  0.52947  1.0000
  H   H299      1.0  0.32565  0.62263  0.61704  1.0000
  C   C169      1.0  0.42984  0.58728  0.64309  1.0000
  H   H300      1.0  0.06395  0.37973  0.68161  1.0000
  S   S62       1.0  0.24725  0.48953  0.56164  1.0000
  S   S63       1.0  0.31899  0.45619  0.54488  1.0000
  H   H301      1.0  0.45644  0.54705  0.57939  1.0000
  C   C170      1.0  0.22451  0.35737  0.66804  1.0000
  H   H302      1.0  0.12161  0.52908  0.54189  1.0000
  H   H303      1.0  0.18786  0.58833  0.51817  1.0000
  C   C171      1.0  0.25100  0.43600  0.98430  1.0000
  H   H304      1.0  0.01858  0.34879  0.68905  1.0000
  C   C172      1.0  0.23080  0.40263  0.96064  1.0000
  H   H305      1.0  0.37171  0.57837  0.65972  1.0000
  C   C173      1.0  0.39804  0.50976  0.60724  1.0000
  C   C174      1.0  0.41185  0.52270  0.58905  1.0000
  C   C175      1.0  0.44635  0.53699  0.59358  1.0000
  C   C176      1.0  0.46754  0.53851  0.61630  1.0000
  C   C177      1.0  0.45409  0.52547  0.63453  1.0000
  C   C178      1.0  0.41941  0.51118  0.62998  1.0000
  H   H306      1.0  0.39584  0.52175  0.57150  1.0000
  H   H307      1.0  0.11382  0.56660  0.52312  1.0000
  H   H308      1.0  0.45729  0.63491  0.60657  1.0000
  H   H309      1.0  0.40900  0.50117  0.64415  1.0000
  C   C179      1.0  0.14125  0.38542  0.58434  1.0000
  C   C180      1.0  0.17520  0.39916  0.59238  1.0000
  C   C181      1.0  0.19415  0.41341  0.57674  1.0000
  C   C182      1.0  0.17981  0.41379  0.55272  1.0000
  C   C183      1.0  0.14600  0.39997  0.54466  1.0000
  C   C184      1.0  0.12655  0.38604  0.56038  1.0000
  H   H310      1.0  0.18695  0.39881  0.61084  1.0000
  H   H311      1.0  0.22021  0.42384  0.58320  1.0000
  H   H312      1.0  0.13466  0.40009  0.52613  1.0000
  H   H313      1.0  0.10063  0.37554  0.55388  1.0000
  C   C185      1.0  0.22726  0.34902  0.92288  1.0000
  H   H314      1.0  0.29086  0.38279  0.53667  1.0000
  H   H315      1.0  0.39780  0.61802  0.61113  1.0000
  H   H316      1.0  0.16070  0.40469  0.97902  1.0000
  H   H317      1.0  0.22897  0.36111  0.88726  1.0000
  C   C186      1.0  0.21090  0.35217  0.89922  1.0000
  C   C187      1.0  0.39079  0.62180  0.62944  1.0000
  C   C188      1.0  0.02222  0.34501  0.72703  1.0000
  S   S64       1.0  0.25335  0.48092  0.50475  1.0000
  H   H318      1.0  0.35031  0.40753  0.53363  1.0000
  H   H319      1.0  0.17795  0.37865  0.67979  1.0000
  H   H320      1.0  0.23911  0.43197  0.93726  1.0000
  H   H321      1.0  0.48983  0.61684  0.65560  1.0000
  H   H322      1.0  0.41035  0.63606  0.67421  1.0000
  C   C189      1.0  0.39828  0.57065  0.65227  1.0000
  S   S65       1.0  0.00840  0.34565  0.57019  1.0000
  H   H323      1.0  0.02795  0.36279  0.73049  1.0000
  H   H324      1.0  0.07985  0.51788  0.52259  1.0000
  H   H325      1.0  0.14765  0.33087  0.63962  1.0000
  H   H326      1.0  0.24296  0.37301  0.66632  1.0000
  S   S66       1.0  0.02673  0.34110  0.77545  1.0000
  H   H327      1.0  0.33037  0.36598  0.50236  1.0000
  H   H328      1.0  0.11281  0.39125  0.67693  1.0000
  C   C190      1.0  0.41350  0.61743  0.67190  1.0000
  C   C191      1.0  0.10646  0.35464  0.67013  1.0000
  H   H329      1.0  0.06927  0.59788  0.53385  1.0000
  H   H330      1.0  0.43044  0.58385  0.62390  1.0000
  N   N14       1.0  0.42371  0.61219  0.64723  1.0000
  S   S67       1.0  0.01388  0.35711  0.62723  1.0000
  C   C192      1.0  0.20327  0.33746  0.93806  1.0000
  H   H331      1.0  0.01518  0.59821  0.52197  1.0000
  H   H332      1.0  0.07140  0.55862  0.53859  1.0000
  C   C193      1.0  0.10394  0.53111  0.52425  1.0000
  C   C194      1.0  0.34630  0.61320  0.63037  1.0000
  H   H333      1.0  0.10691  0.37455  0.70314  1.0000
  H   H334      1.0  0.28005  0.43328  0.97584  1.0000
  H   H335      1.0  0.15951  0.34632  0.87248  1.0000
  C   C195      1.0  0.44504  0.60896  0.69205  1.0000
  H   H336      1.0  0.47991  0.60696  0.61182  1.0000
  S   S68       1.0  0.01666  0.34832  0.84287  1.0000
  H   H337      1.0  0.23410  0.44963  0.97385  1.0000
  H   H338      1.0  0.45150  0.59066  0.69062  1.0000
  C   C196      1.0  0.30669  0.41218  0.50185  1.0000
  H   H339      1.0  0.23673  0.34898  0.68470  1.0000
  H   H340      1.0  0.38550  0.55947  0.63759  1.0000
  S   S69       1.0  0.46144  0.40485  0.97013  1.0000
  C   C197      1.0  0.01945  0.33016  0.74617  1.0000
  H   H341      1.0  0.47434  0.61866  0.69293  1.0000
  H   H342      1.0  0.08290  0.34200  0.67371  1.0000
  H   H343      1.0  0.17121  0.35454  0.71055  1.0000
  C   C198      1.0  0.35103  0.40925  0.51425  1.0000
  C   C199      1.0  0.18585  0.57986  0.50124  1.0000
  H   H344      1.0  0.38325  0.61055  0.67554  1.0000
  H   H345      1.0  0.33428  0.61626  0.64758  1.0000
  C   C200      1.0  0.17141  0.34378  0.89073  1.0000
  H   H346      1.0  0.43237  0.61166  0.70921  1.0000
  H   H347      1.0  0.47018  0.52644  0.65208  1.0000
  N   N15       1.0  0.14972  0.34545  0.67460  1.0000
  C   C201      1.0  0.22002  0.41648  0.93784  1.0000
  H   H348      1.0  0.17015  0.43227  0.97014  1.0000
  H   H349      1.0  0.46080  0.58188  0.65132  1.0000
  H   H350      1.0  0.36898  0.42494  0.51174  1.0000
  H   H351      1.0  0.26331  0.39696  0.96043  1.0000
  H   H352      1.0  0.36914  0.39522  0.50785  1.0000
  H   H353      1.0  0.18676  0.42077  0.93506  1.0000
  H   H354      1.0  0.41408  0.55931  0.66590  1.0000
  C   C202      1.0  0.19967  0.55747  0.49994  1.0000
  C   C203      1.0  0.00338  0.52845  0.50500  1.0000
  C   C204      1.0  0.18039  0.41971  0.98406  1.0000
  C   C205      1.0  0.16385  0.32898  0.92954  1.0000
  C   C206      1.0  0.01731  0.33711  0.70351  1.0000
  C   C207      1.0  0.17856  0.36385  0.66777  1.0000
  H   H355      1.0  0.11433  0.34013  0.72531  1.0000
  C   C208      1.0  0.46371  0.62435  0.64406  1.0000
  N   N16       1.0  0.22559  0.41452  0.98360  1.0000
  H   H356      1.0  0.16846  0.37044  0.64975  1.0000
  C   C209      1.0  0.28241  0.36789  0.52539  1.0000
  H   H357      1.0  0.00926  0.52183  0.52329  1.0000
  H   H358      1.0  0.46358  0.54346  0.98768  1.0000
  H   H359      1.0  0.00448  0.56094  0.52103  1.0000
  C   C210      1.0  0.09762  0.37623  0.68396  1.0000
  H   H360      1.0  0.39005  0.64060  0.63098  1.0000
  H   H361      1.0  0.28699  0.41696  0.51595  1.0000
  H   H362      1.0  0.09917  0.35863  0.65107  1.0000
  H   H363      1.0  0.46230  0.64241  0.64961  1.0000
  H   H364      1.0  0.22978  0.34661  0.65266  1.0000
  H   H365      1.0  0.05018  0.61878  0.51297  1.0000
  H   H366      1.0  0.22403  0.36489  0.98948  1.0000
  H   H367      1.0  0.24852  0.36520  0.52447  1.0000
  C   C211      1.0  0.47756  0.62431  0.61893  1.0000
  C   C212      1.0  0.16143  0.33915  0.70013  1.0000
  H   H368      1.0  0.21145  0.38710  0.95851  1.0000
  H   H369      1.0  0.29705  0.35285  0.53444  1.0000
  C   C213      1.0  0.04745  0.60068  0.51787  1.0000
  C   C214      1.0  0.08623  0.55530  0.52216  1.0000
  H   H370      1.0  0.21506  0.33495  0.95631  1.0000
  H   H371      1.0  0.12634  0.52812  0.51113  1.0000
  H   H372      1.0  0.22910  0.39545  0.50279  1.0000
  C   C215      1.0  0.01329  0.55393  0.50414  1.0000
  H   H373      1.0  0.18877  0.32775  0.70168  1.0000
  C   C216      1.0  0.12770  0.32780  0.71350  1.0000
  C   C217      1.0  0.29704  0.36998  0.50050  1.0000
  N   N17       1.0  0.05690  0.56069  0.50053  1.0000
  C   C218      1.0  0.15421  0.32557  0.65845  1.0000
  S   S70       1.0  0.31511  0.95897  0.02561  1.0000
  Fe  Fe38      1.0  0.24576  0.96211  0.01960  1.0000
  S   S71       1.0  0.19718  0.93990  0.03429  1.0000
  H   H374      1.0  0.24547  0.94633  0.36078  1.0000
  H   H375      1.0  0.14532  0.93351  0.40918  1.0000
  Fe  Fe39      1.0  0.09194  0.67632  0.44422  1.0000
  H   H376      1.0  0.03678  0.70924  0.34983  1.0000
  S   S72       1.0  0.12637  0.71027  0.45125  1.0000
  S   S73       1.0  0.01187  0.65978  0.36391  1.0000
  H   H377      1.0  0.45997  0.92020  0.00769  1.0000
  S   S74       1.0  0.02459  0.67331  0.43102  1.0000
  C   C219      1.0  0.02039  0.66751  0.29313  1.0000
  S   S75       1.0  0.04233  0.67451  0.15499  1.0000
  H   H378      1.0  0.12871  0.90357  0.32826  1.0000
  S   S76       1.0  0.11043  0.67956  0.20113  1.0000
  H   H379      1.0  0.09096  0.70532  0.40044  1.0000
  Fe  Fe40      1.0  0.06432  0.70248  0.18046  1.0000
  S   S77       1.0  0.07567  0.73675  0.16287  1.0000
  H   H380      1.0  0.44659  0.79332  0.00582  1.0000
  S   S78       1.0  0.06214  0.94137  0.16705  1.0000
  Fe  Fe41      1.0  0.07115  0.87664  0.18280  1.0000
  S   S79       1.0  0.11989  0.90231  0.19565  1.0000
  S   S80       1.0  0.07491  0.84020  0.19724  1.0000
  Fe  Fe42      1.0  0.06875  0.92573  0.20344  1.0000
  S   S81       1.0  0.05894  0.94656  0.23658  1.0000
  Fe  Fe43      1.0  0.11032  0.91618  0.15844  1.0000
  S   S82       1.0  0.16941  0.92602  0.14257  1.0000
  C   C220      1.0  0.00554  0.66592  0.31556  1.0000
  S   S83       1.0  0.06468  0.88912  0.14518  1.0000
  C   C221      1.0  0.07471  0.76538  0.17280  1.0000
  C   C222      1.0  0.07780  0.78300  0.15638  1.0000
  C   C223      1.0  0.07690  0.80594  0.16329  1.0000
  C   C224      1.0  0.07384  0.81163  0.18692  1.0000
  C   C225      1.0  0.07075  0.79399  0.20331  1.0000
  C   C226      1.0  0.07079  0.77105  0.19631  1.0000
  H   H381      1.0  0.08063  0.77884  0.13812  1.0000
  H   H382      1.0  0.07871  0.81917  0.15038  1.0000
  H   H383      1.0  0.12656  0.72539  0.31731  1.0000
  H   H384      1.0  0.06844  0.75779  0.20919  1.0000
  C   C227      1.0  0.45635  0.77526  0.00653  1.0000
  C   C228      1.0  0.10161  0.70757  0.38261  1.0000
  H   H385      1.0  0.42176  0.74418  0.01243  1.0000
  H   H386      1.0  0.13698  0.74187  0.35546  1.0000
  H   H387      1.0  0.07532  0.71630  0.32049  1.0000
  C   C229      1.0  0.10616  0.71900  0.33034  1.0000
  C   C230      1.0  0.12372  0.73458  0.46993  1.0000
  H   H388      1.0  0.06628  0.76263  0.38103  1.0000
  C   C231      1.0  0.23096  0.94627  0.37759  1.0000
  H   H389      1.0  0.06677  0.74244  0.40436  1.0000
  C   C232      1.0  0.15282  0.91567  0.37476  1.0000
  C   C233      1.0  0.09416  0.95944  0.25880  1.0000
  C   C234      1.0  0.13702  0.95796  0.25869  1.0000
  S   S84       1.0  0.16375  0.98665  0.43434  1.0000
  C   C235      1.0  0.03885  0.72405  0.36196  1.0000
  C   C236      1.0  0.08324  0.74769  0.38904  1.0000
  C   C237      1.0  0.07836  0.97160  0.27717  1.0000
  H   H390      1.0  0.14977  0.94868  0.24477  1.0000
  C   C238      1.0  0.12558  0.75609  0.40027  1.0000
  H   H391      1.0  0.12056  0.77038  0.41233  1.0000
  C   C239      1.0  0.41746  0.76031  0.00249  1.0000
  C   C240      1.0  0.18290  0.96148  0.44898  1.0000
  C   C241      1.0  0.15969  0.95144  0.46578  1.0000
  C   C242      1.0  0.17325  0.93153  0.47792  1.0000
  C   C243      1.0  0.21037  0.92130  0.47343  1.0000
  C   C244      1.0  0.23354  0.93128  0.45655  1.0000
  C   C245      1.0  0.21998  0.95122  0.44442  1.0000
  H   H392      1.0  0.13101  0.95918  0.46953  1.0000
  H   H393      1.0  0.06715  0.72558  0.48404  1.0000
  H   H394      1.0  0.23846  0.95882  0.43182  1.0000
  C   C246      1.0  0.18894  0.93765  0.06452  1.0000
  C   C247      1.0  0.21982  0.94311  0.08254  1.0000
  C   C248      1.0  0.21309  0.93968  0.10635  1.0000
  C   C249      1.0  0.17517  0.93123  0.11241  1.0000
  C   C250      1.0  0.14401  0.92614  0.09442  1.0000
  C   C251      1.0  0.15109  0.92910  0.07060  1.0000
  H   H395      1.0  0.24926  0.94928  0.07802  1.0000
  H   H396      1.0  0.23756  0.94329  0.12015  1.0000
  H   H397      1.0  0.11467  0.91964  0.09880  1.0000
  H   H398      1.0  0.12706  0.92478  0.05676  1.0000
  H   H399      1.0  0.18620  0.91286  0.41034  1.0000
  N   N18       1.0  0.18179  0.85520  0.13424  1.0000
  C   C252      1.0  0.16032  0.85813  0.15633  1.0000
  C   C253      1.0  0.15322  0.86453  0.11397  1.0000
  C   C254      1.0  0.22153  0.86868  0.13755  1.0000
  C   C255      1.0  0.19040  0.83038  0.13141  1.0000
  C   C256      1.0  0.18484  0.85079  0.17975  1.0000
  C   C257      1.0  0.11353  0.85075  0.10696  1.0000
  C   C258      1.0  0.24061  0.87643  0.11517  1.0000
  C   C259      1.0  0.20805  0.82315  0.10846  1.0000
  H   H400      1.0  0.15189  0.87619  0.15846  1.0000
  H   H401      1.0  0.13088  0.84854  0.15532  1.0000
  H   H402      1.0  0.16845  0.86613  0.09754  1.0000
  H   H403      1.0  0.14396  0.88213  0.11797  1.0000
  H   H404      1.0  0.21716  0.88456  0.14757  1.0000
  H   H405      1.0  0.24591  0.85910  0.14851  1.0000
  H   H406      1.0  0.21316  0.82436  0.14597  1.0000
  H   H407      1.0  0.16248  0.81991  0.13354  1.0000
  H   H408      1.0  0.21458  0.85992  0.18327  1.0000
  H   H409      1.0  0.16632  0.85493  0.19452  1.0000
  H   H410      1.0  0.18982  0.83225  0.18052  1.0000
  H   H411      1.0  0.09486  0.85972  0.09240  1.0000
  H   H412      1.0  0.12048  0.83373  0.10026  1.0000
  H   H413      1.0  0.09368  0.84906  0.12149  1.0000
  H   H414      1.0  0.27135  0.88408  0.12046  1.0000
  H   H415      1.0  0.22177  0.88992  0.10576  1.0000
  H   H416      1.0  0.24528  0.86246  0.10288  1.0000
  H   H417      1.0  0.24234  0.82366  0.11067  1.0000
  H   H418      1.0  0.19656  0.83331  0.09287  1.0000
  H   H419      1.0  0.19799  0.80556  0.10400  1.0000
  H   H420      1.0  0.19662  0.96747  0.27614  1.0000
  H   H421      1.0  0.23405  0.92935  0.38590  1.0000
  N   N19       1.0  0.15561  0.93759  0.36136  1.0000
  C   C260      1.0  0.17071  0.93246  0.33768  1.0000
  C   C261      1.0  0.18569  0.95421  0.37373  1.0000
  C   C262      1.0  0.11393  0.94879  0.35685  1.0000
  C   C263      1.0  0.14128  0.91874  0.32006  1.0000
  C   C264      1.0  0.15412  0.77086  0.48436  1.0000
  C   C265      1.0  0.09194  0.95480  0.37870  1.0000
  H   H422      1.0  0.17810  0.94831  0.32850  1.0000
  H   H423      1.0  0.20017  0.92282  0.33991  1.0000
  H   H424      1.0  0.17684  0.95943  0.39116  1.0000
  H   H425      1.0  0.18551  0.97026  0.36348  1.0000
  H   H426      1.0  0.11649  0.96456  0.34631  1.0000
  H   H427      1.0  0.09162  0.93777  0.34611  1.0000
  H   H428      1.0  0.11572  0.92946  0.31184  1.0000
  H   H429      1.0  0.15850  0.91292  0.30532  1.0000
  Fe  Fe44      1.0  0.01706  0.91341  0.15649  1.0000
  H   H430      1.0  0.06839  0.79811  0.22163  1.0000
  H   H431      1.0  0.11085  0.96549  0.39159  1.0000
  H   H432      1.0  0.08158  0.93937  0.38749  1.0000
  H   H433      1.0  0.06373  0.96470  0.37289  1.0000
  N   N20       1.0  0.08325  0.72880  0.37121  1.0000
  C   C266      1.0  0.10478  0.73652  0.35036  1.0000
  H   H434      1.0  0.99931  0.67105  0.27761  1.0000
  H   H435      1.0  0.15505  0.92415  0.49083  1.0000
  C   C267      1.0  0.14936  0.70557  0.38553  1.0000
  H   H436      1.0  0.14551  0.76263  0.38718  1.0000
  H   H437      1.0  0.08964  0.75201  0.34240  1.0000
  C   C268      1.0  0.09144  0.73806  0.48398  1.0000
  H   H438      1.0  0.02134  0.70559  0.39312  1.0000
  S   S85       1.0  0.01498  0.69643  0.20462  1.0000
  H   H439      1.0  0.40860  0.66100  0.15054  1.0000
  C   C269      1.0  0.12179  0.77437  0.49839  1.0000
  H   H440      1.0  0.26234  0.92360  0.45293  1.0000
  H   H441      1.0  0.15944  0.69196  0.37396  1.0000
  Fe  Fe45      1.0  0.05910  0.67151  0.22390  1.0000
  S   S86       1.0  0.08352  0.66659  0.26314  1.0000
  H   H442      1.0  0.33909  0.99123  0.10707  1.0000
  H   H443      1.0  0.47182  0.91247  0.03776  1.0000
  C   C270      1.0  0.15490  0.75121  0.47019  1.0000
  C   C271      1.0  0.09045  0.75782  0.49798  1.0000
  H   H444      1.0  0.24890  0.95842  0.38949  1.0000
  H   H445      1.0  0.12397  0.90646  0.36835  1.0000
  H   H446      1.0  0.14178  0.74292  0.41155  1.0000
  H   H447      1.0  0.18011  0.74880  0.45949  1.0000
  H   H448      1.0  0.13407  0.90420  0.40851  1.0000
  C   C272      1.0  0.10490  0.98235  0.29501  1.0000
  H   H449      1.0  0.15981  0.70026  0.40391  1.0000
  H   H450      1.0  0.17866  0.90428  0.37115  1.0000
  C   C273      1.0  0.15484  0.91721  0.40204  1.0000
  C   C274      1.0  0.14776  0.98107  0.29473  1.0000
  H   H451      1.0  0.11883  0.70254  0.33688  1.0000
  S   S87       1.0  0.02050  0.89916  0.19328  1.0000
  H   H452      1.0  0.00098  0.75620  0.13745  1.0000
  H   H453      1.0  0.16664  0.72114  0.38245  1.0000
  H   H454      1.0  0.32929  0.91001  0.48646  1.0000
  C   C275      1.0  0.16354  0.96867  0.27655  1.0000
  H   H455      1.0  0.08986  0.69240  0.37242  1.0000
  H   H456      1.0  0.04530  0.97288  0.27751  1.0000
  H   H457      1.0  0.30890  0.96615  0.10648  1.0000
  H   H458      1.0  0.02656  0.97777  0.19523  1.0000
  C   C276      1.0  0.06244  0.66457  0.29084  1.0000
  H   H459      1.0  0.30055  0.98546  0.08241  1.0000
  C   C277      1.0  0.00901  0.71880  0.38061  1.0000
  C   C278      1.0  0.30774  0.98440  0.10184  1.0000
  H   H460      1.0  0.24668  0.98507  0.11179  1.0000
  Fe  Fe46      1.0  0.99417  0.66767  0.17968  1.0000
  H   H461      1.0  0.35883  0.89044  0.47137  1.0000
  H   H462      1.0  0.02538  0.73855  0.35127  1.0000
  H   H463      1.0  0.17848  0.78331  0.48437  1.0000
  S   S88       1.0  0.22935  0.89625  0.48838  1.0000
  H   H464      1.0  0.00136  0.73421  0.39038  1.0000
  C   C279      1.0  0.48391  0.91216  0.02022  1.0000
  H   H465      1.0  0.16647  0.66038  0.24208  1.0000
  H   H466      1.0  0.48740  0.89415  0.01549  1.0000
  H   H467      1.0  0.46788  0.77282  0.02543  1.0000
  C   C280      1.0  0.01031  0.99128  0.18450  1.0000
  H   H468      1.0  0.39091  0.76953  0.00872  1.0000
  C   C281      1.0  0.03235  0.66122  0.33600  1.0000
  H   H469      1.0  0.31671  0.88026  0.48621  1.0000
  C   C282      1.0  0.34235  0.89267  0.48734  1.0000
  H   H470      1.0  0.09217  0.99179  0.30883  1.0000
  C   C283      1.0  0.08925  0.66001  0.31133  1.0000
  H   H471      1.0  0.44213  0.82460  0.73761  1.0000
  H   H472      1.0  0.26286  0.95243  0.92823  1.0000
  S   S89       1.0  0.35750  0.95102  0.96024  1.0000
  S   S90       1.0  0.24486  0.96497  0.97988  1.0000
  H   H473      1.0  0.49075  0.88900  0.73258  1.0000
  Fe  Fe47      1.0  0.20262  0.87485  0.51704  1.0000
  S   S91       1.0  0.13646  0.86580  0.52182  1.0000
  H   H474      1.0  0.44494  0.79483  0.93817  1.0000
  Fe  Fe48      1.0  0.23877  0.84575  0.55946  1.0000
  S   S92       1.0  0.17501  0.83496  0.56693  1.0000
  S   S93       1.0  0.29593  0.82918  0.58031  1.0000
  Fe  Fe49      1.0  0.15986  0.82984  0.52768  1.0000
  H   H475      1.0  0.42299  0.82429  0.68452  1.0000
  Fe  Fe50      1.0  0.15529  0.87123  0.56068  1.0000
  S   S94       1.0  0.12141  0.88962  0.58874  1.0000
  S   S95       1.0  0.22465  0.83850  0.52041  1.0000
  S   S96       1.0  0.22032  0.88237  0.55562  1.0000
  C   C284      1.0  0.03482  0.84103  0.53644  1.0000
  S   S97       1.0  0.46184  0.85006  0.64907  1.0000
  H   H476      1.0  0.45629  0.72586  0.98387  1.0000
  C   C285      1.0  0.23381  0.95711  0.91743  1.0000
  H   H477      1.0  0.32382  0.83240  0.53325  1.0000
  H   H478      1.0  0.31565  0.84420  0.50470  1.0000
  H   H479      1.0  0.30222  0.90020  0.56686  1.0000
  H   H480      1.0  0.12941  0.82064  0.62058  1.0000
  C   C286      1.0  0.34177  0.83551  0.59951  1.0000
  C   C287      1.0  0.35253  0.85752  0.60689  1.0000
  C   C288      1.0  0.38944  0.86158  0.62174  1.0000
  C   C289      1.0  0.41603  0.84374  0.62981  1.0000
  C   C290      1.0  0.40514  0.82173  0.62253  1.0000
  C   C291      1.0  0.36848  0.81771  0.60745  1.0000
  H   H481      1.0  0.33230  0.87140  0.60126  1.0000
  H   H482      1.0  0.39737  0.87870  0.62712  1.0000
  H   H483      1.0  0.42503  0.80777  0.62842  1.0000
  H   H484      1.0  0.36069  0.80060  0.60193  1.0000
  H   H485      1.0  0.05652  0.77676  0.56697  1.0000
  H   H486      1.0  0.01875  0.92781  0.63273  1.0000
  C   C292      1.0  0.03951  0.90056  0.57288  1.0000
  C   C293      1.0  0.07155  0.90147  0.59123  1.0000
  C   C294      1.0  0.06360  0.91149  0.61274  1.0000
  C   C295      1.0  0.02424  0.92032  0.61600  1.0000
  H   H487      1.0  0.04520  0.89333  0.55612  1.0000
  H   H488      1.0  0.08808  0.91240  0.62708  1.0000
  C   C296      1.0  0.06211  0.83504  0.55952  1.0000
  C   C297      1.0  0.01272  0.80495  0.57042  1.0000
  C   C298      1.0  0.38742  0.92575  0.96118  1.0000
  C   C299      1.0  0.41566  0.92257  0.94431  1.0000
  C   C300      1.0  0.43952  0.90265  0.94404  1.0000
  C   C301      1.0  0.43519  0.88555  0.96060  1.0000
  C   C302      1.0  0.07488  0.81341  0.59621  1.0000
  H   H489      1.0  0.43860  0.86658  0.56915  1.0000
  H   H490      1.0  0.41892  0.93555  0.93124  1.0000
  C   C303      1.0  0.41400  0.86492  0.55420  1.0000
  H   H491      1.0  0.36674  0.84350  0.52040  1.0000
  H   H492      1.0  0.99959  0.79668  0.58559  1.0000
  H   H493      1.0  0.47920  0.80974  0.95891  1.0000
  H   H494      1.0  0.06521  0.76024  0.50865  1.0000
  H   H495      1.0  0.35172  0.92506  0.53118  1.0000
  H   H496      1.0  0.09599  0.80270  0.58674  1.0000
  H   H497      1.0  0.45260  0.87174  0.69868  1.0000
  H   H498      1.0  0.40314  0.87558  0.99026  1.0000
  C   C304      1.0  0.38341  0.90873  0.97786  1.0000
  H   H499      1.0  0.42972  0.86199  0.53814  1.0000
  C   C305      1.0  0.45627  0.79583  0.95723  1.0000
  H   H500      1.0  0.00544  0.98851  0.97560  1.0000
  C   C306      1.0  0.31643  0.91524  0.55941  1.0000
  H   H501      1.0  0.29269  0.92879  0.55755  1.0000
  C   C307      1.0  0.48948  0.87459  0.74495  1.0000
  N   N21       1.0  0.35392  0.88829  0.53262  1.0000
  N   N22       1.0  0.41939  0.85804  0.72670  1.0000
  C   C308      1.0  0.44480  0.86745  0.74826  1.0000
  C   C309      1.0  0.37531  0.85663  0.73255  1.0000
  C   C310      1.0  0.42279  0.87420  0.70640  1.0000
  C   C311      1.0  0.43676  0.83520  0.72142  1.0000
  H   H502      1.0  0.39545  0.84995  0.55837  1.0000
  C   C312      1.0  0.36753  0.84043  0.75288  1.0000
  C   C313      1.0  0.38832  0.87340  0.68569  1.0000
  C   C314      1.0  0.41250  0.82077  0.70210  1.0000
  H   H503      1.0  0.44755  0.85491  0.76295  1.0000
  Fe  Fe51      1.0  0.31454  0.96475  0.98645  1.0000
  H   H504      1.0  0.35381  0.85133  0.71720  1.0000
  H   H505      1.0  0.36418  0.87373  0.73716  1.0000
  H   H506      1.0  0.42958  0.88260  0.75513  1.0000
  H   H507      1.0  0.03651  0.85948  0.53305  1.0000
  H   H508      1.0  0.46823  0.83711  0.71577  1.0000
  H   H509      1.0  0.40909  0.90128  0.55261  1.0000
  H   H510      1.0  0.00193  0.83652  0.53589  1.0000
  C   C315      1.0  0.33172  0.91050  0.53510  1.0000
  H   H511      1.0  0.08736  0.82416  0.55415  1.0000
  H   H512      1.0  0.37657  0.82282  0.74918  1.0000
  H   H513      1.0  0.38341  0.84607  0.77005  1.0000
  C   C316      1.0  0.26957  0.98621  0.88101  1.0000
  H   H514      1.0  0.39740  0.88444  0.67129  1.0000
  H   H515      1.0  0.35880  0.88021  0.69085  1.0000
  H   H516      1.0  0.38335  0.85635  0.67803  1.0000
  H   H517      1.0  0.45276  0.75983  0.95912  1.0000
  H   H518      1.0  0.37868  0.82268  0.70104  1.0000
  H   H519      1.0  0.41813  0.80258  0.70614  1.0000
  H   H520      1.0  0.37473  0.88722  0.57009  1.0000
  H   H521      1.0  0.20798  0.95043  0.92675  1.0000
  H   H522      1.0  0.11581  0.84329  0.60065  1.0000
  H   H523      1.0  0.30392  0.91169  0.52198  1.0000
  H   H524      1.0  0.31694  0.86592  0.55193  1.0000
  H   H525      1.0  0.04452  0.79310  0.54027  1.0000
  H   H526      1.0  0.04707  0.83255  0.52119  1.0000
  H   H527      1.0  0.34205  0.92142  0.57219  1.0000
  H   H528      1.0  0.33395  0.84018  0.75490  1.0000
  S   S98       1.0  0.11823  0.79916  0.51629  1.0000
  H   H529      1.0  0.42941  0.80018  0.96681  1.0000
  H   H530      1.0  0.42314  0.89205  0.71275  1.0000
  H   H531      1.0  0.40777  0.75672  0.98371  1.0000
  C   C317      1.0  0.10289  0.83003  0.61141  1.0000
  H   H532      1.0  0.19939  0.98519  0.90251  1.0000
  H   H533      1.0  0.36170  0.91083  0.99086  1.0000
  H   H534      1.0  0.07803  0.85084  0.56596  1.0000
  C   C318      1.0  0.32307  0.86929  0.53340  1.0000
  N   N23       1.0  0.04155  0.82386  0.57909  1.0000
  C   C319      1.0  0.30221  0.99093  0.92221  1.0000
  H   H535      1.0  0.29277  0.87441  0.52408  1.0000
  C   C320      1.0  0.38768  0.88657  0.55281  1.0000
  H   H536      1.0  0.23216  0.94833  0.90016  1.0000
  H   H537      1.0  0.46078  0.90041  0.93083  1.0000
  S   S99       1.0  0.46370  0.85983  0.96089  1.0000
  C   C321      1.0  0.40696  0.88872  0.97745  1.0000
  C   C322      1.0  0.37302  0.88927  0.50960  1.0000
  C   C323      1.0  0.47573  0.77295  0.96516  1.0000
  H   H538      1.0  0.08632  0.83810  0.62528  1.0000
  H   H539      1.0  0.06122  0.80186  0.60882  1.0000
  C   C324      1.0  0.03201  0.78625  0.55619  1.0000
  C   C325      1.0  0.33379  0.84644  0.52216  1.0000
  H   H540      1.0  0.00776  0.77378  0.54996  1.0000
  C   C326      1.0  0.22842  0.98296  0.91436  1.0000
  H   H541      1.0  0.01039  0.83344  0.60936  1.0000
  H   H542      1.0  0.39118  0.87396  0.50657  1.0000
  H   H543      1.0  0.29370  0.98735  0.94031  1.0000
  H   H544      1.0  0.39594  0.90332  0.50999  1.0000
  H   H545      1.0  0.03925  0.85571  0.59779  1.0000
  C   C327      1.0  0.99995  0.90904  0.57626  1.0000
  H   H546      1.0  0.23970  0.98644  0.86958  1.0000
  C   C328      1.0  0.01889  0.84099  0.59258  1.0000
  H   H547      1.0  0.27906  0.96814  0.88209  1.0000
  H   H548      1.0  0.04038  0.98898  0.95278  1.0000
  H   H549      1.0  0.31856  0.97541  0.91716  1.0000
  H   H550      1.0  0.22231  0.99001  0.93180  1.0000
  H   H551      1.0  0.30247  0.99013  0.85003  1.0000
  H   H552      1.0  0.49231  0.92666  0.97608  1.0000
  N   N24       1.0  0.49037  0.77082  0.99110  1.0000
  C   C329      1.0  0.48981  0.72739  0.98263  1.0000
  Fe  Fe52      1.0  0.83709  0.14498  0.45559  1.0000
  S   S100      1.0  0.89120  0.16927  0.46092  1.0000
  S   S101      1.0  0.79012  0.15572  0.42419  1.0000
  Fe  Fe53      1.0  0.93180  0.13837  0.46181  1.0000
  H   H553      1.0  0.99349  0.17129  0.36941  1.0000
  H   H554      1.0  0.77085  0.07857  0.06373  1.0000
  S   S102      1.0  0.87873  0.11450  0.45417  1.0000
  Fe  Fe54      1.0  0.52807  0.14355  0.08288  1.0000
  S   S103      1.0  0.57941  0.13117  0.06129  1.0000
  S   S104      1.0  0.52846  0.17151  0.11020  1.0000
  S   S105      1.0  0.55455  0.19859  0.33449  1.0000
  Fe  Fe55      1.0  0.55187  0.16636  0.35559  1.0000
  S   S106      1.0  0.59741  0.14973  0.38444  1.0000
  H   H555      1.0  0.77469  0.09240  0.10466  1.0000
  S   S107      1.0  0.80760  0.03723  0.04733  1.0000
  H   H556      1.0  0.78282  0.08188  0.02516  1.0000
  H   H557      1.0  0.59205  0.27631  0.38112  1.0000
  C   C330      1.0  0.52061  0.06606  0.04298  1.0000
  Fe  Fe56      1.0  0.73957  0.02993  0.04510  1.0000
  S   S108      1.0  0.69815  0.04515  0.07122  1.0000
  H   H558      1.0  0.57342  0.18568  0.22119  1.0000
  H   H559      1.0  0.82554  0.17574  0.34907  1.0000
  H   H560      1.0  0.61324  0.29841  0.31933  1.0000
  H   H561      1.0  0.86838  0.19756  0.38472  1.0000
  H   H562      1.0  0.81973  0.14614  0.35216  1.0000
  H   H563      1.0  0.81919  0.09988  0.09059  1.0000
  H   H564      1.0  0.86501  0.18106  0.41133  1.0000
  C   C331      1.0  0.60940  0.10606  0.06408  1.0000
  C   C332      1.0  0.61524  0.09376  0.08513  1.0000
  C   C333      1.0  0.64163  0.07478  0.08682  1.0000
  C   C334      1.0  0.66161  0.06753  0.06738  1.0000
  C   C335      1.0  0.65389  0.07912  0.04597  1.0000
  C   C336      1.0  0.62875  0.09855  0.04451  1.0000
  H   H565      1.0  0.60055  0.09929  0.10033  1.0000
  H   H566      1.0  0.64720  0.06589  0.10346  1.0000
  H   H567      1.0  0.66779  0.07327  0.03067  1.0000
  H   H568      1.0  0.62427  0.10788  0.02811  1.0000
  H   H569      1.0  0.53403  0.05596  0.07965  1.0000
  C   C337      1.0  0.76177  0.09640  0.06671  1.0000
  C   C338      1.0  0.54382  0.09079  0.99993  1.0000
  Fe  Fe57      1.0  0.80042  0.03832  0.00773  1.0000
  C   C339      1.0  0.73614  0.15407  0.41386  1.0000
  C   C340      1.0  0.70797  0.14104  0.42509  1.0000
  C   C341      1.0  0.66590  0.14001  0.41585  1.0000
  C   C342      1.0  0.65102  0.15212  0.39537  1.0000
  C   C343      1.0  0.67915  0.16525  0.38420  1.0000
  C   C344      1.0  0.72130  0.16610  0.39331  1.0000
  H   H570      1.0  0.71862  0.13164  0.44084  1.0000
  H   H571      1.0  0.64469  0.12978  0.42473  1.0000
  H   H572      1.0  0.66851  0.17461  0.36843  1.0000
  H   H573      1.0  0.74256  0.17623  0.38437  1.0000
  H   H574      1.0  0.51069  0.25358  0.16056  1.0000
  C   C345      1.0  0.50710  0.06217  0.06784  1.0000
  C   C346      1.0  0.84573  0.10543  0.04600  1.0000
  C   C347      1.0  0.53023  0.16738  0.19675  1.0000
  H   H575      1.0  0.95466  0.09804  0.42130  1.0000
  H   H576      1.0  0.54517  0.21299  0.17765  1.0000
  H   H577      1.0  0.54750  0.07773  0.04528  1.0000
  C   C348      1.0  0.50514  0.07585  0.00135  1.0000
  C   C349      1.0  0.73436  0.12924  0.04292  1.0000
  H   H578      1.0  0.53728  0.27192  0.40576  1.0000
  H   H579      1.0  0.87305  0.11171  0.05743  1.0000
  H   H580      1.0  0.56672  0.10935  0.40359  1.0000
  H   H581      1.0  0.95874  0.99738  0.15920  1.0000
  C   C350      1.0  0.59584  0.31510  0.35082  1.0000
  H   H582      1.0  0.51657  0.12856  0.37691  1.0000
  H   H583      1.0  0.59146  0.27941  0.33885  1.0000
  H   H584      1.0  0.94265  0.17205  0.41049  1.0000
  H   H585      1.0  0.71702  0.13369  0.07901  1.0000
  H   H586      1.0  0.96761  0.02901  0.45501  1.0000
  H   H587      1.0  0.54540  0.10551  0.01197  1.0000
  C   C351      1.0  0.61221  0.29428  0.33830  1.0000
  H   H588      1.0  0.54722  0.17034  0.18170  1.0000
  H   H589      1.0  0.82790  0.16392  0.37777  1.0000
  C   C352      1.0  0.49790  0.04974  0.38490  1.0000
  N   N25       1.0  0.76725  0.11119  0.04552  1.0000
  S   S109      1.0  0.81317  0.00144  0.00367  1.0000
  S   S110      1.0  0.73144  0.03420  0.00579  1.0000
  S   S111      1.0  0.74984  0.99210  0.04447  1.0000
  H   H590      1.0  0.57792  0.05832  0.39581  1.0000
  H   H591      1.0  0.50346  0.10888  0.03919  1.0000
  S   S112      1.0  0.54402  0.18332  0.26706  1.0000
  H   H592      1.0  0.81093  0.13431  0.03212  1.0000
  Fe  Fe58      1.0  0.87875  0.11245  0.49383  1.0000
  H   H593      1.0  0.70349  0.12160  0.03759  1.0000
  C   C353      1.0  0.78565  0.10314  0.09053  1.0000
  H   H594      1.0  0.56982  0.23186  0.15963  1.0000
  H   H595      1.0  0.64399  0.28964  0.34546  1.0000
  H   H596      1.0  0.62002  0.32305  0.42433  1.0000
  C   C354      1.0  0.54511  0.17596  0.21922  1.0000
  H   H597      1.0  0.72859  0.09511  0.06954  1.0000
  C   C355      1.0  0.58805  0.07595  0.39920  1.0000
  H   H598      1.0  0.49804  0.24066  0.22519  1.0000
  H   H599      1.0  0.89871  0.20466  0.41153  1.0000
  N   N26       1.0  0.51649  0.09237  0.38244  1.0000
  N   N27       1.0  0.59345  0.31287  0.37711  1.0000
  H   H600      1.0  0.60679  0.08178  0.38511  1.0000
  C   C356      1.0  0.54197  0.22107  0.16006  1.0000
  H   H601      1.0  0.52807  0.24616  0.20139  1.0000
  H   H602      1.0  0.97092  0.31957  0.49410  1.0000
  H   H603      1.0  0.57044  0.29270  0.42044  1.0000
  H   H604      1.0  0.75876  0.15223  0.07160  1.0000
  H   H605      1.0  0.64165  0.29493  0.42327  1.0000
  S   S113      1.0  0.52345  0.14597  0.32439  1.0000
  H   H606      1.0  0.81549  0.13288  0.06267  1.0000
  C   C357      1.0  0.98529  0.07709  0.48123  1.0000
  C   C358      1.0  0.52399  0.17184  0.23920  1.0000
  H   H607      1.0  0.72986  0.08778  0.02327  1.0000
  C   C359      1.0  0.72953  0.14375  0.06488  1.0000
  C   C360      1.0  0.80927  0.12202  0.04680  1.0000
  N   N28       1.0  0.91118  0.15385  0.38089  1.0000
  C   C361      1.0  0.95103  0.14309  0.37512  1.0000
  C   C362      1.0  0.89208  0.13780  0.39727  1.0000
  C   C363      1.0  0.92221  0.17560  0.39392  1.0000
  C   C364      1.0  0.88408  0.15815  0.35820  1.0000
  H   H608      1.0  0.53349  0.04991  0.03691  1.0000
  C   C365      1.0  0.87923  0.11445  0.38683  1.0000
  C   C366      1.0  0.88605  0.19021  0.40058  1.0000
  C   C367      1.0  0.83710  0.16101  0.35991  1.0000
  C   C368      1.0  0.53224  0.08979  0.35855  1.0000
  H   H609      1.0  0.94499  0.12674  0.36574  1.0000
  H   H610      1.0  0.86459  0.14501  0.40429  1.0000
  H   H611      1.0  0.91385  0.13477  0.41335  1.0000
  H   H612      1.0  0.98264  0.06984  0.39472  1.0000
  H   H613      1.0  0.98216  0.05446  0.44144  1.0000
  H   H614      1.0  0.89485  0.17352  0.34930  1.0000
  H   H615      1.0  0.88714  0.14398  0.34559  1.0000
  H   H616      1.0  0.60906  0.07601  0.41587  1.0000
  C   C369      1.0  0.54950  0.28938  0.40431  1.0000
  H   H617      1.0  0.55309  0.10420  0.35523  1.0000
  H   H618      1.0  0.86007  0.11568  0.36967  1.0000
  H   H619      1.0  0.90639  0.10357  0.38492  1.0000
  H   H620      1.0  0.86039  0.10557  0.39920  1.0000
  H   H621      1.0  0.85412  0.10359  0.02766  1.0000
  Fe  Fe59      1.0  0.52198  0.17863  0.30384  1.0000
  Fe  Fe60      1.0  0.74467  0.99671  0.00493  1.0000
  H   H622      1.0  0.74009  0.14132  0.02863  1.0000
  H   H623      1.0  0.49673  0.23672  0.13581  1.0000
  H   H624      1.0  0.70648  0.15725  0.06003  1.0000
  C   C370      1.0  0.55199  0.09232  0.40183  1.0000
  H   H625      1.0  0.95650  0.07471  0.46927  1.0000
  H   H626      1.0  0.78093  0.12093  0.09548  1.0000
  H   H627      1.0  0.52239  0.30082  0.40370  1.0000
  H   H628      1.0  0.94003  0.18702  0.38326  1.0000
  H   H629      1.0  0.97105  0.13897  0.39160  1.0000
  H   H630      1.0  0.55175  0.07458  0.35753  1.0000
  H   H631      1.0  0.65317  0.29691  0.38375  1.0000
  C   C371      1.0  0.97783  0.15700  0.35952  1.0000
  H   H632      1.0  0.92409  0.02470  0.21186  1.0000
  H   H633      1.0  0.92865  0.01982  0.18182  1.0000
  C   C372      1.0  0.76055  0.09614  0.02403  1.0000
  H   H634      1.0  0.83889  0.08837  0.05269  1.0000
  H   H635      1.0  0.54242  0.20766  0.14646  1.0000
  H   H636      1.0  0.67302  0.32002  0.42234  1.0000
  H   H637      1.0  0.51424  0.08635  0.32087  1.0000
  C   C373      1.0  0.49886  0.08803  0.33732  1.0000
  H   H638      1.0  0.54601  0.28806  0.36701  1.0000
  H   H639      1.0  0.54068  0.08882  0.41928  1.0000
  H   H640      1.0  0.87986  0.00105  0.15488  1.0000
  H   H641      1.0  0.57241  0.08068  0.00399  1.0000
  C   C374      1.0  0.91428  0.01299  0.19707  1.0000
  S   S114      1.0  0.83297  0.14117  0.49492  1.0000
  H   H642      1.0  0.88014  0.01387  0.19341  1.0000
  C   C375      1.0  0.98693  0.09847  0.41841  1.0000
  H   H643      1.0  0.56494  0.31901  0.34153  1.0000
  C   C376      1.0  0.49577  0.11518  0.38270  1.0000
  H   H644      1.0  0.51325  0.04351  0.40200  1.0000
  H   H645      1.0  0.89274  0.30253  0.48787  1.0000
  S   S115      1.0  0.99271  0.13780  0.44527  1.0000
  C   C377      1.0  0.64255  0.31242  0.41621  1.0000
  C   C378      1.0  0.50285  0.23582  0.15539  1.0000
  H   H646      1.0  0.49689  0.07805  0.07570  1.0000
  H   H647      1.0  0.96020  0.16314  0.34309  1.0000
  Fe  Fe61      1.0  0.81785  0.99993  0.04349  1.0000
  C   C379      1.0  0.49380  0.15464  0.19395  1.0000
  H   H648      1.0  0.50889  0.12496  0.42034  1.0000
  H   H649      1.0  0.51801  0.04662  0.37076  1.0000
  C   C380      1.0  0.57099  0.29111  0.38146  1.0000
  H   H650      1.0  0.98056  0.02284  0.41439  1.0000
  C   C381      1.0  0.63700  0.31236  0.38899  1.0000
  H   H651      1.0  0.50412  0.30074  0.30857  1.0000
  C   C382      1.0  0.76314  0.10760  0.99986  1.0000
  H   H652      1.0  0.49736  0.26016  0.31906  1.0000
  C   C383      1.0  0.49593  0.24434  0.20595  1.0000
  H   H653      1.0  0.98235  0.04335  0.49521  1.0000
  H   H654      1.0  0.97584  0.08538  0.49734  1.0000
  H   H655      1.0  0.82979  0.14461  0.55605  1.0000
  H   H656      1.0  0.87502  0.26746  0.50619  1.0000
  C   C384      1.0  0.90851  0.11059  0.60922  1.0000
  H   H657      1.0  0.94427  0.28817  0.91218  1.0000
  H   H658      1.0  0.82577  0.29469  0.82094  1.0000
  H   H659      1.0  0.95050  0.16868  0.55943  1.0000
  H   H660      1.0  0.94058  0.03072  0.89945  1.0000
  H   H661      1.0  0.85134  0.24831  0.90553  1.0000
  S   S116      1.0  0.93415  0.13507  0.50118  1.0000
  H   H662      1.0  0.84690  0.14203  0.58670  1.0000
  C   C385      1.0  0.98822  0.05115  0.93697  1.0000
  S   S117      1.0  0.93526  0.09994  0.83891  1.0000
  S   S118      1.0  0.95551  0.31513  0.60544  1.0000
  Fe  Fe62      1.0  0.93194  0.07581  0.86930  1.0000
  S   S119      1.0  0.87309  0.06474  0.88425  1.0000
  C   C386      1.0  0.91261  0.28094  0.90977  1.0000
  C   C387      1.0  0.95769  0.10129  0.56179  1.0000
  H   H663      1.0  0.91485  0.26350  0.91689  1.0000
  H   H664      1.0  0.86836  0.31749  0.66375  1.0000
  H   H665      1.0  0.92837  0.06506  0.73211  1.0000
  C   C388      1.0  0.89724  0.30204  0.50754  1.0000
  Fe  Fe63      1.0  0.88924  0.16411  0.49985  1.0000
  H   H666      1.0  0.91104  0.12580  0.79688  1.0000
  H   H667      1.0  0.87581  0.21471  0.88656  1.0000
  H   H668      1.0  0.92221  0.17537  0.58354  1.0000
  S   S120      1.0  0.85580  0.03405  0.60933  1.0000
  H   H669      1.0  0.92992  0.11748  0.77012  1.0000
  H   H670      1.0  0.91879  0.03734  0.95143  1.0000
  C   C389      1.0  0.87702  0.06505  0.53700  1.0000
  C   C390      1.0  0.89561  0.04435  0.54414  1.0000
  C   C391      1.0  0.88929  0.03449  0.56608  1.0000
  C   C392      1.0  0.86413  0.04523  0.58115  1.0000
  C   C393      1.0  0.84527  0.06584  0.57390  1.0000
  C   C394      1.0  0.85151  0.07567  0.55194  1.0000
  H   H671      1.0  0.91506  0.03584  0.53265  1.0000
  H   H672      1.0  0.90394  0.01862  0.57137  1.0000
  H   H673      1.0  0.82530  0.07413  0.58527  1.0000
  H   H674      1.0  0.83586  0.09117  0.54638  1.0000
  C   C395      1.0  0.86542  0.06469  0.91455  1.0000
  C   C396      1.0  0.83671  0.04950  0.92256  1.0000
  C   C397      1.0  0.82853  0.04942  0.94635  1.0000
  C   C398      1.0  0.84838  0.06491  0.96223  1.0000
  C   C399      1.0  0.87715  0.08012  0.95425  1.0000
  C   C400      1.0  0.88593  0.07990  0.93054  1.0000
  H   H675      1.0  0.82051  0.03781  0.91025  1.0000
  H   H676      1.0  0.80623  0.03769  0.95228  1.0000
  H   H677      1.0  0.89252  0.09220  0.96643  1.0000
  H   H678      1.0  0.90769  0.09187  0.92448  1.0000
  C   C401      1.0  0.94953  0.04525  0.76277  1.0000
  C   C402      1.0  0.93550  0.04822  0.73871  1.0000
  C   C403      1.0  0.93088  0.02963  0.72302  1.0000
  C   C404      1.0  0.94079  0.00776  0.73112  1.0000
  C   C405      1.0  0.97420  0.13661  0.79427  1.0000
  H   H679      1.0  0.94027  0.10213  0.54402  1.0000
  H   H680      1.0  0.77138  0.28922  0.86038  1.0000
  H   H681      1.0  0.92035  0.03229  0.70459  1.0000
  H   H682      1.0  0.81639  0.26315  0.84435  1.0000
  H   H683      1.0  0.87697  0.30063  0.83497  1.0000
  S   S121      1.0  0.95925  0.24796  0.83684  1.0000
  C   C406      1.0  0.95009  0.20168  0.84104  1.0000
  H   H684      1.0  0.90891  0.01552  0.91864  1.0000
  H   H685      1.0  0.86963  0.26235  0.84242  1.0000
  H   H686      1.0  0.91390  0.23610  0.88475  1.0000
  H   H687      1.0  0.94022  0.09102  0.57358  1.0000
  H   H688      1.0  0.91797  0.20483  0.83522  1.0000
  H   H689      1.0  0.94116  0.16550  0.84440  1.0000
  C   C407      1.0  0.84524  0.29555  0.83811  1.0000
  S   S122      1.0  0.89122  0.19132  0.52897  1.0000
  C   C408      1.0  0.96844  0.12523  0.57130  1.0000
  H   H690      1.0  0.96128  0.20110  0.77099  1.0000
  C   C409      1.0  0.94858  0.22446  0.51902  1.0000
  C   C410      1.0  0.92096  0.21659  0.53445  1.0000
  C   C411      1.0  0.91654  0.22917  0.55508  1.0000
  C   C412      1.0  0.93942  0.24924  0.56027  1.0000
  C   C413      1.0  0.88163  0.23139  0.87853  1.0000
  C   C414      1.0  0.95447  0.00477  0.75522  1.0000
  H   H691      1.0  0.95447  0.12735  0.73796  1.0000
  H   H692      1.0  0.85046  0.00352  0.71183  1.0000
  C   C415      1.0  0.94579  0.02951  0.96187  1.0000
  H   H693      1.0  0.76756  0.26642  0.88135  1.0000
  H   H694      1.0  0.82707  0.01442  0.73711  1.0000
  H   H695      1.0  0.97434  0.07439  0.96559  1.0000
  H   H696      1.0  0.89523  0.22335  0.56715  1.0000
  H   H697      1.0  0.96954  0.02068  0.78935  1.0000
  C   C416      1.0  0.82391  0.28734  0.88817  1.0000
  H   H698      1.0  0.83561  0.28706  0.51137  1.0000
  C   C417      1.0  0.84979  0.24864  0.88591  1.0000
  C   C418      1.0  0.97130  0.24458  0.52416  1.0000
  C   C419      1.0  0.93112  0.00740  0.97268  1.0000
  C   C420      1.0  0.96322  0.17925  0.84608  1.0000
  H   H699      1.0  0.91449  0.14659  0.77478  1.0000
  H   H700      1.0  0.95206  0.04128  0.97705  1.0000
  S   S123      1.0  0.88625  0.07664  0.50913  1.0000
  N   N29       1.0  0.85398  0.27244  0.87692  1.0000
  C   C421      1.0  0.85590  0.14838  0.56964  1.0000
  C   C422      1.0  0.93016  0.13152  0.78297  1.0000
  H   H701      1.0  0.94798  0.00429  0.99035  1.0000
  H   H702      1.0  0.82633  0.28454  0.90759  1.0000
  H   H703      1.0  0.91969  0.27234  0.87349  1.0000
  H   H704      1.0  0.95243  0.21508  0.50309  1.0000
  C   C423      1.0  0.89495  0.13655  0.56250  1.0000
  H   H705      1.0  0.81166  0.02456  0.70813  1.0000
  C   C424      1.0  0.82135  0.00913  0.71837  1.0000
  S   S124      1.0  0.83750  0.06607  0.99197  1.0000
  H   H706      1.0  0.97135  0.14798  0.80954  1.0000
  H   H707      1.0  0.97411  0.99383  0.93425  1.0000
  H   H708      1.0  0.89066  0.11168  0.62479  1.0000
  H   H709      1.0  0.83186  0.30925  0.84807  1.0000
  S   S125      1.0  0.95329  0.31030  0.81684  1.0000
  H   H710      1.0  0.89893  0.29936  0.87751  1.0000
  H   H711      1.0  0.93565  0.25862  0.57621  1.0000
  N   N30       1.0  0.93369  0.13937  0.57923  1.0000
  H   H712      1.0  0.81890  0.24158  0.87969  1.0000
  H   H713      1.0  0.93213  0.31577  0.54863  1.0000
  C   C425      1.0  0.93791  0.01515  0.91002  1.0000
  H   H714      1.0  0.98282  0.13388  0.55675  1.0000
  C   C426      1.0  0.94643  0.16390  0.57799  1.0000
  H   H715      1.0  0.93527  0.00095  0.89720  1.0000
  C   C427      1.0  0.77799  0.28406  0.87911  1.0000
  C   C428      1.0  0.84552  0.27226  0.85040  1.0000
  S   S126      1.0  0.96184  0.04766  0.85088  1.0000
  C   C429      1.0  0.89691  0.28146  0.88327  1.0000
  H   H716      1.0  0.91338  0.30779  0.65229  1.0000
  H   H717      1.0  0.92904  0.29552  0.51234  1.0000
  S   S127      1.0  0.84666  0.99330  0.66086  1.0000
  H   H718      1.0  0.88633  0.11860  0.55978  1.0000
  H   H719      1.0  0.88387  0.30292  0.57083  1.0000
  H   H720      1.0  0.89335  0.29152  0.92037  1.0000
  H   H721      1.0  0.93324  0.09777  0.61296  1.0000
  C   C430      1.0  0.87075  0.31702  0.55957  1.0000
  H   H722      1.0  0.90013  0.14278  0.54463  1.0000
  S   S128      1.0  0.95643  0.06955  0.78149  1.0000
  H   H723      1.0  0.85901  0.16703  0.57015  1.0000
  C   C431      1.0  0.97632  0.01141  0.92783  1.0000
  H   H724      1.0  0.95851  0.16396  0.75377  1.0000
  H   H725      1.0  0.83154  0.30560  0.88631  1.0000
  H   H726      1.0  0.88606  0.10441  0.59481  1.0000
  H   H727      1.0  0.95072  0.18164  0.79347  1.0000
  C   C432      1.0  0.96708  0.25709  0.54483  1.0000
  Fe  Fe64      1.0  0.97009  0.07240  0.82189  1.0000
  H   H728      1.0  0.75897  0.29507  0.88951  1.0000
  Fe  Fe65      1.0  0.87301  0.99967  0.62628  1.0000
  C   C433      1.0  0.95859  0.02331  0.77096  1.0000
  H   H729      1.0  0.90743  0.14714  0.61193  1.0000
  H   H730      1.0  0.89767  0.00892  0.97482  1.0000
  C   C434      1.0  0.86883  0.28336  0.51563  1.0000
  H   H731      1.0  0.87874  0.22882  0.85917  1.0000
  H   H732      1.0  0.95970  0.05656  0.92604  1.0000
  C   C435      1.0  0.92682  0.13401  0.60442  1.0000
  H   H733      1.0  0.87601  0.27947  0.53464  1.0000
  H   H734      1.0  0.95646  0.13487  0.61598  1.0000
  H   H735      1.0  0.84184  0.31060  0.55016  1.0000
  C   C436      1.0  0.97805  0.21998  0.84336  1.0000
  H   H736      1.0  0.93328  0.99240  0.96135  1.0000
  S   S129      1.0  0.99064  0.08834  0.88930  1.0000
  H   H737      1.0  0.54351  0.09795  0.98187  1.0000
  C   C437      1.0  0.89123  0.32212  0.65154  1.0000
  C   C438      1.0  0.97466  0.18695  0.78211  1.0000
  H   H738      1.0  0.75832  0.09449  0.98585  1.0000
  H   H739      1.0  0.99351  0.18868  0.58941  1.0000
  H   H740      1.0  0.98395  0.16928  0.61217  1.0000
  H   H741      1.0  0.75995  0.99945  0.72216  1.0000
  N   N31       1.0  0.98256  0.02821  0.94784  1.0000
  C   C439      1.0  0.98659  0.16760  0.76591  1.0000
  S   S130      1.0  0.98888  0.30459  0.87177  1.0000
  H   H742      1.0  0.98667  0.09200  0.55960  1.0000
  C   C440      1.0  0.98794  0.12819  0.73640  1.0000
  Fe  Fe66      1.0  0.98895  0.28362  0.83889  1.0000
  C   C441      1.0  0.98681  0.17063  0.59299  1.0000
  H   H743      1.0  0.98630  0.12041  0.80213  1.0000
  H   H744      1.0  0.99254  0.25041  0.51205  1.0000
  H   H745      1.0  0.51451  0.05859  0.99632  1.0000
  H   H746      1.0  0.82522  0.32303  0.51585  1.0000
  H   H747      1.0  0.92016  0.32466  0.70168  1.0000
  H   H748      1.0  0.87521  0.32330  0.63338  1.0000
  H   H749      1.0  0.79402  0.11502  0.99831  1.0000
  H   H750      1.0  0.73868  0.12043  0.99584  1.0000
  S   S131      1.0  0.67436  0.65551  0.07204  1.0000
  S   S132      1.0  0.86618  0.53971  0.46823  1.0000
  Fe  Fe67      1.0  0.73993  0.49420  0.48564  1.0000
  S   S133      1.0  0.67481  0.49342  0.46602  1.0000
  H   H751      1.0  0.94422  0.62287  0.36465  1.0000
  C   C442      1.0  0.53779  0.48842  0.35955  1.0000
  S   S134      1.0  0.80140  0.48773  0.47232  1.0000
  Fe  Fe68      1.0  0.52799  0.41253  0.37987  1.0000
  S   S135      1.0  0.59312  0.41540  0.39897  1.0000
  H   H752      1.0  0.63626  0.42583  0.03154  1.0000
  Fe  Fe69      1.0  0.63732  0.62523  0.05735  1.0000
  S   S136      1.0  0.69404  0.60542  0.05011  1.0000
  S   S137      1.0  0.57592  0.60886  0.06509  1.0000
  C   C443      1.0  0.89430  0.58040  0.48912  1.0000
  Fe  Fe70      1.0  0.68611  0.62152  0.01429  1.0000
  H   H753      1.0  0.56449  0.33226  0.40361  1.0000
  Fe  Fe71      1.0  0.73092  0.63679  0.06226  1.0000
  S   S138      1.0  0.79833  0.63320  0.07958  1.0000
  S   S139      1.0  0.62804  0.64005  0.02061  1.0000
  H   H754      1.0  0.93609  0.64149  0.12418  1.0000
  H   H755      1.0  0.57328  0.39761  0.00746  1.0000
  H   H756      1.0  0.76856  0.56423  0.03888  1.0000
  S   S140      1.0  0.49736  0.56112  0.15115  1.0000
  H   H757      1.0  0.85661  0.65044  0.00949  1.0000
  C   C444      1.0  0.64166  0.45715  0.35711  1.0000
  H   H758      1.0  0.90133  0.64876  0.34514  1.0000
  C   C445      1.0  0.51637  0.58491  0.08554  1.0000
  H   H759      1.0  0.60433  0.55346  0.06484  1.0000
  C   C446      1.0  0.87533  0.63866  0.10472  1.0000
  C   C447      1.0  0.91847  0.60030  0.48988  1.0000
  C   C448      1.0  0.55546  0.59531  0.08934  1.0000
  C   C449      1.0  0.57636  0.59485  0.11206  1.0000
  C   C450      1.0  0.56976  0.46922  0.35792  1.0000
  S   S141      1.0  0.52671  0.40229  0.34182  1.0000
  H   H760      1.0  0.84335  0.33428  0.49052  1.0000
  H   H761      1.0  0.60636  0.60278  0.11532  1.0000
  H   H762      1.0  0.65922  0.50071  0.35390  1.0000
  H   H763      1.0  0.50802  0.48347  0.34954  1.0000
  C   C451      1.0  0.89716  0.56453  0.47115  1.0000
  C   C452      1.0  0.92505  0.56863  0.45429  1.0000
  C   C453      1.0  0.94970  0.58830  0.45531  1.0000
  C   C454      1.0  0.94613  0.60443  0.47293  1.0000
  H   H764      1.0  0.91139  0.34397  0.48728  1.0000
  H   H765      1.0  0.53757  0.33274  0.37537  1.0000
  H   H766      1.0  0.92770  0.55638  0.44042  1.0000
  H   H767      1.0  0.61986  0.35818  0.38929  1.0000
  H   H768      1.0  0.80608  0.62997  0.03020  1.0000
  C   C455      1.0  0.63379  0.49822  0.38733  1.0000
  C   C456      1.0  0.65227  0.47100  0.44832  1.0000
  C   C457      1.0  0.67551  0.45269  0.44158  1.0000
  C   C458      1.0  0.65670  0.43572  0.42673  1.0000
  C   C459      1.0  0.61449  0.43678  0.41852  1.0000
  C   C460      1.0  0.59111  0.45497  0.42543  1.0000
  C   C461      1.0  0.60998  0.47200  0.44020  1.0000
  H   H769      1.0  0.70805  0.45171  0.44767  1.0000
  H   H770      1.0  0.67509  0.42173  0.42152  1.0000
  H   H771      1.0  0.55857  0.45596  0.41938  1.0000
  H   H772      1.0  0.59173  0.48608  0.44535  1.0000
  H   H773      1.0  0.62762  0.54014  0.04140  1.0000
  H   H774      1.0  0.57446  0.46136  0.37575  1.0000
  H   H775      1.0  0.64331  0.45426  0.37649  1.0000
  C   C462      1.0  0.85976  0.58879  0.00385  1.0000
  H   H776      1.0  0.83320  0.60265  0.43015  1.0000
  H   H777      1.0  0.67343  0.46223  0.35356  1.0000
  H   H778      1.0  0.59016  0.51289  0.31655  1.0000
  S   S142      1.0  0.72610  0.65160  0.02549  1.0000
  C   C463      1.0  0.57974  0.49567  0.31113  1.0000
  N   N32       1.0  0.90026  0.62435  0.39092  1.0000
  H   H779      1.0  0.55442  0.45578  0.34645  1.0000
  C   C464      1.0  0.55821  0.58423  0.13070  1.0000
  H   H780      1.0  0.67785  0.44482  0.03899  1.0000
  C   C465      1.0  0.78632  0.58957  0.01408  1.0000
  C   C466      1.0  0.92305  0.61145  0.37333  1.0000
  C   C467      1.0  0.58810  0.35630  0.38045  1.0000
  H   H781      1.0  0.99051  0.56182  0.49077  1.0000
  H   H782      1.0  0.59420  0.46091  0.31490  1.0000
  C   C468      1.0  0.66525  0.43242  0.02544  1.0000
  H   H783      1.0  0.97144  0.59094  0.44248  1.0000
  H   H784      1.0  0.64351  0.51553  0.39312  1.0000
  H   H785      1.0  0.93071  0.57637  0.38613  1.0000
  H   H786      1.0  0.89601  0.62906  0.01699  1.0000
  H   H787      1.0  0.51382  0.63947  0.12411  1.0000
  H   H788      1.0  0.87751  0.58562  0.02135  1.0000
  H   H789      1.0  0.65831  0.48662  0.39506  1.0000
  C   C469      1.0  0.90371  0.64565  0.12390  1.0000
  C   C470      1.0  0.86789  0.63723  0.02241  1.0000
  H   H790      1.0  0.54685  0.49311  0.31386  1.0000
  H   H791      1.0  0.65609  0.32632  0.38269  1.0000
  H   H792      1.0  0.63995  0.43355  0.32695  1.0000
  C   C471      1.0  0.60893  0.55489  0.04582  1.0000
  C   C472      1.0  0.65692  0.44477  0.00163  1.0000
  H   H793      1.0  0.60166  0.42782  0.34719  1.0000
  H   H794      1.0  0.96885  0.59583  0.39982  1.0000
  H   H795      1.0  0.63853  0.47887  0.31676  1.0000
  H   H796      1.0  0.60985  0.51221  0.35411  1.0000
  N   N33       1.0  0.56634  0.55939  0.00507  1.0000
  H   H797      1.0  0.54726  0.56830  0.03923  1.0000
  H   H798      1.0  0.58723  0.36035  0.36138  1.0000
  N   N34       1.0  0.82237  0.60312  0.00700  1.0000
  H   H799      1.0  0.57459  0.58408  0.14822  1.0000
  C   C473      1.0  0.60732  0.47687  0.32293  1.0000
  H   H800      1.0  0.53123  0.49071  0.37817  1.0000
  H   H801      1.0  0.79352  0.58816  0.05294  1.0000
  C   C474      1.0  0.62842  0.49729  0.36009  1.0000
  H   H802      1.0  0.58523  0.59324  0.01674  1.0000
  H   H803      1.0  0.84774  0.63034  0.36517  1.0000
  H   H804      1.0  0.90107  0.60454  0.35877  1.0000
  N   N35       1.0  0.61077  0.47550  0.34953  1.0000
  H   H805      1.0  0.65449  0.42116  0.35519  1.0000
  H   H806      1.0  0.63369  0.45792  0.00469  1.0000
  C   C475      1.0  0.58901  0.58141  0.00187  1.0000
  H   H807      1.0  0.97139  0.58652  0.37017  1.0000
  C   C476      1.0  0.56620  0.55524  0.03125  1.0000
  C   C477      1.0  0.63349  0.43371  0.34570  1.0000
  H   H808      1.0  0.58101  0.49472  0.29173  1.0000
  C   C478      1.0  0.85083  0.61680  0.42308  1.0000
  C   C479      1.0  0.49847  0.57407  0.10410  1.0000
  H   H809      1.0  0.62659  0.57068  0.04393  1.0000
  H   H810      1.0  0.55168  0.53871  0.03477  1.0000
  C   C480      1.0  0.94991  0.59146  0.38323  1.0000
  C   C481      1.0  0.93140  0.63663  0.40786  1.0000
  H   H811      1.0  0.89640  0.59461  0.41297  1.0000
  H   H812      1.0  0.54603  0.50498  0.35253  1.0000
  H   H813      1.0  0.61591  0.32955  0.34681  1.0000
  C   C482      1.0  0.87088  0.64017  0.37686  1.0000
  H   H814      1.0  0.84445  0.61130  0.04333  1.0000
  C   C483      1.0  0.56936  0.33290  0.38467  1.0000
  H   H815      1.0  0.82797  0.62972  0.41641  1.0000
  H   H816      1.0  0.82342  0.56707  0.03922  1.0000
  C   C484      1.0  0.51922  0.57375  0.12686  1.0000
  S   S143      1.0  0.97519  0.62998  0.47431  1.0000
  C   C485      1.0  0.83277  0.64350  0.10399  1.0000
  H   H817      1.0  0.62288  0.57857  0.00249  1.0000
  C   C486      1.0  0.79401  0.57657  0.03762  1.0000
  H   H818      1.0  0.56903  0.36931  0.38817  1.0000
  C   C487      1.0  0.87582  0.60746  0.40374  1.0000
  C   C488      1.0  0.83366  0.62002  0.02650  1.0000
  H   H819      1.0  0.60462  0.49453  0.39500  1.0000
  H   H820      1.0  0.85422  0.55175  0.00619  1.0000
  H   H821      1.0  0.68863  0.41888  0.02519  1.0000
  H   H822      1.0  0.69931  0.56113  0.00479  1.0000
  H   H823      1.0  0.85414  0.59789  0.39094  1.0000
  H   H824      1.0  0.88645  0.62920  0.09042  1.0000
  H   H825      1.0  0.75941  0.60087  0.01566  1.0000
  H   H826      1.0  0.87699  0.64623  0.03930  1.0000
  H   H827      1.0  0.94506  0.62491  0.42179  1.0000
  H   H828      1.0  0.87147  0.62334  0.43832  1.0000
  Fe  Fe72      1.0  0.82388  0.51982  0.49098  1.0000
  H   H829      1.0  0.77487  0.57717  0.00045  1.0000
  H   H830      1.0  0.49973  0.58524  0.06810  1.0000
  C   C489      1.0  0.81916  0.65570  0.12280  1.0000
  H   H831      1.0  0.62778  0.39408  0.00944  1.0000
  H   H832      1.0  0.62128  0.53951  0.00185  1.0000
  H   H833      1.0  0.50706  0.57605  0.00258  1.0000
  C   C490      1.0  0.88993  0.65737  0.14298  1.0000
  H   H834      1.0  0.57527  0.52345  0.00040  1.0000
  H   H835      1.0  0.95774  0.64256  0.39845  1.0000
  H   H836      1.0  0.85200  0.65008  0.38823  1.0000
  H   H837      1.0  0.49658  0.48973  0.27161  1.0000
  H   H838      1.0  0.88285  0.65826  0.42250  1.0000
  C   C491      1.0  0.91612  0.65783  0.42037  1.0000
  C   C492      1.0  0.89122  0.65718  0.36099  1.0000
  S   S144      1.0  0.84510  0.50181  0.52505  1.0000
  S   S145      1.0  0.75621  0.47420  0.51881  1.0000
  Fe  Fe73      1.0  0.78010  0.50718  0.53465  1.0000
  S   S146      1.0  0.76240  0.51063  0.57223  1.0000
  C   C493      1.0  0.85185  0.56517  0.99246  1.0000
  Fe  Fe74      1.0  0.72745  0.45065  0.87473  1.0000
  S   S147      1.0  0.66565  0.44298  0.85481  1.0000
  S   S148      1.0  0.78852  0.43759  0.86204  1.0000
  Fe  Fe75      1.0  0.68698  0.48377  0.90837  1.0000
  S   S149      1.0  0.62321  0.47801  0.88986  1.0000
  S   S150      1.0  0.69568  0.50082  0.94498  1.0000
  Fe  Fe76      1.0  0.64031  0.44126  0.89016  1.0000
  S   S151      1.0  0.60124  0.41087  0.89938  1.0000
  Fe  Fe77      1.0  0.65349  0.48055  0.85576  1.0000
  S   S152      1.0  0.61827  0.49699  0.82277  1.0000
  S   S153      1.0  0.70305  0.44653  0.91004  1.0000
  S   S154      1.0  0.71647  0.48865  0.87433  1.0000
  H   H839      1.0  0.93619  0.35134  0.71549  1.0000
  H   H840      1.0  0.86265  0.33065  0.57172  1.0000
  H   H841      1.0  0.60472  0.55348  0.96112  1.0000
  S   S155      1.0  0.90681  0.37380  0.59447  1.0000
  H   H842      1.0  0.51964  0.56478  0.97542  1.0000
  H   H843      1.0  0.62685  0.54767  0.53633  1.0000
  C   C494      1.0  0.60897  0.46646  0.96039  1.0000
  S   S156      1.0  0.89541  0.34558  0.86257  1.0000
  C   C495      1.0  0.77860  0.42781  0.79640  1.0000
  Fe  Fe78      1.0  0.63990  0.58852  0.65120  1.0000
  S   S157      1.0  0.57749  0.60270  0.63996  1.0000
  S   S158      1.0  0.68906  0.59300  0.62608  1.0000
  Fe  Fe79      1.0  0.61358  0.57062  0.69783  1.0000
  S   S159      1.0  0.54778  0.58304  0.68902  1.0000
  S   S160      1.0  0.65056  0.55493  0.73070  1.0000
  Fe  Fe80      1.0  0.55318  0.56962  0.65218  1.0000
  Fe  Fe81      1.0  0.57623  0.61549  0.67684  1.0000
  S   S161      1.0  0.61646  0.55487  0.66175  1.0000
  S   S162      1.0  0.64126  0.60393  0.68745  1.0000
  C   C496      1.0  0.60602  0.51231  0.58167  1.0000
  H   H844      1.0  0.69647  0.47305  0.81489  1.0000
  Fe  Fe82      1.0  0.81954  0.47028  0.50703  1.0000
  H   H845      1.0  0.55845  0.37320  0.91739  1.0000
  S   S163      1.0  0.69021  0.60412  0.97858  1.0000
  C   C497      1.0  0.62776  0.51376  0.79769  1.0000
  C   C498      1.0  0.59586  0.51655  0.77923  1.0000
  C   C499      1.0  0.60190  0.52929  0.75881  1.0000
  C   C500      1.0  0.64020  0.53934  0.75644  1.0000
  C   C501      1.0  0.67217  0.53651  0.77489  1.0000
  C   C502      1.0  0.66590  0.52406  0.79545  1.0000
  H   H846      1.0  0.56611  0.50881  0.78074  1.0000
  H   H847      1.0  0.57695  0.53120  0.74488  1.0000
  H   H848      1.0  0.70184  0.54434  0.77344  1.0000
  H   H849      1.0  0.69032  0.52268  0.80971  1.0000
  C   C503      1.0  0.55905  0.40965  0.91694  1.0000
  H   H850      1.0  0.49685  0.44247  0.94751  1.0000
  C   C504      1.0  0.96729  0.33309  0.50725  1.0000
  C   C505      1.0  0.81735  0.41166  0.86225  1.0000
  C   C506      1.0  0.85478  0.41125  0.85176  1.0000
  C   C507      1.0  0.87893  0.39134  0.85155  1.0000
  C   C508      1.0  0.86610  0.37137  0.86188  1.0000
  C   C509      1.0  0.82848  0.37173  0.87219  1.0000
  C   C510      1.0  0.80430  0.39163  0.87237  1.0000
  H   H851      1.0  0.86547  0.42654  0.84392  1.0000
  H   H852      1.0  0.90768  0.39151  0.84358  1.0000
  H   H853      1.0  0.81804  0.35650  0.88026  1.0000
  H   H854      1.0  0.77572  0.39151  0.88051  1.0000
  C   C511      1.0  0.69342  0.52967  0.95385  1.0000
  C   C512      1.0  0.69759  0.53488  0.97813  1.0000
  C   C513      1.0  0.69589  0.55746  0.98609  1.0000
  C   C514      1.0  0.69043  0.57519  0.96979  1.0000
  C   C515      1.0  0.68638  0.56999  0.94554  1.0000
  C   C516      1.0  0.68759  0.54740  0.93759  1.0000
  C   C517      1.0  0.84050  0.35820  0.51886  1.0000
  H   H855      1.0  0.68232  0.58354  0.93274  1.0000
  H   H856      1.0  0.68435  0.54373  0.91887  1.0000
  C   C518      1.0  0.73964  0.53384  0.58544  1.0000
  C   C519      1.0  0.74404  0.55609  0.57773  1.0000
  C   C520      1.0  0.72787  0.57411  0.59012  1.0000
  C   C521      1.0  0.70609  0.56996  0.60976  1.0000
  C   C522      1.0  0.70023  0.54763  0.61676  1.0000
  C   C523      1.0  0.71777  0.52975  0.60502  1.0000
  H   H857      1.0  0.76106  0.55944  0.56275  1.0000
  H   H858      1.0  0.73257  0.59134  0.58456  1.0000
  H   H859      1.0  0.68319  0.54413  0.63163  1.0000
  H   H860      1.0  0.71433  0.51257  0.61108  1.0000
  C   C524      1.0  0.87344  0.42197  0.53205  1.0000
  C   C525      1.0  0.90793  0.40768  0.53222  1.0000
  C   C526      1.0  0.91931  0.39340  0.55158  1.0000
  C   C527      1.0  0.89564  0.39289  0.57072  1.0000
  C   C528      1.0  0.86129  0.40725  0.57064  1.0000
  C   C529      1.0  0.85043  0.42190  0.55148  1.0000
  H   H861      1.0  0.94615  0.38269  0.55156  1.0000
  H   H862      1.0  0.84281  0.40700  0.58536  1.0000
  H   H863      1.0  0.82372  0.43277  0.55148  1.0000
  C   C530      1.0  0.91501  0.34424  0.65822  1.0000
  C   C531      1.0  0.92060  0.38160  0.67673  1.0000
  N   N36       1.0  0.76662  0.57244  0.69078  1.0000
  C   C532      1.0  0.74427  0.57506  0.71260  1.0000
  C   C533      1.0  0.74070  0.55697  0.67421  1.0000
  C   C534      1.0  0.76855  0.59544  0.67943  1.0000
  C   C535      1.0  0.80933  0.56327  0.69800  1.0000
  C   C536      1.0  0.76272  0.59219  0.73123  1.0000
  C   C537      1.0  0.73171  0.53337  0.68408  1.0000
  C   C538      1.0  0.79056  0.59688  0.65680  1.0000
  C   C539      1.0  0.83083  0.55050  0.67890  1.0000
  H   H864      1.0  0.71163  0.58007  0.70772  1.0000
  H   H865      1.0  0.74274  0.55867  0.72212  1.0000
  H   H866      1.0  0.75441  0.55425  0.65747  1.0000
  H   H867      1.0  0.71024  0.56495  0.66874  1.0000
  H   H868      1.0  0.73677  0.60234  0.67515  1.0000
  H   H869      1.0  0.78515  0.60776  0.69171  1.0000
  H   H870      1.0  0.83034  0.57715  0.70495  1.0000
  H   H871      1.0  0.80822  0.55106  0.71284  1.0000
  H   H872      1.0  0.94493  0.33993  0.66842  1.0000
  H   H873      1.0  0.68121  0.40153  0.99127  1.0000
  H   H874      1.0  0.75653  0.60987  0.72538  1.0000
  H   H875      1.0  0.75968  0.52523  0.69299  1.0000
  H   H876      1.0  0.70752  0.53430  0.69645  1.0000
  H   H877      1.0  0.71934  0.52224  0.66929  1.0000
  H   H878      1.0  0.78631  0.61420  0.64935  1.0000
  H   H879      1.0  0.77755  0.58522  0.64276  1.0000
  H   H880      1.0  0.82429  0.59425  0.66062  1.0000
  H   H881      1.0  0.86458  0.55380  0.68177  1.0000
  H   H882      1.0  0.82103  0.55532  0.66044  1.0000
  H   H883      1.0  0.82744  0.53192  0.68092  1.0000
  H   H884      1.0  0.68107  0.42615  0.76932  1.0000
  H   H885      1.0  0.77384  0.48107  0.83220  1.0000
  H   H886      1.0  0.74713  0.58995  0.74757  1.0000
  H   H887      1.0  0.77692  0.45604  0.77226  1.0000
  H   H888      1.0  0.75845  0.41506  0.80373  1.0000
  C   C540      1.0  0.68339  0.43647  0.78574  1.0000
  C   C541      1.0  0.63371  0.53484  0.55054  1.0000
  H   H889      1.0  0.79460  0.43778  0.81110  1.0000
  H   H890      1.0  0.57996  0.52757  0.61227  1.0000
  H   H891      1.0  0.83377  0.35454  0.64985  1.0000
  H   H892      1.0  0.61715  0.55663  0.59921  1.0000
  C   C542      1.0  0.63946  0.44496  0.78876  1.0000
  H   H893      1.0  0.65574  0.54313  0.56411  1.0000
  H   H894      1.0  0.78404  0.61409  0.94807  1.0000
  H   H895      1.0  0.58595  0.49775  0.61372  1.0000
  C   C543      1.0  0.57696  0.51194  0.60150  1.0000
  C   C544      1.0  0.59993  0.56549  0.58418  1.0000
  H   H896      1.0  0.60891  0.49456  0.57549  1.0000
  H   H897      1.0  0.64295  0.50931  0.52311  1.0000
  H   H898      1.0  0.50877  0.63206  0.61962  1.0000
  H   H899      1.0  0.89541  0.33530  0.72587  1.0000
  H   H900      1.0  0.90660  0.40460  0.64612  1.0000
  H   H901      1.0  0.60350  0.52356  0.96270  1.0000
  H   H902      1.0  0.92598  0.40775  0.51729  1.0000
  H   H903      1.0  0.54407  0.50948  0.59509  1.0000
  H   H904      1.0  0.87680  0.56144  0.98111  1.0000
  H   H905      1.0  0.74691  0.43271  0.76188  1.0000
  H   H906      1.0  0.50681  0.52487  0.99041  1.0000
  H   H907      1.0  0.86548  0.36709  0.70351  1.0000
  H   H908      1.0  0.91183  0.34319  0.55007  1.0000
  Fe  Fe83      1.0  0.95614  0.33202  0.84952  1.0000
  H   H909      1.0  0.70526  0.42191  0.97484  1.0000
  H   H910      1.0  0.92449  0.35092  0.64136  1.0000
  H   H911      1.0  0.68134  0.48122  0.73232  1.0000
  H   H912      1.0  0.66473  0.50142  0.55271  1.0000
  H   H913      1.0  0.72810  0.48619  0.76856  1.0000
  H   H914      1.0  0.84979  0.34171  0.68928  1.0000
  H   H915      1.0  0.50361  0.37007  0.94460  1.0000
  H   H916      1.0  0.83321  0.62793  0.98017  1.0000
  H   H917      1.0  0.78540  0.47876  0.80275  1.0000
  N   N37       1.0  0.89183  0.36199  0.67046  1.0000
  H   H918      1.0  0.74796  0.49922  0.80987  1.0000
  C   C545      1.0  0.49637  0.40601  0.94804  1.0000
  C   C546      1.0  0.66597  0.39854  0.95399  1.0000
  C   C547      1.0  0.70334  0.47319  0.76862  1.0000
  N   N38       1.0  0.71654  0.45434  0.78550  1.0000
  C   C548      1.0  0.75477  0.44328  0.77789  1.0000
  H   H919      1.0  0.61850  0.43017  0.78934  1.0000
  N   N39       1.0  0.64241  0.43053  0.98041  1.0000
  H   H920      1.0  0.91553  0.61261  0.50366  1.0000
  H   H921      1.0  0.79622  0.58963  0.73605  1.0000
  C   C549      1.0  0.60087  0.41996  0.98301  1.0000
  H   H922      1.0  0.66903  0.45306  0.95592  1.0000
  H   H923      1.0  0.84731  0.35997  0.53825  1.0000
  C   C550      1.0  0.67508  0.41332  0.97627  1.0000
  H   H924      1.0  0.60471  0.47460  0.94272  1.0000
  H   H925      1.0  0.87296  0.57752  0.50218  1.0000
  H   H926      1.0  0.84683  0.40391  0.66705  1.0000
  H   H927      1.0  0.58513  0.41600  0.96532  1.0000
  C   C551      1.0  0.79683  0.60243  0.96228  1.0000
  H   H928      1.0  0.94987  0.37555  0.68655  1.0000
  H   H929      1.0  0.56226  0.52692  0.52582  1.0000
  H   H930      1.0  0.95531  0.40911  0.66274  1.0000
  H   H931      1.0  0.92286  0.35801  0.51468  1.0000
  H   H932      1.0  0.81356  0.38294  0.67866  1.0000
  H   H933      1.0  0.62204  0.57510  0.57439  1.0000
  S   S164      1.0  0.54418  0.64917  0.68410  1.0000
  H   H934      1.0  0.67652  0.48246  0.77448  1.0000
  C   C552      1.0  0.87698  0.35304  0.69295  1.0000
  C   C553      1.0  0.93318  0.39580  0.65584  1.0000
  C   C554      1.0  0.75975  0.48188  0.81359  1.0000
  H   H935      1.0  0.62649  0.45577  0.77391  1.0000
  H   H936      1.0  0.90724  0.39350  0.68903  1.0000
  H   H937      1.0  0.80293  0.41851  0.78808  1.0000
  H   H938      1.0  0.73010  0.45090  0.82354  1.0000
  C   C555      1.0  0.57337  0.54919  0.56776  1.0000
  H   H939      1.0  0.80719  0.36202  0.51451  1.0000
  C   C556      1.0  0.51355  0.38654  0.93913  1.0000
  H   H940      1.0  0.63421  0.39157  0.95206  1.0000
  H   H941      1.0  0.57955  0.57812  0.59157  1.0000
  C   C557      1.0  0.69210  0.46605  0.74273  1.0000
  C   C558      1.0  0.50999  0.42730  0.94079  1.0000
  H   H942      1.0  0.77246  0.58975  0.96431  1.0000
  H   H943      1.0  0.78156  0.62715  0.98777  1.0000
  N   N40       1.0  0.59470  0.52789  0.56095  1.0000
  Fe  Fe84      1.0  0.96421  0.35193  0.59726  1.0000
  C   C559      1.0  0.65837  0.51563  0.54015  1.0000
  H   H944      1.0  0.57794  0.46140  0.96488  1.0000
  H   H945      1.0  0.54532  0.54540  0.57656  1.0000
  H   H946      1.0  0.71924  0.45927  0.73479  1.0000
  H   H947      1.0  0.70224  0.52132  0.99088  1.0000
  C   C560      1.0  0.58747  0.53912  0.96778  1.0000
  H   H948      1.0  0.57459  0.58572  0.96295  1.0000
  S   S165      1.0  0.85860  0.43833  0.50656  1.0000
  H   H949      1.0  0.58030  0.43215  0.99102  1.0000
  C   C561      1.0  0.54477  0.38838  0.92374  1.0000
  H   H950      1.0  0.66655  0.45358  0.74079  1.0000
  H   H951      1.0  0.63819  0.45411  0.80556  1.0000
  H   H952      1.0  0.80377  0.39264  0.64890  1.0000
  C   C562      1.0  0.63832  0.44609  0.95923  1.0000
  H   H953      1.0  0.94904  0.38560  0.64325  1.0000
  H   H954      1.0  0.58257  0.50036  0.53592  1.0000
  H   H955      1.0  0.63708  0.51650  0.59061  1.0000
  H   H956      1.0  0.69136  0.42420  0.80034  1.0000
  H   H957      1.0  0.62694  0.43672  0.94292  1.0000
  C   C563      1.0  0.84956  0.33418  0.51014  1.0000
  H   H958      1.0  0.82427  0.59426  0.95595  1.0000
  C   C564      1.0  0.72448  0.46428  0.80989  1.0000
  H   H959      1.0  0.55092  0.44559  0.91976  1.0000
  C   C565      1.0  0.54080  0.42913  0.92514  1.0000
  C   C566      1.0  0.92198  0.34099  0.50628  1.0000
  H   H960      1.0  0.59475  0.38298  0.98466  1.0000
  H   H961      1.0  0.68879  0.52237  0.53620  1.0000
  C   C567      1.0  0.90943  0.34040  0.70968  1.0000
  H   H962      1.0  0.62247  0.47962  0.97276  1.0000
  H   H963      1.0  0.67110  0.40810  0.93780  1.0000
  C   C568      1.0  0.82871  0.38827  0.66298  1.0000
  H   H964      1.0  0.86447  0.37431  0.63649  1.0000
  C   C569      1.0  0.85502  0.36910  0.65393  1.0000
  H   H965      1.0  0.55575  0.53837  0.95870  1.0000
  H   H966      1.0  0.68769  0.38403  0.95488  1.0000
  C   C570      1.0  0.60028  0.39750  0.99698  1.0000
  S   S166      1.0  0.76051  0.52770  0.50203  1.0000
  C   C571      1.0  0.80858  0.61627  0.98487  1.0000
  C   C572      1.0  0.52476  0.50807  0.54801  1.0000
  C   C573      1.0  0.58816  0.53980  0.99483  1.0000
  H   H967      1.0  0.54535  0.60362  0.98076  1.0000
  C   C574      1.0  0.56744  0.51594  0.54177  1.0000
  H   H968      1.0  0.59837  0.60939  0.97809  1.0000
  C   C575      1.0  0.57576  0.59550  0.97950  1.0000
  S   S167      1.0  0.50988  0.55742  0.62068  1.0000
  H   H969      1.0  0.50669  0.50176  0.53170  1.0000
  H   H970      1.0  0.56198  0.55903  0.55170  1.0000
  C   C576      1.0  0.52195  0.56130  0.99466  1.0000
  H   H971      1.0  0.85767  0.37130  0.50988  1.0000
  H   H972      1.0  0.52760  0.49355  0.56040  1.0000
  H   H973      1.0  0.98700  0.34749  0.50276  1.0000
  H   H974      1.0  0.82248  0.56321  0.98111  1.0000
  H   H975      1.0  0.88120  0.59809  0.99323  1.0000
  H   H976      1.0  0.50626  0.52178  0.55493  1.0000
  C   C577      1.0  0.49426  0.54050  0.99766  1.0000
  H   H977      1.0  0.97011  0.52587  0.49892  1.0000
  N   N41       1.0  0.89252  0.32546  0.51746  1.0000
  C   C578      1.0  0.90360  0.32574  0.54386  1.0000
  H   H978      1.0  0.97947  0.32698  0.52495  1.0000
  H   H979      1.0  0.68573  0.45406  0.99847  1.0000
  H   H980      1.0  0.56527  0.96904  0.01959  1.0000
  C   C579      1.0  0.58856  0.93702  0.00586  1.0000
  S   S168      1.0  0.65680  0.70711  0.02880  1.0000
  C   C580      1.0  0.52502  0.92540  0.02182  1.0000
  H   H981      1.0  0.86994  0.92435  0.11570  1.0000
  S   S169      1.0  0.95138  0.91671  0.13856  1.0000
  H   H982      1.0  0.92327  0.73351  0.20650  1.0000
  H   H983      1.0  0.71377  0.90006  0.00737  1.0000
  H   H984      1.0  0.93137  0.71172  0.18612  1.0000
  H   H985      1.0  0.94289  0.70670  0.14922  1.0000
  C   C581      1.0  0.57945  0.88607  0.01223  1.0000
  H   H986      1.0  0.87287  0.96446  0.17934  1.0000
  H   H987      1.0  0.51741  0.94311  0.02631  1.0000
  H   H988      1.0  0.89844  0.74154  0.11659  1.0000
  H   H989      1.0  0.57135  0.80079  0.02301  1.0000
  H   H990      1.0  0.98169  0.95528  0.20934  1.0000
  H   H991      1.0  0.93965  0.79228  0.15120  1.0000
  H   H992      1.0  0.86990  0.76670  0.15945  1.0000
  C   C582      1.0  0.92540  0.93658  0.20802  1.0000
  H   H993      1.0  0.97954  0.71222  0.37157  1.0000
  H   H994      1.0  0.56397  0.77108  0.02487  1.0000
  C   C583      1.0  0.93249  0.93669  0.11684  1.0000
  C   C584      1.0  0.95821  0.95283  0.10795  1.0000
  C   C585      1.0  0.94165  0.96878  0.09119  1.0000
  C   C586      1.0  0.89926  0.96888  0.08321  1.0000
  C   C587      1.0  0.87349  0.95280  0.09219  1.0000
  C   C588      1.0  0.89010  0.93676  0.10888  1.0000
  H   H995      1.0  0.85455  0.97768  0.13990  1.0000
  S   S170      1.0  0.88059  0.98962  0.06225  1.0000
  H   H996      1.0  0.96866  0.94082  0.18237  1.0000
  H   H997      1.0  0.90612  0.98391  0.13475  1.0000
  Fe  Fe85      1.0  0.66821  0.66891  0.03448  1.0000
  C   C589      1.0  0.88466  0.98368  0.14868  1.0000
  C   C590      1.0  0.64023  0.74800  0.00638  1.0000
  H   H998      1.0  0.88239  0.72774  0.14167  1.0000
  C   C591      1.0  0.91977  0.72918  0.18741  1.0000
  H   H999      1.0  0.94276  0.92185  0.21604  1.0000
  C   C592      1.0  0.54736  0.78732  0.02159  1.0000
  H   H1000     1.0  0.88629  0.72964  0.18146  1.0000
  H   H1001     1.0  0.92527  0.67352  0.41152  1.0000
  C   C593      1.0  0.92818  0.98879  0.20412  1.0000
  H   H1002     1.0  0.91803  0.66601  0.37047  1.0000
  H   H1003     1.0  0.98771  0.72760  0.10930  1.0000
  C   C594      1.0  0.89899  0.74301  0.13608  1.0000
  H   H1004     1.0  0.95455  0.99003  0.21820  1.0000
  N   N42       1.0  0.94276  0.74335  0.14768  1.0000
  C   C595      1.0  0.58648  0.96304  0.00691  1.0000
  C   C596      1.0  0.94457  0.74638  0.17410  1.0000
  H   H1005     1.0  0.52717  0.79051  0.03574  1.0000
  H   H1006     1.0  0.65401  0.75531  0.02275  1.0000
  H   H1007     1.0  0.99267  0.71913  0.15355  1.0000
  C   C597      1.0  0.96765  0.71519  0.11724  1.0000
  H   H1008     1.0  0.96184  0.98112  0.08429  1.0000
  C   C598      1.0  0.87231  0.76372  0.14043  1.0000
  C   C599      1.0  0.96806  0.76148  0.13700  1.0000
  H   H1009     1.0  0.54473  0.91905  0.03756  1.0000
  H   H1010     1.0  0.93305  0.76323  0.17885  1.0000
  H   H1011     1.0  0.88372  0.77908  0.13208  1.0000
  H   H1012     1.0  0.99086  0.95295  0.11385  1.0000
  H   H1013     1.0  0.86828  0.67024  0.35456  1.0000
  H   H1014     1.0  0.84087  0.95267  0.08620  1.0000
  H   H1015     1.0  0.84043  0.76068  0.13203  1.0000
  C   C600      1.0  0.63808  0.72427  0.00413  1.0000
  H   H1016     1.0  0.98312  0.69849  0.11665  1.0000
  H   H1017     1.0  0.98894  0.78449  0.16625  1.0000
  C   C601      1.0  0.96187  0.72071  0.14322  1.0000
  C   C602      1.0  0.89935  0.96710  0.16873  1.0000
  C   C603      1.0  0.97018  0.78505  0.14882  1.0000
  H   H1018     1.0  0.98603  0.79702  0.13769  1.0000
  H   H1019     1.0  0.58550  0.86929  0.00459  1.0000
  H   H1020     1.0  0.93772  0.71352  0.10620  1.0000
  H   H1021     1.0  0.83618  0.67137  0.15674  1.0000
  C   C604      1.0  0.97036  0.98285  0.17019  1.0000
  H   H1022     1.0  0.95741  0.76394  0.11796  1.0000
  C   C605      1.0  0.84745  0.66242  0.14214  1.0000
  H   H1023     1.0  0.61778  0.96973  0.01287  1.0000
  N   N43       1.0  0.93799  0.97319  0.18453  1.0000
  H   H1024     1.0  0.97911  0.97008  0.15718  1.0000
  H   H1025     1.0  0.51060  0.74378  0.01553  1.0000
  H   H1026     1.0  0.90049  0.92959  0.19531  1.0000
  H   H1027     1.0  0.56081  0.88304  0.02714  1.0000
  C   C606      1.0  0.95559  0.95164  0.19574  1.0000
  S   S171      1.0  0.92373  0.66555  0.16856  1.0000
  H   H1028     1.0  0.97733  0.74573  0.18212  1.0000
  H   H1029     1.0  0.97297  0.66828  0.31703  1.0000
  H   H1030     1.0  0.91205  0.94548  0.22255  1.0000
  H   H1031     1.0  0.90347  0.95066  0.15976  1.0000
  H   H1032     1.0  0.73017  0.94114  0.00886  1.0000
  H   H1033     1.0  0.61000  0.89325  0.01874  1.0000
  H   H1034     1.0  0.60412  0.93134  0.02319  1.0000
  H   H1035     1.0  0.90295  0.98161  0.21358  1.0000
  N   N44       1.0  0.54794  0.92486  0.00012  1.0000
  H   H1036     1.0  0.78669  0.65955  0.12270  1.0000
  H   H1037     1.0  0.93226  0.65876  0.43850  1.0000
  Fe  Fe86      1.0  0.82997  0.95821  0.64769  1.0000
  S   S172      1.0  0.89105  0.94352  0.66203  1.0000
  S   S173      1.0  0.76421  0.94491  0.65194  1.0000
  Fe  Fe87      1.0  0.90892  0.97928  0.67355  1.0000
  Fe  Fe88      1.0  0.91417  0.95287  0.62715  1.0000
  S   S174      1.0  0.94052  0.92773  0.60160  1.0000
  S   S175      1.0  0.85149  0.96577  0.61208  1.0000
  Fe  Fe89      1.0  0.57733  0.80900  0.93843  1.0000
  S   S176      1.0  0.62522  0.83003  0.92269  1.0000
  S   S177      1.0  0.58325  0.77045  0.94297  1.0000
  H   H1038     1.0  0.77714  0.93834  0.60430  1.0000
  S   S178      1.0  0.56376  0.87413  0.92583  1.0000
  Fe  Fe90      1.0  0.57220  0.84579  0.89972  1.0000
  S   S179      1.0  0.58465  0.85485  0.86170  1.0000
  Fe  Fe91      1.0  0.61286  0.85647  0.94946  1.0000
  S   S180      1.0  0.66261  0.87287  0.97460  1.0000
  C   C607      1.0  0.66380  0.93994  0.95869  1.0000
  S   S181      1.0  0.56891  0.83431  0.96676  1.0000
  H   H1039     1.0  0.63219  0.76320  0.80358  1.0000
  S   S182      1.0  0.57565  0.81858  0.65546  1.0000
  Fe  Fe92      1.0  0.54988  0.82074  0.72106  1.0000
  S   S183      1.0  0.61027  0.80811  0.71047  1.0000
  S   S184      1.0  0.52724  0.81651  0.75788  1.0000
  Fe  Fe93      1.0  0.60980  0.83805  0.68562  1.0000
  S   S185      1.0  0.67415  0.85481  0.68469  1.0000
  Fe  Fe94      1.0  0.57300  0.78933  0.68114  1.0000
  S   S186      1.0  0.59661  0.75342  0.67402  1.0000
  S   S187      1.0  0.55120  0.85188  0.69826  1.0000
  H   H1040     1.0  0.73385  0.92352  0.58920  1.0000
  C   C608      1.0  0.58024  0.72457  0.67575  1.0000
  C   C609      1.0  0.54117  0.71843  0.68188  1.0000
  C   C610      1.0  0.53078  0.69536  0.68431  1.0000
  C   C611      1.0  0.55893  0.67803  0.68032  1.0000
  C   C612      1.0  0.59775  0.68416  0.67385  1.0000
  C   C613      1.0  0.60827  0.70723  0.67164  1.0000
  H   H1041     1.0  0.86735  0.96090  0.76904  1.0000
  H   H1042     1.0  0.58935  0.85051  0.77551  1.0000
  H   H1043     1.0  0.61980  0.67114  0.67066  1.0000
  H   H1044     1.0  0.63854  0.71167  0.66682  1.0000
  C   C614      1.0  0.57080  0.74975  0.73545  1.0000
  C   C615      1.0  0.55653  0.90095  0.99288  1.0000
  H   H1045     1.0  0.57458  0.93980  0.95863  1.0000
  H   H1046     1.0  0.57574  0.90086  0.97778  1.0000
  H   H1047     1.0  0.59044  0.72218  0.94788  1.0000
  C   C616      1.0  0.56915  0.84325  0.83313  1.0000
  C   C617      1.0  0.53917  0.82628  0.82939  1.0000
  C   C618      1.0  0.52703  0.81828  0.80630  1.0000
  C   C619      1.0  0.54490  0.82690  0.78663  1.0000
  C   C620      1.0  0.57530  0.84363  0.79037  1.0000
  H   H1048     1.0  0.61080  0.93265  0.99314  1.0000
  H   H1049     1.0  0.51903  0.73146  0.68484  1.0000
  H   H1050     1.0  0.68897  0.73577  0.72674  1.0000
  H   H1051     1.0  0.53336  0.92211  0.94565  1.0000
  C   C621      1.0  0.62493  0.76239  0.98766  1.0000
  H   H1052     1.0  0.98536  0.81106  0.55914  1.0000
  C   C622      1.0  0.74004  0.91958  0.66105  1.0000
  C   C623      1.0  0.76250  0.90140  0.67151  1.0000
  C   C624      1.0  0.74180  0.88182  0.67849  1.0000
  C   C625      1.0  0.69834  0.88002  0.67518  1.0000
  C   C626      1.0  0.67595  0.89823  0.66467  1.0000
  C   C627      1.0  0.69666  0.91783  0.65775  1.0000
  H   H1053     1.0  0.79576  0.90248  0.67446  1.0000
  H   H1054     1.0  0.75955  0.86794  0.68666  1.0000
  H   H1055     1.0  0.64262  0.89725  0.66197  1.0000
  H   H1056     1.0  0.67880  0.93174  0.64972  1.0000
  C   C628      1.0  0.67201  0.90228  0.97551  1.0000
  H   H1057     1.0  0.79900  0.95350  0.76032  1.0000
  H   H1058     1.0  0.63730  0.72804  0.71750  1.0000
  H   H1059     1.0  0.79877  0.84003  0.92451  1.0000
  H   H1060     1.0  0.57498  0.76412  0.72328  1.0000
  C   C629      1.0  0.76694  0.88381  0.60809  1.0000
  C   C630      1.0  0.73380  0.87410  0.58948  1.0000
  H   H1061     1.0  0.80722  0.86796  0.57109  1.0000
  H   H1062     1.0  0.75207  0.89695  0.61836  1.0000
  H   H1063     1.0  0.77462  0.86987  0.62089  1.0000
  H   H1064     1.0  0.78128  0.90410  0.56356  1.0000
  H   H1065     1.0  0.72392  0.88631  0.57528  1.0000
  H   H1066     1.0  0.74434  0.85823  0.58166  1.0000
  H   H1067     1.0  0.70594  0.86975  0.59835  1.0000
  H   H1068     1.0  0.51650  0.76776  0.74598  1.0000
  H   H1069     1.0  0.63262  0.91016  0.94384  1.0000
  C   C631      1.0  0.86912  0.87989  0.57889  1.0000
  C   C632      1.0  0.59660  0.77217  0.76954  1.0000
  C   C633      1.0  0.79498  0.91133  0.58065  1.0000
  H   H1070     1.0  0.87110  0.89514  0.65166  1.0000
  C   C634      1.0  0.65889  0.73165  0.73334  1.0000
  S   S188      1.0  0.51220  0.80032  0.69292  1.0000
  H   H1071     1.0  0.84663  0.93159  0.74084  1.0000
  H   H1072     1.0  0.62988  0.72878  0.78452  1.0000
  H   H1073     1.0  0.81961  0.95629  0.69381  1.0000
  Fe  Fe95      1.0  0.51658  0.83078  0.66930  1.0000
  C   C635      1.0  0.62024  0.71513  0.98280  1.0000
  H   H1074     1.0  0.70440  0.97778  0.71881  1.0000
  H   H1075     1.0  0.96682  0.86372  0.59209  1.0000
  N   N45       1.0  0.74162  0.87728  0.92058  1.0000
  C   C636      1.0  0.73472  0.85248  0.92549  1.0000
  C   C637      1.0  0.69957  0.88724  0.91325  1.0000
  C   C638      1.0  0.76014  0.88791  0.94336  1.0000
  C   C639      1.0  0.77061  0.87917  0.90165  1.0000
  C   C640      1.0  0.77288  0.83885  0.93565  1.0000
  C   C641      1.0  0.67808  0.87899  0.88937  1.0000
  C   C642      1.0  0.76623  0.91378  0.94375  1.0000
  C   C643      1.0  0.77311  0.90237  0.88921  1.0000
  H   H1076     1.0  0.71107  0.85037  0.93820  1.0000
  H   H1077     1.0  0.72223  0.84344  0.90917  1.0000
  H   H1078     1.0  0.69995  0.90589  0.91234  1.0000
  H   H1079     1.0  0.67822  0.88346  0.92677  1.0000
  H   H1080     1.0  0.74125  0.88365  0.95796  1.0000
  H   H1081     1.0  0.79135  0.88089  0.94874  1.0000
  H   H1082     1.0  0.80262  0.87476  0.90896  1.0000
  H   H1083     1.0  0.76252  0.86637  0.88754  1.0000
  H   H1084     1.0  0.86971  0.98346  0.74807  1.0000
  H   H1085     1.0  0.78328  0.84386  0.95409  1.0000
  H   H1086     1.0  0.76414  0.82070  0.93634  1.0000
  H   H1087     1.0  0.69658  0.88236  0.87448  1.0000
  H   H1088     1.0  0.66988  0.86082  0.88966  1.0000
  H   H1089     1.0  0.64848  0.88827  0.88555  1.0000
  H   H1090     1.0  0.78999  0.91924  0.93238  1.0000
  H   H1091     1.0  0.77790  0.91891  0.96202  1.0000
  H   H1092     1.0  0.73728  0.92336  0.93953  1.0000
  H   H1093     1.0  0.80508  0.90916  0.89217  1.0000
  H   H1094     1.0  0.75232  0.91555  0.89490  1.0000
  H   H1095     1.0  0.76589  0.90032  0.86983  1.0000
  H   H1096     1.0  0.95440  0.83848  0.57596  1.0000
  C   C644      1.0  0.60036  0.73076  0.77297  1.0000
  H   H1097     1.0  0.86712  0.89377  0.56572  1.0000
  H   H1098     1.0  0.89227  0.88445  0.59378  1.0000
  H   H1099     1.0  0.76274  0.94324  0.57376  1.0000
  S   S189      1.0  0.93695  0.98363  0.71207  1.0000
  H   H1100     1.0  0.52826  0.95257  0.94643  1.0000
  H   H1101     1.0  0.81596  0.91544  0.62870  1.0000
  N   N46       1.0  0.60319  0.75050  0.75637  1.0000
  C   C645      1.0  0.80575  0.96992  0.75190  1.0000
  C   C646      1.0  0.65398  0.91676  0.95798  1.0000
  H   H1102     1.0  0.65836  0.78280  0.78542  1.0000
  H   H1103     1.0  0.76151  0.93689  0.72799  1.0000
  H   H1104     1.0  0.88125  0.86485  0.57022  1.0000
  C   C647      1.0  0.62813  0.77748  0.79097  1.0000
  Fe  Fe96      1.0  0.51976  0.85054  0.94163  1.0000
  C   C648      1.0  0.76543  0.92996  0.58764  1.0000
  H   H1105     1.0  0.50460  0.71165  0.99005  1.0000
  H   H1106     1.0  0.54684  0.78762  0.98381  1.0000
  C   C649      1.0  0.71716  0.96320  0.72944  1.0000
  H   H1107     1.0  0.87225  0.87333  0.63033  1.0000
  C   C650      1.0  0.69121  0.94886  0.97705  1.0000
  H   H1108     1.0  0.50061  0.69091  0.68925  1.0000
  H   H1109     1.0  0.83049  0.85899  0.59892  1.0000
  H   H1110     1.0  0.81664  0.92054  0.71476  1.0000
  H   H1111     1.0  0.56591  0.77221  0.77652  1.0000
  C   C651      1.0  0.82660  0.87401  0.58710  1.0000
  H   H1112     1.0  0.86950  0.92800  0.71389  1.0000
  S   S190      1.0  0.93690  0.98749  0.63969  1.0000
  H   H1113     1.0  0.61024  0.86496  0.81602  1.0000
  C   C652      1.0  0.52556  0.75041  0.74125  1.0000
  C   C653      1.0  0.58710  0.85180  0.81343  1.0000
  C   C654      1.0  0.75696  0.95410  0.72028  1.0000
  C   C655      1.0  0.83297  0.90282  0.61903  1.0000
  C   C656      1.0  0.60665  0.75323  0.96644  1.0000
  H   H1114     1.0  0.52496  0.81952  0.84426  1.0000
  H   H1115     1.0  0.65001  0.95107  0.94500  1.0000
  H   H1116     1.0  0.64760  0.76726  0.73650  1.0000
  H   H1117     1.0  0.57387  0.73462  0.72448  1.0000
  C   C657      1.0  0.52170  0.93608  0.98013  1.0000
  C   C658      1.0  0.60454  0.72951  0.96416  1.0000
  C   C659      1.0  0.85170  0.88578  0.63772  1.0000
  H   H1118     1.0  0.82777  0.87682  0.64665  1.0000
  H   H1119     1.0  0.82353  0.92024  0.57647  1.0000
  H   H1120     1.0  0.62698  0.78054  0.98978  1.0000
  N   N47       1.0  0.80532  0.89296  0.59871  1.0000
  H   H1121     1.0  0.55598  0.70350  0.76248  1.0000
  H   H1122     1.0  0.66402  0.71634  0.74448  1.0000
  H   H1123     1.0  0.66986  0.75363  0.76263  1.0000
  H   H1124     1.0  0.51124  0.95320  0.98505  1.0000
  H   H1125     1.0  0.85897  0.91248  0.61262  1.0000
  S   S191      1.0  0.52434  0.82330  0.91399  1.0000
  C   C660      1.0  0.58919  0.70739  0.76166  1.0000
  H   H1126     1.0  0.74990  0.95151  0.70090  1.0000
  H   H1127     1.0  0.50183  0.76990  0.95440  1.0000
  S   S192      1.0  0.70200  0.97809  0.97716  1.0000
  C   C661      1.0  0.54074  0.93753  0.95643  1.0000
  H   H1128     1.0  0.57630  0.73418  0.78509  1.0000
  H   H1129     1.0  0.69314  0.94976  0.72739  1.0000
  H   H1130     1.0  0.61657  0.79208  0.80069  1.0000
  H   H1131     1.0  0.59685  0.70506  0.74337  1.0000
  H   H1132     1.0  0.60622  0.69402  0.77236  1.0000
  H   H1133     1.0  0.59654  0.78696  0.75740  1.0000
  N   N48       1.0  0.79543  0.96835  0.72548  1.0000
  C   C662      1.0  0.64535  0.75189  0.74766  1.0000
  C   C663      1.0  0.82885  0.95715  0.71316  1.0000
  C   C664      1.0  0.84064  0.93295  0.72140  1.0000
  H   H1134     1.0  0.72161  0.96774  0.74841  1.0000
  H   H1135     1.0  0.49593  0.72805  0.96379  1.0000
  H   H1136     1.0  0.61824  0.69696  0.98073  1.0000
  H   H1137     1.0  0.97537  0.90799  0.56201  1.0000
  C   C665      1.0  0.99196  0.91897  0.59783  1.0000
  C   C666      1.0  0.70896  0.93442  0.99467  1.0000
  H   H1138     1.0  0.52760  0.89206  0.98599  1.0000
  C   C667      1.0  0.69952  0.91119  0.99381  1.0000
  H   H1139     1.0  0.51957  0.73857  0.75556  1.0000
  H   H1140     1.0  0.85761  0.96709  0.71459  1.0000
  H   H1141     1.0  0.85093  0.98850  0.77565  1.0000
  H   H1142     1.0  0.98492  0.86083  0.56403  1.0000
  C   C668      1.0  0.97907  0.85122  0.58000  1.0000
  H   H1143     1.0  0.78543  0.98256  0.75944  1.0000
  H   H1144     1.0  0.51029  0.80587  0.99509  1.0000
  C   C669      1.0  0.85094  0.97595  0.76112  1.0000
  H   H1145     1.0  0.50496  0.74558  0.72526  1.0000
  H   H1146     1.0  0.96229  0.98798  0.76175  1.0000
  H   H1147     1.0  0.57760  0.97049  0.98924  1.0000
  H   H1148     1.0  0.77760  0.98981  0.69536  1.0000
  H   H1149     1.0  0.54226  0.74769  0.99246  1.0000
  C   C670      1.0  0.52344  0.78851  0.99673  1.0000
  C   C671      1.0  0.50952  0.74783  0.99637  1.0000
  H   H1150     1.0  0.50774  0.86036  0.73904  1.0000
  H   H1151     1.0  0.50346  0.80536  0.80371  1.0000
  H   H1152     1.0  0.50517  0.88013  0.76225  1.0000
  C   C672      1.0  0.78655  0.99139  0.71475  1.0000
