data_image0
_chemical_formula_structural       FeS2FeS2FeSFeHS2CH6SHC4HCH4C6H3CH2C2HNC6H4CH5CHSCH4CHCH2C2H6SCH3CH2NH4CHCH2CHCH2CFeC2H4CHCH2C5H9FeS2FeS2FeSFeS3CSHSH2C2H2C7HCH2C4HCH9CH3CH12CNC2FeHC2H7CH2CSCH4C3HC2HNHCHN2CHFeHC2H2CH3CHC3H4C2H5SCHCH2CHCHCHC2H5C2FeHCHCH3CHNH2SHCH2CH4CSH4SHCH3CH2C2H3CHNSC3HFeHSC2HFeCHSH2CHCSCFeSHCFeS2FeS2FeHFeHFeHS2H2SC7H4CHSH4CNC6H11C2H5S2CH4CH2CHC3H3CH2FeH2CH2SCHCHN2H3FeHCH2CH5CH2CHCHCHFeS2C5H4C3H5FeC2HC3H5CH2C2H2CH3CHCHCH4CNHCH2SH2CSH2SH5CS2CH2Fe2HSHC3H3CH2C2SHSHCH2CHCH2CH2CHNCH4C2H2C2H4CHC2HNHC2HCHSH3CH4SCH5CFe2S2FeH2CS2FeS2FeHFeHFeS3CHCHCH2C6H5C2HSH2NHSFeHSCHC3HCH2SHCH2CH4CH4CH2C3H2CH2CHCH2CH5S3H2NCH2C4H2C3H2SH2FeHC2HCHSH3CH3CHCH3CHSCH4C2HCHFeCH4CHC3H2C3H4FeS2FeS2FeSFeS3FeH4NC2SC7H4C6HCH2C3H8C2H2FeH4NH3CHCHNC4HC2H2SH8CH2CHCHC3H6SH3CH4CH5SHCH4CH2C2HCH3C3HCH3C2H2CH3NHNH13CHC2NHFeS2FeS2FeSFeS3FeHSFeS2C2H2CH2C7H4C6H3CNC8H22SC2H6CH2CHNHCH6
_chemical_formula_sum              "Fe48 S96 H576 C336 N24"
_cell_length_a       33.0007
_cell_length_b       31.9229
_cell_length_c       53.2839
_cell_angle_alpha    88.8547
_cell_angle_beta     88.5492
_cell_angle_gamma    89.9478

_space_group_name_H-M_alt    "P 1"
_space_group_IT_number       1

loop_
  _space_group_symop_operation_xyz
  'x, y, z'

loop_
  _atom_site_type_symbol
  _atom_site_label
  _atom_site_symmetry_multiplicity
  _atom_site_fract_x
  _atom_site_fract_y
  _atom_site_fract_z
  _atom_site_occupancy
  Fe  Fe1       1.0  0.14310  0.14206  0.09433  1.0000
  S   S1        1.0  0.16784  0.07921  0.10589  1.0000
  S   S2        1.0  0.13872  0.17294  0.05498  1.0000
  Fe  Fe2       1.0  0.12251  0.16619  0.14944  1.0000
  S   S3        1.0  0.14479  0.10354  0.16464  1.0000
  S   S4        1.0  0.10799  0.22022  0.17675  1.0000
  Fe  Fe3       1.0  0.19852  0.11069  0.13797  1.0000
  S   S5        1.0  0.26661  0.10606  0.14731  1.0000
  Fe  Fe4       1.0  0.11260  0.07546  0.13192  1.0000
  H   H1        1.0  0.04514  0.23652  0.10768  1.0000
  S   S6        1.0  0.17792  0.17448  0.12429  1.0000
  S   S7        1.0  0.08621  0.13719  0.11876  1.0000
  C   C1        1.0  0.30399  0.14046  0.24088  1.0000
  H   H2        1.0  0.34994  0.03972  0.28799  1.0000
  H   H3        1.0  0.30104  0.13757  0.26156  1.0000
  H   H4        1.0  0.15545  0.08841  0.03583  1.0000
  H   H5        1.0  0.99308  0.31722  0.16073  1.0000
  H   H6        1.0  0.16587  0.26374  0.14144  1.0000
  H   H7        1.0  0.27743  0.12373  0.23345  1.0000
  S   S8        1.0  0.01519  0.42584  0.26537  1.0000
  H   H8        1.0  0.30191  0.17414  0.23538  1.0000
  C   C2        1.0  0.29771  0.07144  0.16548  1.0000
  C   C3        1.0  0.34002  0.07793  0.16525  1.0000
  C   C4        1.0  0.36599  0.05160  0.17926  1.0000
  C   C5        1.0  0.35003  0.01851  0.19405  1.0000
  H   H9        1.0  0.03834  0.03022  0.08284  1.0000
  C   C6        1.0  0.28179  0.03821  0.18017  1.0000
  H   H10       1.0  0.35284  0.10321  0.15381  1.0000
  H   H11       1.0  0.39839  0.05646  0.17828  1.0000
  H   H12       1.0  0.11985  0.22813  0.09851  1.0000
  H   H13       1.0  0.24946  0.03258  0.18059  1.0000
  C   C7        1.0  0.02892  0.33840  0.19128  1.0000
  C   C8        1.0  0.06249  0.32902  0.20593  1.0000
  C   C9        1.0  0.08589  0.29265  0.20131  1.0000
  C   C10       1.0  0.07629  0.26501  0.18201  1.0000
  C   C11       1.0  0.04240  0.27414  0.16756  1.0000
  C   C12       1.0  0.01905  0.31056  0.17214  1.0000
  H   H14       1.0  0.07064  0.34990  0.22073  1.0000
  H   H15       1.0  0.11191  0.28604  0.21269  1.0000
  H   H16       1.0  0.03413  0.25310  0.15291  1.0000
  C   C13       1.0  0.35056  0.05565  0.26926  1.0000
  H   H17       1.0  0.15447  0.32224  0.03107  1.0000
  H   H18       1.0  0.16089  0.06167  0.99233  1.0000
  C   C14       1.0  0.14231  0.15173  0.02415  1.0000
  C   C15       1.0  0.15083  0.10943  0.01997  1.0000
  H   H19       1.0  0.13002  0.21126  0.00605  1.0000
  N   N1        1.0  0.37967  0.12180  0.24660  1.0000
  C   C16       1.0  0.41467  0.10064  0.23320  1.0000
  C   C17       1.0  0.37152  0.09858  0.27118  1.0000
  C   C18       1.0  0.38942  0.16677  0.25196  1.0000
  C   C19       1.0  0.34335  0.12090  0.23002  1.0000
  C   C20       1.0  0.42757  0.17362  0.26756  1.0000
  C   C21       1.0  0.11914  0.33685  0.10210  1.0000
  H   H20       1.0  0.42438  0.15911  0.28659  1.0000
  H   H21       1.0  0.14388  0.36035  0.09949  1.0000
  H   H22       1.0  0.44702  0.15385  0.21441  1.0000
  H   H23       1.0  0.40570  0.06896  0.22709  1.0000
  C   C22       1.0  0.18479  0.28652  0.13050  1.0000
  H   H24       1.0  0.40035  0.09270  0.28115  1.0000
  H   H25       1.0  0.39269  0.18565  0.23422  1.0000
  H   H26       1.0  0.36384  0.18168  0.26249  1.0000
  H   H27       1.0  0.34965  0.13810  0.21200  1.0000
  H   H28       1.0  0.33650  0.08862  0.22392  1.0000
  C   C23       1.0  0.10199  0.34085  0.12927  1.0000
  H   H29       1.0  0.45550  0.16160  0.25820  1.0000
  S   S9        1.0  0.08301  0.01066  0.13138  1.0000
  C   C24       1.0  0.10726  0.25887  0.10442  1.0000
  H   H30       1.0  0.21675  0.27707  0.13349  1.0000
  H   H31       1.0  0.44022  0.09487  0.24606  1.0000
  H   H32       1.0  0.43204  0.20775  0.27007  1.0000
  H   H33       1.0  0.45650  0.10403  0.20108  1.0000
  C   C25       1.0  0.43245  0.12385  0.20971  1.0000
  H   H34       1.0  0.15813  0.35562  0.05744  1.0000
  C   C26       1.0  0.06278  0.25996  0.09623  1.0000
  H   H35       1.0  0.36703  0.03485  0.25616  1.0000
  H   H36       1.0  0.49017  0.16968  0.31360  1.0000
  C   C27       1.0  0.13344  0.29213  0.06595  1.0000
  C   C28       1.0  0.16184  0.32286  0.05130  1.0000
  H   H37       1.0  0.14145  0.26008  0.05959  1.0000
  H   H38       1.0  0.10254  0.29846  0.05889  1.0000
  H   H39       1.0  0.18802  0.25594  0.09476  1.0000
  H   H40       1.0  0.19404  0.31309  0.05248  1.0000
  H   H41       1.0  0.04845  0.29095  0.09903  1.0000
  H   H42       1.0  0.01565  0.28154  0.27689  1.0000
  S   S10       1.0  0.99814  0.38399  0.19600  1.0000
  C   C29       1.0  0.15391  0.09435  0.99520  1.0000
  H   H43       1.0  0.06834  0.34154  0.12945  1.0000
  H   H44       1.0  0.35299  0.11767  0.28442  1.0000
  H   H45       1.0  0.40968  0.12941  0.19511  1.0000
  C   C30       1.0  0.17686  0.28645  0.10214  1.0000
  H   H46       1.0  0.18128  0.31834  0.13824  1.0000
  H   H47       1.0  0.04006  0.00611  0.05300  1.0000
  N   N2        1.0  0.13382  0.29410  0.09428  1.0000
  H   H48       1.0  0.19760  0.31078  0.09398  1.0000
  H   H49       1.0  0.10659  0.25687  0.12516  1.0000
  H   H50       1.0  0.09438  0.34762  0.08966  1.0000
  H   H51       1.0  0.06018  0.25059  0.07639  1.0000
  C   C31       1.0  0.13660  0.17849  0.00315  1.0000
  H   H52       1.0  0.11120  0.37153  0.13679  1.0000
  C   C32       1.0  0.30776  0.01199  0.19427  1.0000
  H   H53       1.0  0.11228  0.31682  0.14283  1.0000
  H   H54       1.0  0.31867  0.05887  0.26339  1.0000
  C   C33       1.0  0.03310  0.99353  0.13928  1.0000
  H   H55       1.0  0.00775  0.27159  0.23263  1.0000
  C   C34       1.0  0.00144  0.31127  0.28289  1.0000
  H   H56       1.0  0.02641  0.33443  0.28405  1.0000
  H   H57       1.0  0.00952  0.05377  0.14962  1.0000
  C   C35       1.0  0.00266  0.02093  0.14748  1.0000
  Fe  Fe5       1.0  0.99635  0.43609  0.22554  1.0000
  C   C36       1.0  0.02948  0.00161  0.07276  1.0000
  C   C37       1.0  0.47572  0.44293  0.63290  1.0000
  H   H58       1.0  0.40634  0.48066  0.35670  1.0000
  H   H59       1.0  0.44371  0.47155  0.46097  1.0000
  H   H60       1.0  0.47071  0.01928  0.60737  1.0000
  H   H61       1.0  0.43844  0.41264  0.36798  1.0000
  C   C38       1.0  0.45713  0.43845  0.36112  1.0000
  H   H62       1.0  0.48912  0.48808  0.39935  1.0000
  C   C39       1.0  0.46581  0.48568  0.63046  1.0000
  H   H63       1.0  0.41192  0.44832  0.41049  1.0000
  H   H64       1.0  0.38446  0.46766  0.43791  1.0000
  C   C40       1.0  0.43887  0.47705  0.35484  1.0000
  C   C41       1.0  0.39510  0.47523  0.41845  1.0000
  C   C42       1.0  0.48702  0.48476  0.42012  1.0000
  C   C43       1.0  0.48351  0.43690  0.56778  1.0000
  C   C44       1.0  0.44348  0.00629  0.33800  1.0000
  H   H65       1.0  0.48240  0.41161  0.58234  1.0000
  H   H66       1.0  0.45528  0.04134  0.64814  1.0000
  H   H67       1.0  0.36754  0.47922  0.40709  1.0000
  H   H68       1.0  0.43371  0.01531  0.35717  1.0000
  H   H69       1.0  0.45167  0.41990  0.63412  1.0000
  H   H70       1.0  0.48751  0.02305  0.38579  1.0000
  H   H71       1.0  0.47472  0.45258  0.42314  1.0000
  H   H72       1.0  0.45186  0.44235  0.56188  1.0000
  H   H73       1.0  0.44865  0.03498  0.32622  1.0000
  Fe  Fe6       1.0  0.09123  0.10194  0.85905  1.0000
  S   S11       1.0  0.09308  0.15561  0.88574  1.0000
  S   S12       1.0  0.02819  0.07633  0.85180  1.0000
  Fe  Fe7       1.0  0.18423  0.10284  0.84971  1.0000
  S   S13       1.0  0.19205  0.15653  0.87616  1.0000
  S   S14       1.0  0.23149  0.05978  0.83035  1.0000
  Fe  Fe8       1.0  0.14697  0.12347  0.90250  1.0000
  S   S15       1.0  0.15332  0.09999  0.94345  1.0000
  Fe  Fe9       1.0  0.13683  0.18522  0.85741  1.0000
  S   S16       1.0  0.13405  0.25608  0.84819  1.0000
  S   S17       1.0  0.14245  0.06806  0.87710  1.0000
  S   S18       1.0  0.13179  0.13331  0.82957  1.0000
  C   C45       1.0  0.13435  0.34856  0.74799  1.0000
  S   S19       1.0  0.02156  0.36557  0.77494  1.0000
  H   H74       1.0  0.32824  0.02976  0.92969  1.0000
  S   S20       1.0  0.41878  0.04765  0.79443  1.0000
  H   H75       1.0  0.10286  0.34417  0.75552  1.0000
  H   H76       1.0  0.13142  0.38751  0.69142  1.0000
  C   C46       1.0  0.14843  0.12117  0.97422  1.0000
  C   C47       1.0  0.13954  0.16339  0.97838  1.0000
  H   H77       1.0  0.38463  0.19390  0.78908  1.0000
  H   H78       1.0  0.13528  0.18452  0.96253  1.0000
  C   C48       1.0  0.18424  0.39860  0.72998  1.0000
  C   C49       1.0  0.10094  0.28581  0.82855  1.0000
  C   C50       1.0  0.07593  0.26703  0.81117  1.0000
  C   C51       1.0  0.05163  0.29197  0.79527  1.0000
  C   C52       1.0  0.05153  0.33603  0.79659  1.0000
  C   C53       1.0  0.07614  0.35483  0.81418  1.0000
  C   C54       1.0  0.10082  0.32990  0.82988  1.0000
  H   H79       1.0  0.07569  0.23326  0.80977  1.0000
  C   C55       1.0  0.44841  0.01552  0.66181  1.0000
  H   H80       1.0  0.07611  0.38853  0.81582  1.0000
  H   H81       1.0  0.11986  0.34486  0.84329  1.0000
  C   C56       1.0  0.28310  0.05860  0.81904  1.0000
  C   C57       1.0  0.31036  0.09146  0.82257  1.0000
  C   C58       1.0  0.35150  0.08757  0.81477  1.0000
  C   C59       1.0  0.36607  0.05105  0.80307  1.0000
  H   H82       1.0  0.19124  0.01775  0.92497  1.0000
  C   C60       1.0  0.29764  0.02227  0.80715  1.0000
  H   H83       1.0  0.29989  0.11961  0.83166  1.0000
  H   H84       1.0  0.18798  0.43357  0.69386  1.0000
  H   H85       1.0  0.15641  0.33319  0.78587  1.0000
  H   H86       1.0  0.05399  0.05428  0.90325  1.0000
  H   H87       1.0  0.03386  0.13917  0.92553  1.0000
  H   H88       1.0  0.47714  0.08939  0.76459  1.0000
  H   H89       1.0  0.46803  0.01887  0.67812  1.0000
  H   H90       1.0  0.11244  0.44587  0.72413  1.0000
  H   H91       1.0  0.30399  0.10394  0.93599  1.0000
  C   C61       1.0  0.01090  0.02419  0.85671  1.0000
  H   H92       1.0  0.37196  0.15283  0.76859  1.0000
  H   H93       1.0  0.43633  0.13784  0.78687  1.0000
  H   H94       1.0  0.22463  0.44814  0.71564  1.0000
  C   C62       1.0  0.01165  0.05747  0.96249  1.0000
  H   H95       1.0  0.02681  0.02993  0.97125  1.0000
  H   H96       1.0  0.41994  0.20286  0.71436  1.0000
  H   H97       1.0  0.38900  0.20319  0.75596  1.0000
  H   H98       1.0  0.16534  0.40138  0.78101  1.0000
  H   H99       1.0  0.20891  0.39547  0.74379  1.0000
  H   H100      1.0  0.46763  0.08554  0.70917  1.0000
  H   H101      1.0  0.14837  0.47492  0.78722  1.0000
  H   H102      1.0  0.15658  0.29070  0.76502  1.0000
  H   H103      1.0  0.08779  0.36012  0.70506  1.0000
  H   H104      1.0  0.00382  0.00092  0.90926  1.0000
  H   H105      1.0  0.07993  0.40920  0.73877  1.0000
  H   H106      1.0  0.11091  0.02042  0.92289  1.0000
  C   C63       1.0  0.44801  0.21648  0.72155  1.0000
  N   N3        1.0  0.27290  0.03816  0.90877  1.0000
  C   C64       1.0  0.30155  0.05201  0.88766  1.0000
  C   C65       1.0  0.25073  0.07645  0.91796  1.0000
  Fe  Fe10      1.0  0.46000  0.00121  0.77273  1.0000
  H   H107      1.0  0.39974  0.14268  0.72915  1.0000
  C   C66       1.0  0.10280  0.39106  0.70245  1.0000
  C   C67       1.0  0.27761  0.11380  0.92484  1.0000
  H   H108      1.0  0.11273  0.41181  0.77781  1.0000
  H   H109      1.0  0.06948  0.08260  0.92961  1.0000
  H   H110      1.0  0.03131  0.08420  0.96769  1.0000
  H   H111      1.0  0.32560  0.07291  0.89462  1.0000
  H   H112      1.0  0.23132  0.06910  0.93470  1.0000
  H   H113      1.0  0.22934  0.08806  0.90357  1.0000
  H   H114      1.0  0.13574  0.33100  0.73015  1.0000
  C   C68       1.0  0.33868  0.01853  0.79915  1.0000
  H   H115      1.0  0.99375  0.13936  0.94920  1.0000
  H   H116      1.0  0.46351  0.23105  0.70478  1.0000
  C   C69       1.0  0.00128  0.13312  0.92922  1.0000
  S   S21       1.0  0.45673  0.99871  0.73082  1.0000
  C   C70       1.0  0.08083  0.01686  0.93248  1.0000
  H   H117      1.0  0.25925  0.13613  0.93616  1.0000
  H   H118      1.0  0.37227  0.11294  0.81804  1.0000
  H   H119      1.0  0.28509  0.07101  0.87340  1.0000
  H   H120      1.0  0.13323  0.48178  0.75565  1.0000
  C   C71       1.0  0.05348  0.05369  0.92418  1.0000
  C   C72       1.0  0.24261  0.00863  0.89784  1.0000
  C   C73       1.0  0.43736  0.16342  0.77227  1.0000
  H   H121      1.0  0.18878  0.37233  0.71673  1.0000
  C   C74       1.0  0.39329  0.17932  0.77095  1.0000
  C   C75       1.0  0.32421  0.01667  0.87373  1.0000
  H   H122      1.0  0.41800  0.09299  0.69783  1.0000
  N   N4        1.0  0.14334  0.39452  0.74320  1.0000
  H   H123      1.0  0.28838  0.13118  0.90767  1.0000
  C   C76       1.0  0.44309  0.10889  0.70735  1.0000
  H   H124      1.0  0.41597  0.09625  0.74413  1.0000
  N   N5        1.0  0.45726  0.14820  0.74822  1.0000
  N   N6        1.0  0.01034  0.05290  0.93444  1.0000
  C   C77       1.0  0.10914  0.41194  0.72792  1.0000
  H   H125      1.0  0.22791  0.02382  0.88137  1.0000
  Fe  Fe11      1.0  0.00836  0.43403  0.76285  1.0000
  H   H126      1.0  0.45350  0.13511  0.69484  1.0000
  C   C78       1.0  0.15306  0.46290  0.76793  1.0000
  C   C79       1.0  0.42731  0.12415  0.73311  1.0000
  H   H127      1.0  0.17442  0.46690  0.71969  1.0000
  H   H128      1.0  0.44028  0.24154  0.73503  1.0000
  C   C80       1.0  0.16267  0.32487  0.76603  1.0000
  H   H129      1.0  0.08650  0.01715  0.95289  1.0000
  H   H130      1.0  0.19515  0.32986  0.76111  1.0000
  H   H131      1.0  0.03301  0.27688  0.78171  1.0000
  C   C81       1.0  0.19226  0.43919  0.71413  1.0000
  H   H132      1.0  0.08218  0.41094  0.69110  1.0000
  C   C82       1.0  0.14295  0.41580  0.76824  1.0000
  C   C83       1.0  0.99194  0.01124  0.92782  1.0000
  C   C84       1.0  0.27993  0.01841  0.95627  1.0000
  H   H133      1.0  0.29824  0.99757  0.96850  1.0000
  H   H134      1.0  0.34845  0.03069  0.86137  1.0000
  H   H135      1.0  0.45556  0.18894  0.78042  1.0000
  H   H136      1.0  0.28228  0.05039  0.96388  1.0000
  C   C85       1.0  0.47667  0.18394  0.73340  1.0000
  C   C86       1.0  0.29704  0.01655  0.92903  1.0000
  H   H137      1.0  0.24811  0.00789  0.95830  1.0000
  H   H138      1.0  0.18537  0.46850  0.76269  1.0000
  H   H139      1.0  0.27702  0.99658  0.80427  1.0000
  H   H140      1.0  0.41663  0.01989  0.66864  1.0000
  H   H141      1.0  0.06956  0.99717  0.86320  1.0000
  S   S22       1.0  0.99862  0.43897  0.72115  1.0000
  C   C87       1.0  0.49037  0.11794  0.75540  1.0000
  H   H142      1.0  0.30378  0.99969  0.86120  1.0000
  C   C88       1.0  0.20838  0.99237  0.91562  1.0000
  H   H143      1.0  0.33897  0.99424  0.88675  1.0000
  H   H144      1.0  0.40114  0.71951  0.27278  1.0000
  C   C89       1.0  0.02366  0.95089  0.13664  1.0000
  H   H145      1.0  0.25068  0.65127  0.27603  1.0000
  C   C90       1.0  0.04314  0.62663  0.20530  1.0000
  H   H146      1.0  0.01363  0.91804  0.07170  1.0000
  C   C91       1.0  0.46060  0.67791  0.32145  1.0000
  H   H147      1.0  0.14158  0.68140  0.29987  1.0000
  C   C92       1.0  0.44123  0.66424  0.27833  1.0000
  C   C93       1.0  0.40875  0.83714  0.29695  1.0000
  H   H148      1.0  0.45158  0.74713  0.29443  1.0000
  H   H149      1.0  0.07913  0.56786  0.20726  1.0000
  H   H150      1.0  0.04308  0.65279  0.19125  1.0000
  H   H151      1.0  0.26116  0.74325  0.31718  1.0000
  H   H152      1.0  0.40371  0.85751  0.28084  1.0000
  C   C94       1.0  0.01576  0.67360  0.23715  1.0000
  C   C95       1.0  0.47891  0.72914  0.28856  1.0000
  Fe  Fe12      1.0  0.48484  0.93246  0.27212  1.0000
  H   H153      1.0  0.38488  0.68367  0.29785  1.0000
  C   C96       1.0  0.13715  0.53280  0.29540  1.0000
  H   H154      1.0  0.16127  0.71617  0.27528  1.0000
  C   C97       1.0  0.01160  0.71079  0.21840  1.0000
  H   H155      1.0  0.45150  0.66287  0.25830  1.0000
  H   H156      1.0  0.01299  0.61116  0.20418  1.0000
  H   H157      1.0  0.29492  0.98638  0.20543  1.0000
  C   C98       1.0  0.12689  0.63606  0.23889  1.0000
  H   H158      1.0  0.04708  0.92945  0.13043  1.0000
  N   N7        1.0  0.47345  0.68304  0.29424  1.0000
  H   H159      1.0  0.04847  0.58834  0.28936  1.0000
  H   H160      1.0  0.27900  0.68929  0.29222  1.0000
  S   S23       1.0  0.48141  0.88077  0.30300  1.0000
  H   H161      1.0  0.13438  0.63670  0.25908  1.0000
  C   C99       1.0  0.24771  0.67965  0.28768  1.0000
  H   H162      1.0  0.49158  0.59497  0.29202  1.0000
  H   H163      1.0  0.19761  0.64812  0.30622  1.0000
  C   C100      1.0  0.37996  0.80597  0.30396  1.0000
  H   H164      1.0  0.18754  0.54242  0.26937  1.0000
  H   H165      1.0  0.43534  0.63107  0.28420  1.0000
  H   H166      1.0  0.06508  0.58433  0.17666  1.0000
  H   H167      1.0  0.12452  0.60310  0.23319  1.0000
  C   C101      1.0  0.04576  0.61771  0.27794  1.0000
  S   S24       1.0  0.10406  0.51600  0.27129  1.0000
  H   H168      1.0  0.23335  0.70453  0.27618  1.0000
  H   H169      1.0  0.01978  0.68769  0.25585  1.0000
  H   H170      1.0  0.15386  0.64922  0.22864  1.0000
  H   H171      1.0  0.01397  0.59098  0.24743  1.0000
  S   S25       1.0  0.38106  0.98453  0.21266  1.0000
  H   H172      1.0  0.04095  0.72644  0.21399  1.0000
  C   C102      1.0  0.07516  0.59588  0.19503  1.0000
  H   H173      1.0  0.08815  0.68723  0.24882  1.0000
  H   H174      1.0  0.19911  0.75645  0.30060  1.0000
  H   H175      1.0  0.04625  0.97534  0.08163  1.0000
  C   C103      1.0  0.44382  0.84202  0.31084  1.0000
  H   H176      1.0  0.10471  0.61171  0.19142  1.0000
  H   H177      1.0  0.09661  0.68275  0.21591  1.0000
  C   C104      1.0  0.20481  0.55774  0.30701  1.0000
  C   C105      1.0  0.17735  0.54438  0.28877  1.0000
  H   H178      1.0  0.00840  0.94928  0.03110  1.0000
  H   H179      1.0  0.35295  0.80279  0.29306  1.0000
  H   H180      1.0  0.06592  0.58127  0.24659  1.0000
  C   C106      1.0  0.39957  0.68620  0.27900  1.0000
  H   H181      1.0  0.37919  0.67015  0.26598  1.0000
  N   N8        1.0  0.04916  0.64248  0.23145  1.0000
  S   S26       1.0  0.48401  0.92437  0.23016  1.0000
  C   C107      1.0  0.04374  0.60647  0.24997  1.0000
  C   C108      1.0  0.12475  0.53535  0.32065  1.0000
  C   C109      1.0  0.08961  0.66416  0.23340  1.0000
  H   H182      1.0  0.23557  0.56603  0.30149  1.0000
  Fe  Fe13      1.0  0.03882  0.49245  0.26390  1.0000
  H   H183      1.0  0.07218  0.63753  0.28199  1.0000
  S   S27       1.0  0.02308  0.50140  0.22295  1.0000
  C   C110      1.0  0.48876  0.74106  0.26090  1.0000
  C   C111      1.0  0.15002  0.71409  0.29509  1.0000
  H   H184      1.0  0.01741  0.63329  0.28444  1.0000
  Fe  Fe14      1.0  0.44497  0.98312  0.22940  1.0000
  C   C112      1.0  0.22275  0.66853  0.31177  1.0000
  H   H185      1.0  0.99728  0.70093  0.20082  1.0000
  S   S28       1.0  0.44370  0.98851  0.27151  1.0000
  H   H186      1.0  0.46414  0.73213  0.24830  1.0000
  H   H187      1.0  0.12142  0.73249  0.29565  1.0000
  C   C113      1.0  0.18067  0.73445  0.31273  1.0000
  H   H188      1.0  0.24220  0.64762  0.32336  1.0000
  C   C114      1.0  0.24554  0.72925  0.33411  1.0000
  S   S29       1.0  0.32256  0.66839  0.63057  1.0000
  C   C115      1.0  0.13180  0.61039  0.62580  1.0000
  Fe  Fe15      1.0  0.38570  0.56564  0.62893  1.0000
  S   S30       1.0  0.40558  0.62413  0.60759  1.0000
  H   H189      1.0  0.15049  0.61849  0.64204  1.0000
  C   C116      1.0  0.47542  0.56078  0.42904  1.0000
  Fe  Fe16      1.0  0.33995  0.62934  0.59680  1.0000
  S   S31       1.0  0.31153  0.64613  0.55886  1.0000
  S   S32       1.0  0.32091  0.56895  0.61628  1.0000
  Fe  Fe17      1.0  0.34917  0.62289  0.40423  1.0000
  S   S33       1.0  0.39734  0.64627  0.37645  1.0000
  S   S34       1.0  0.37139  0.61551  0.44484  1.0000
  Fe  Fe18      1.0  0.29112  0.60075  0.36126  1.0000
  H   H190      1.0  0.47270  0.85617  0.62353  1.0000
  Fe  Fe19      1.0  0.38363  0.58873  0.35459  1.0000
  H   H191      1.0  0.26733  0.78448  0.35275  1.0000
  Fe  Fe20      1.0  0.34782  0.67768  0.35502  1.0000
  H   H192      1.0  0.18060  0.67694  0.62403  1.0000
  S   S35       1.0  0.33780  0.56362  0.38299  1.0000
  S   S36       1.0  0.29987  0.65892  0.38435  1.0000
  H   H193      1.0  0.42528  0.76422  0.35520  1.0000
  H   H194      1.0  0.39926  0.54177  0.42293  1.0000
  S   S37       1.0  0.22496  0.57862  0.35626  1.0000
  C   C117      1.0  0.15218  0.54875  0.33888  1.0000
  C   C118      1.0  0.32850  0.63655  0.52731  1.0000
  C   C119      1.0  0.30369  0.64877  0.50728  1.0000
  C   C120      1.0  0.31592  0.64230  0.48200  1.0000
  C   C121      1.0  0.35339  0.62368  0.47635  1.0000
  C   C122      1.0  0.37813  0.61132  0.49639  1.0000
  C   C123      1.0  0.36580  0.61755  0.52166  1.0000
  H   H195      1.0  0.27487  0.66364  0.51130  1.0000
  H   H196      1.0  0.29653  0.65209  0.46690  1.0000
  H   H197      1.0  0.40721  0.59703  0.49235  1.0000
  H   H198      1.0  0.38531  0.60803  0.53675  1.0000
  C   C124      1.0  0.23893  0.76581  0.35231  1.0000
  H   H199      1.0  0.45129  0.64522  0.32619  1.0000
  S   S38       1.0  0.34820  0.74031  0.33268  1.0000
  H   H200      1.0  0.14205  0.55030  0.35831  1.0000
  H   H201      1.0  0.20938  0.66907  0.36178  1.0000
  H   H202      1.0  0.44225  0.96960  0.39267  1.0000
  H   H203      1.0  0.19976  0.51500  0.58877  1.0000
  C   C125      1.0  0.22536  0.53730  0.58599  1.0000
  N   N9        1.0  0.19037  0.60939  0.59226  1.0000
  C   C126      1.0  0.21085  0.57925  0.57440  1.0000
  C   C127      1.0  0.17237  0.64404  0.57641  1.0000
  C   C128      1.0  0.15666  0.58596  0.60611  1.0000
  C   C129      1.0  0.22151  0.62498  0.61017  1.0000
  C   C130      1.0  0.18796  0.68913  0.35099  1.0000
  C   C131      1.0  0.20292  0.66906  0.55960  1.0000
  H   H204      1.0  0.47270  0.92851  0.61008  1.0000
  H   H205      1.0  0.16866  0.55854  0.61671  1.0000
  H   H206      1.0  0.19045  0.57131  0.55882  1.0000
  H   H207      1.0  0.23816  0.59383  0.56515  1.0000
  H   H208      1.0  0.15544  0.66708  0.58781  1.0000
  H   H209      1.0  0.14921  0.63109  0.56381  1.0000
  H   H210      1.0  0.13501  0.57301  0.59254  1.0000
  H   H211      1.0  0.42600  0.52256  0.39643  1.0000
  H   H212      1.0  0.23118  0.69273  0.61406  1.0000
  H   H213      1.0  0.25129  0.62921  0.60014  1.0000
  H   H214      1.0  0.22696  0.60114  0.62521  1.0000
  C   C132      1.0  0.45248  0.97206  0.64975  1.0000
  C   C133      1.0  0.42077  0.78396  0.33877  1.0000
  H   H215      1.0  0.18747  0.69674  0.55125  1.0000
  H   H216      1.0  0.22886  0.68079  0.57022  1.0000
  H   H217      1.0  0.21459  0.65017  0.54371  1.0000
  H   H218      1.0  0.17945  0.71527  0.36352  1.0000
  H   H219      1.0  0.12330  0.68466  0.34231  1.0000
  S   S39       1.0  0.41401  0.50022  0.62834  1.0000
  S   S40       1.0  0.44094  0.55965  0.33741  1.0000
  C   C134      1.0  0.21267  0.66726  0.62305  1.0000
  H   H220      1.0  0.21447  0.78732  0.34635  1.0000
  H   H221      1.0  0.11694  0.63858  0.61783  1.0000
  H   H222      1.0  0.24056  0.54136  0.60404  1.0000
  H   H223      1.0  0.46134  0.58009  0.39017  1.0000
  C   C135      1.0  0.48788  0.57607  0.40229  1.0000
  H   H224      1.0  0.45291  0.58358  0.43667  1.0000
  H   H225      1.0  0.13942  0.65069  0.36709  1.0000
  C   C136      1.0  0.47613  0.87998  0.63825  1.0000
  H   H226      1.0  0.10720  0.58974  0.63354  1.0000
  C   C137      1.0  0.48145  0.97801  0.33778  1.0000
  C   C138      1.0  0.14849  0.66412  0.34838  1.0000
  C   C139      1.0  0.44766  0.50603  0.45834  1.0000
  H   H227      1.0  0.47100  0.94579  0.34241  1.0000
  H   H228      1.0  0.44586  0.88449  0.64727  1.0000
  H   H229      1.0  0.24758  0.52251  0.57287  1.0000
  C   C140      1.0  0.46266  0.51060  0.34586  1.0000
  H   H230      1.0  0.47637  0.81870  0.34282  1.0000
  H   H231      1.0  0.15194  0.63727  0.33576  1.0000
  Fe  Fe21      1.0  0.38676  0.65894  0.64287  1.0000
  H   H232      1.0  0.48794  0.72629  0.34460  1.0000
  H   H233      1.0  0.26805  0.70776  0.34276  1.0000
  C   C141      1.0  0.47399  0.95801  0.39181  1.0000
  H   H234      1.0  0.43328  0.97270  0.63286  1.0000
  H   H235      1.0  0.47529  0.92824  0.38162  1.0000
  S   S41       1.0  0.33648  0.62141  0.33122  1.0000
  C   C142      1.0  0.41993  0.51626  0.41671  1.0000
  H   H236      1.0  0.16320  0.75455  0.32600  1.0000
  C   C143      1.0  0.47709  0.52040  0.47849  1.0000
  H   H237      1.0  0.48652  0.67420  0.35866  1.0000
  N   N10       1.0  0.45861  0.51685  0.43126  1.0000
  N   N11       1.0  0.20825  0.70525  0.32700  1.0000
  H   H238      1.0  0.41784  0.52028  0.46378  1.0000
  H   H239      1.0  0.46738  0.50646  0.49694  1.0000
  H   H240      1.0  0.23302  0.75423  0.37184  1.0000
  Fe  Fe22      1.0  0.30749  0.60699  0.65055  1.0000
  H   H241      1.0  0.22279  0.66515  0.64275  1.0000
  C   C144      1.0  0.19247  0.55998  0.33231  1.0000
  H   H242      1.0  0.21739  0.53596  0.65135  1.0000
  H   H243      1.0  0.09411  0.52660  0.32621  1.0000
  C   C145      1.0  0.44957  0.81515  0.33179  1.0000
  H   H244      1.0  0.47585  0.55495  0.48060  1.0000
  H   H245      1.0  0.48156  0.95022  0.41156  1.0000
  H   H246      1.0  0.43251  0.69611  0.32545  1.0000
  H   H247      1.0  0.15050  0.50028  0.65626  1.0000
  H   H248      1.0  0.49002  0.54812  0.62703  1.0000
  C   C146      1.0  0.49145  0.69240  0.34085  1.0000
  H   H249      1.0  0.41800  0.98918  0.32960  1.0000
  H   H250      1.0  0.37418  0.77735  0.65747  1.0000
  C   C147      1.0  0.38582  0.77897  0.32480  1.0000
  H   H251      1.0  0.03105  0.89988  0.79167  1.0000
  C   C148      1.0  0.34133  0.75605  0.73033  1.0000
  H   H252      1.0  0.18878  0.60886  0.71621  1.0000
  C   C149      1.0  0.00258  0.84750  0.81161  1.0000
  H   H253      1.0  0.25776  0.98008  0.89053  1.0000
  Fe  Fe23      1.0  0.47019  0.92946  0.73409  1.0000
  S   S42       1.0  0.46933  0.93124  0.77654  1.0000
  S   S43       1.0  0.43006  0.88987  0.70854  1.0000
  C   C150      1.0  0.42892  0.75667  0.67494  1.0000
  C   C151      1.0  0.46045  0.76882  0.69062  1.0000
  C   C152      1.0  0.46137  0.80917  0.70112  1.0000
  C   C153      1.0  0.43074  0.83822  0.69601  1.0000
  C   C154      1.0  0.02201  0.95049  0.86684  1.0000
  H   H254      1.0  0.12263  0.57202  0.72170  1.0000
  H   H255      1.0  0.01579  0.81664  0.85996  1.0000
  H   H256      1.0  0.26320  0.69457  0.70919  1.0000
  H   H257      1.0  0.37629  0.62572  0.73105  1.0000
  C   C155      1.0  0.19673  0.54436  0.66649  1.0000
  C   C156      1.0  0.14309  0.56401  0.70634  1.0000
  C   C157      1.0  0.13155  0.53370  0.68930  1.0000
  H   H258      1.0  0.18613  0.97520  0.90437  1.0000
  H   H259      1.0  0.27256  0.63903  0.75653  1.0000
  H   H260      1.0  0.39225  0.69594  0.75374  1.0000
  H   H261      1.0  0.00099  0.98618  0.94139  1.0000
  H   H262      1.0  0.40086  0.65024  0.70391  1.0000
  Fe  Fe24      1.0  0.03299  0.50028  0.72208  1.0000
  C   C158      1.0  0.35990  0.77534  0.75379  1.0000
  C   C159      1.0  0.18072  0.58495  0.70313  1.0000
  H   H263      1.0  0.34920  0.99023  0.79024  1.0000
  C   C160      1.0  0.39941  0.82624  0.68011  1.0000
  C   C161      1.0  0.39743  0.65065  0.72462  1.0000
  C   C162      1.0  0.38524  0.69467  0.73343  1.0000
  H   H264      1.0  0.33270  0.66354  0.69948  1.0000
  H   H265      1.0  0.35587  0.80992  0.75274  1.0000
  H   H266      1.0  0.40715  0.71641  0.72361  1.0000
  H   H267      1.0  0.35775  0.77038  0.71383  1.0000
  H   H268      1.0  0.35040  0.71243  0.68863  1.0000
  C   C163      1.0  0.31359  0.69156  0.74921  1.0000
  H   H269      1.0  0.00299  0.71492  0.81973  1.0000
  H   H270      1.0  0.03063  0.84599  0.82274  1.0000
  C   C164      1.0  0.00202  0.78615  0.85541  1.0000
  C   C165      1.0  0.39848  0.78587  0.66962  1.0000
  H   H271      1.0  0.30979  0.76822  0.72952  1.0000
  H   H272      1.0  0.27969  0.69793  0.67720  1.0000
  C   C166      1.0  0.32967  0.69748  0.70297  1.0000
  H   H273      1.0  0.42770  0.64264  0.73202  1.0000
  H   H274      1.0  0.32565  0.69744  0.76812  1.0000
  H   H275      1.0  0.34478  0.76414  0.77146  1.0000
  C   C167      1.0  0.01575  0.77444  0.79933  1.0000
  H   H276      1.0  0.37561  0.84841  0.67588  1.0000
  C   C168      1.0  0.15881  0.52392  0.66945  1.0000
  H   H277      1.0  0.04265  0.92521  0.87126  1.0000
  C   C169      1.0  0.20770  0.57565  0.68306  1.0000
  H   H278      1.0  0.39306  0.76980  0.75452  1.0000
  H   H279      1.0  0.28418  0.70875  0.74943  1.0000
  H   H280      1.0  0.48578  0.81773  0.71318  1.0000
  H   H281      1.0  0.04454  0.77715  0.80961  1.0000
  C   C170      1.0  0.00313  0.72788  0.80026  1.0000
  N   N12       1.0  0.34222  0.70877  0.72903  1.0000
  H   H282      1.0  0.32506  0.62620  0.76092  1.0000
  C   C171      1.0  0.30388  0.64424  0.74896  1.0000
  H   H283      1.0  0.30376  0.63061  0.73006  1.0000
  H   H284      1.0  0.28144  0.74392  0.69538  1.0000
  S   S44       1.0  0.25406  0.60464  0.67947  1.0000
  H   H285      1.0  0.03449  0.85230  0.77470  1.0000
  H   H286      1.0  0.43723  0.94933  0.66303  1.0000
  C   C172      1.0  0.28593  0.70953  0.69622  1.0000
  S   S45       1.0  0.08328  0.50805  0.69125  1.0000
  H   H287      1.0  0.30155  0.98285  0.92467  1.0000
  H   H288      1.0  0.02483  0.78241  0.77962  1.0000
  S   S46       1.0  0.37093  0.59941  0.66461  1.0000
  H   H289      1.0  0.02545  0.70919  0.78924  1.0000
  H   H290      1.0  0.02597  0.76335  0.85026  1.0000
  H   H291      1.0  0.48433  0.74669  0.69481  1.0000
  H   H292      1.0  0.22004  0.96946  0.92957  1.0000
  H   H293      1.0  0.06886  0.98599  0.92704  1.0000
  C   C173      1.0  0.03736  0.99124  0.86232  1.0000
  S   S47       1.0  0.04514  0.49356  0.76335  1.0000
  S   S48       1.0  0.42903  0.70459  0.66302  1.0000
  C   C174      1.0  0.01423  0.87098  0.78704  1.0000
  H   H294      1.0  0.77405  0.31180  0.28949  1.0000
  H   H295      1.0  0.76470  0.24243  0.26969  1.0000
  Fe  Fe25      1.0  0.49969  0.02878  0.26688  1.0000
  Fe  Fe26      1.0  0.95321  0.45247  0.27574  1.0000
  H   H296      1.0  0.87257  0.37257  0.22795  1.0000
  S   S49       1.0  0.91282  0.41636  0.30502  1.0000
  H   H297      1.0  0.61106  0.25829  0.26392  1.0000
  C   C175      1.0  0.78934  0.41609  0.29450  1.0000
  C   C176      1.0  0.83146  0.42343  0.29090  1.0000
  C   C177      1.0  0.85904  0.40815  0.30844  1.0000
  H   H298      1.0  0.65847  0.21868  0.24190  1.0000
  H   H299      1.0  0.76849  0.42853  0.28089  1.0000
  H   H300      1.0  0.84250  0.44133  0.27470  1.0000
  C   C178      1.0  0.88469  0.35776  0.24525  1.0000
  H   H301      1.0  0.67562  0.32018  0.27683  1.0000
  H   H302      1.0  0.93183  0.33065  0.22247  1.0000
  C   C179      1.0  0.53453  0.12383  0.30199  1.0000
  C   C180      1.0  0.90951  0.29567  0.28300  1.0000
  S   S50       1.0  0.49865  0.02651  0.22462  1.0000
  H   H303      1.0  0.74042  0.33652  0.26741  1.0000
  S   S51       1.0  0.93400  0.46129  0.23593  1.0000
  H   H304      1.0  0.58621  0.08502  0.29348  1.0000
  C   C181      1.0  0.96331  0.00561  0.15317  1.0000
  H   H305      1.0  0.67209  0.16673  0.25118  1.0000
  H   H306      1.0  0.87655  0.23597  0.28675  1.0000
  C   C182      1.0  0.77384  0.39362  0.31571  1.0000
  H   H307      1.0  0.60825  0.30537  0.28056  1.0000
  C   C183      1.0  0.68268  0.19980  0.25062  1.0000
  H   H308      1.0  0.73661  0.26578  0.24539  1.0000
  H   H309      1.0  0.92236  0.23745  0.24655  1.0000
  C   C184      1.0  0.69147  0.21312  0.27762  1.0000
  H   H310      1.0  0.84689  0.28197  0.29427  1.0000
  H   H311      1.0  0.71041  0.20099  0.23843  1.0000
  C   C185      1.0  0.67029  0.28743  0.27078  1.0000
  H   H312      1.0  0.66488  0.20437  0.28989  1.0000
  N   N13       1.0  0.70277  0.25850  0.28058  1.0000
  C   C186      1.0  0.74170  0.26713  0.26593  1.0000
  H   H313      1.0  0.78748  0.31463  0.25688  1.0000
  H   H314      1.0  0.71627  0.19220  0.28405  1.0000
  H   H315      1.0  0.90149  0.32675  0.29092  1.0000
  H   H316      1.0  0.67149  0.28854  0.24988  1.0000
  C   C187      1.0  0.76163  0.31003  0.27038  1.0000
  C   C188      1.0  0.62615  0.27604  0.27874  1.0000
  H   H317      1.0  0.62305  0.25895  0.29694  1.0000
  H   H318      1.0  0.96893  0.02635  0.06994  1.0000
  C   C189      1.0  0.57577  0.11344  0.30229  1.0000
  C   C190      1.0  0.70783  0.26679  0.30805  1.0000
  H   H319      1.0  0.85839  0.34863  0.25751  1.0000
  H   H320      1.0  0.77053  0.24233  0.31162  1.0000
  H   H321      1.0  0.96547  0.27075  0.21166  1.0000
  H   H322      1.0  0.98280  0.99807  0.02874  1.0000
  C   C191      1.0  0.97029  0.32819  0.26406  1.0000
  H   H323      1.0  0.90239  0.38189  0.25474  1.0000
  C   C192      1.0  0.52187  0.16111  0.31359  1.0000
  C   C193      1.0  0.91108  0.31972  0.23810  1.0000
  H   H324      1.0  0.89104  0.29655  0.22926  1.0000
  N   N14       1.0  0.93483  0.30005  0.25915  1.0000
  H   H325      1.0  0.85736  0.26988  0.26246  1.0000
  C   C194      1.0  0.87054  0.26915  0.28133  1.0000
  C   C195      1.0  0.94875  0.25713  0.25145  1.0000
  H   H326      1.0  0.71439  0.30031  0.31117  1.0000
  C   C196      1.0  0.97857  0.25620  0.22869  1.0000
  H   H327      1.0  0.67910  0.26133  0.31873  1.0000
  S   S52       1.0  0.49725  0.09079  0.28853  1.0000
  H   H328      1.0  0.92731  0.28054  0.29813  1.0000
  H   H329      1.0  0.94004  0.02692  0.15975  1.0000
  H   H330      1.0  0.98578  0.22313  0.22421  1.0000
  C   C197      1.0  0.60352  0.13935  0.31460  1.0000
  H   H331      1.0  0.96297  0.23996  0.26735  1.0000
  H   H332      1.0  0.63509  0.13034  0.31517  1.0000
  H   H333      1.0  0.95934  0.35849  0.27156  1.0000
  H   H334      1.0  0.73091  0.20740  0.32393  1.0000
  S   S53       1.0  0.72003  0.38558  0.31905  1.0000
  C   C198      1.0  0.98303  0.99599  0.07567  1.0000
  H   H335      1.0  0.97675  0.99238  0.09620  1.0000
  H   H336      1.0  0.90909  0.99379  0.05491  1.0000
  H   H337      1.0  0.97493  0.07909  0.99414  1.0000
  H   H338      1.0  0.98818  0.30769  0.30213  1.0000
  H   H339      1.0  0.98725  0.33657  0.24633  1.0000
  C   C199      1.0  0.74055  0.24054  0.32135  1.0000
  Fe  Fe27      1.0  0.70882  0.33647  0.63670  1.0000
  Fe  Fe28      1.0  0.64801  0.30753  0.59665  1.0000
  S   S54       1.0  0.59411  0.31687  0.62306  1.0000
  S   S55       1.0  0.63116  0.28498  0.55750  1.0000
  Fe  Fe29      1.0  0.62443  0.37716  0.63278  1.0000
  H   H340      1.0  0.63012  0.47834  0.57175  1.0000
  H   H341      1.0  0.50227  0.05785  0.34786  1.0000
  C   C200      1.0  0.56396  0.05491  0.35878  1.0000
  S   S56       1.0  0.67636  0.36918  0.60513  1.0000
  S   S57       1.0  0.68466  0.27287  0.62596  1.0000
  Fe  Fe30      1.0  0.65047  0.33034  0.40370  1.0000
  S   S58       1.0  0.64197  0.38950  0.38026  1.0000
  S   S59       1.0  0.67308  0.34277  0.44352  1.0000
  Fe  Fe31      1.0  0.62746  0.27355  0.35912  1.0000
  H   H342      1.0  0.86443  0.37278  0.34310  1.0000
  Fe  Fe32      1.0  0.67565  0.35599  0.34897  1.0000
  H   H343      1.0  0.58823  0.36753  0.57118  1.0000
  Fe  Fe33      1.0  0.58524  0.35853  0.36728  1.0000
  S   S60       1.0  0.52034  0.38411  0.36810  1.0000
  S   S61       1.0  0.68723  0.29860  0.37294  1.0000
  S   S62       1.0  0.59220  0.30058  0.39196  1.0000
  C   C201      1.0  0.52774  0.03528  0.34543  1.0000
  H   H344      1.0  0.62757  0.42313  0.57623  1.0000
  C   C202      1.0  0.54971  0.18733  0.32558  1.0000
  H   H345      1.0  0.54856  0.31395  0.55734  1.0000
  C   C203      1.0  0.80148  0.37771  0.33301  1.0000
  H   H346      1.0  0.54411  0.34160  0.51772  1.0000
  H   H347      1.0  0.52351  0.39666  0.63569  1.0000
  C   C204      1.0  0.64309  0.30198  0.52600  1.0000
  C   C205      1.0  0.62305  0.28318  0.50607  1.0000
  C   C206      1.0  0.63142  0.29537  0.48079  1.0000
  C   C207      1.0  0.66020  0.32653  0.47505  1.0000
  C   C208      1.0  0.68000  0.34555  0.49502  1.0000
  C   C209      1.0  0.67152  0.33348  0.52029  1.0000
  H   H348      1.0  0.60108  0.25871  0.51019  1.0000
  H   H349      1.0  0.61599  0.28029  0.46575  1.0000
  H   H350      1.0  0.70249  0.36949  0.49086  1.0000
  H   H351      1.0  0.68744  0.34809  0.53530  1.0000
  H   H352      1.0  0.74462  0.25285  0.34046  1.0000
  C   C210      1.0  0.51644  0.42964  0.63373  1.0000
  C   C211      1.0  0.52315  0.46634  0.34941  1.0000
  H   H353      1.0  0.63635  0.44562  0.54508  1.0000
  S   S63       1.0  0.62700  0.20646  0.34298  1.0000
  H   H354      1.0  0.49345  0.39925  0.53552  1.0000
  H   H355      1.0  0.58268  0.18070  0.64814  1.0000
  N   N15       1.0  0.55315  0.41291  0.55014  1.0000
  H   H356      1.0  0.56029  0.46009  0.57859  1.0000
  S   S64       1.0  0.61735  0.32983  0.33400  1.0000
  Fe  Fe34      1.0  0.63232  0.28592  0.65280  1.0000
  H   H357      1.0  0.53237  0.46134  0.44647  1.0000
  S   S65       1.0  0.77668  0.35099  0.64200  1.0000
  C   C212      1.0  0.61951  0.44896  0.56321  1.0000
  H   H358      1.0  0.60486  0.38571  0.53051  1.0000
  C   C213      1.0  0.72496  0.46151  0.63384  1.0000
  C   C214      1.0  0.55634  0.37862  0.56993  1.0000
  C   C215      1.0  0.55352  0.37139  0.50845  1.0000
  H   H359      1.0  0.73549  0.43138  0.64233  1.0000
  C   C216      1.0  0.54778  0.45907  0.63208  1.0000
  H   H360      1.0  0.56166  0.05159  0.37949  1.0000
  H   H361      1.0  0.56773  0.47929  0.54729  1.0000
  S   S66       1.0  0.59961  0.44402  0.63207  1.0000
  H   H362      1.0  0.56478  0.08910  0.35444  1.0000
  C   C217      1.0  0.59075  0.17638  0.32649  1.0000
  H   H363      1.0  0.77732  0.46246  0.60715  1.0000
  H   H364      1.0  0.52084  0.03665  0.59910  1.0000
  C   C218      1.0  0.74380  0.46506  0.60708  1.0000
  H   H365      1.0  0.55765  0.10743  0.65340  1.0000
  H   H366      1.0  0.54965  0.39066  0.58906  1.0000
  H   H367      1.0  0.57493  0.36305  0.49289  1.0000
  H   H368      1.0  0.86022  0.37646  0.64282  1.0000
  C   C219      1.0  0.57327  0.45168  0.55989  1.0000
  H   H369      1.0  0.69201  0.45682  0.63168  1.0000
  H   H370      1.0  0.79038  0.36031  0.34941  1.0000
  H   H371      1.0  0.53922  0.21553  0.33463  1.0000
  H   H372      1.0  0.55563  0.46245  0.34733  1.0000
  C   C220      1.0  0.57540  0.40092  0.52620  1.0000
  H   H373      1.0  0.58321  0.42940  0.51461  1.0000
  H   H374      1.0  0.52121  0.32629  0.58573  1.0000
  C   C221      1.0  0.53061  0.33871  0.56684  1.0000
  C   C222      1.0  0.49933  0.43289  0.35858  1.0000
  C   C223      1.0  0.84363  0.38486  0.32935  1.0000
  H   H375      1.0  0.52732  0.38686  0.49951  1.0000
  H   H376      1.0  0.73310  0.43847  0.59590  1.0000
  C   C224      1.0  0.50311  0.99284  0.38170  1.0000
  H   H377      1.0  0.59325  0.04198  0.35175  1.0000
  H   H378      1.0  0.50918  0.45135  0.53094  1.0000
  C   C225      1.0  0.50989  0.42467  0.54475  1.0000
  H   H379      1.0  0.52358  0.01910  0.64328  1.0000
  C   C226      1.0  0.50268  0.00898  0.60555  1.0000
  H   H380      1.0  0.55099  0.47062  0.41481  1.0000
  H   H381      1.0  0.50210  0.34343  0.55684  1.0000
  C   C227      1.0  0.53055  0.48286  0.42990  1.0000
  H   H382      1.0  0.49372  0.46650  0.57615  1.0000
  H   H383      1.0  0.79246  0.46714  0.65649  1.0000
  H   H384      1.0  0.53541  0.03568  0.32492  1.0000
  H   H385      1.0  0.79367  0.43266  0.71929  1.0000
  H   H386      1.0  0.82942  0.34182  0.76290  1.0000
  S   S67       1.0  0.65855  0.34798  0.66485  1.0000
  S   S68       1.0  0.87579  0.46241  0.71865  1.0000
  S   S69       1.0  0.94982  0.46767  0.77182  1.0000
  H   H387      1.0  0.95760  0.27732  0.77316  1.0000
  H   H388      1.0  0.84992  0.39822  0.79011  1.0000
  N   N16       1.0  0.88762  0.32848  0.74484  1.0000
  C   C228      1.0  0.92580  0.35210  0.73739  1.0000
  H   H389      1.0  0.86547  0.34313  0.70766  1.0000
  H   H390      1.0  0.54048  0.16078  0.76457  1.0000
  C   C229      1.0  0.84971  0.42934  0.69770  1.0000
  C   C230      1.0  0.80842  0.42028  0.70265  1.0000
  C   C231      1.0  0.78591  0.39546  0.68628  1.0000
  C   C232      1.0  0.92923  0.29223  0.78023  1.0000
  H   H391      1.0  0.94175  0.36395  0.75378  1.0000
  H   H392      1.0  0.75427  0.38878  0.69042  1.0000
  C   C233      1.0  0.59391  0.18824  0.68737  1.0000
  C   C234      1.0  0.57870  0.12623  0.71413  1.0000
  C   C235      1.0  0.56542  0.10413  0.69346  1.0000
  H   H393      1.0  0.93511  0.02619  0.90883  1.0000
  H   H394      1.0  0.91991  0.27356  0.79723  1.0000
  S   S70       1.0  0.54662  0.05156  0.69618  1.0000
  H   H395      1.0  0.80200  0.32003  0.72762  1.0000
  H   H396      1.0  0.93630  0.32395  0.78673  1.0000
  Fe  Fe35      1.0  0.94185  0.47514  0.73002  1.0000
  H   H397      1.0  0.66247  0.46853  0.69852  1.0000
  C   C236      1.0  0.82546  0.29604  0.72339  1.0000
  C   C237      1.0  0.85876  0.35759  0.75832  1.0000
  H   H398      1.0  0.89991  0.41949  0.67195  1.0000
  C   C238      1.0  0.87254  0.37485  0.78348  1.0000
  H   H399      1.0  0.94849  0.04116  0.85106  1.0000
  S   S71       1.0  0.52760  0.01521  0.77142  1.0000
  H   H400      1.0  0.94773  0.32520  0.70183  1.0000
  H   H401      1.0  0.67149  0.43840  0.67131  1.0000
  H   H402      1.0  0.86721  0.27906  0.77059  1.0000
  C   C239      1.0  0.96915  0.01589  0.85549  1.0000
  H   H403      1.0  0.87356  0.34981  0.79818  1.0000
  H   H404      1.0  0.57928  0.11085  0.73236  1.0000
  H   H405      1.0  0.95509  0.08754  0.92568  1.0000
  C   C240      1.0  0.86829  0.41285  0.67615  1.0000
  H   H406      1.0  0.85145  0.38498  0.74598  1.0000
  C   C241      1.0  0.59218  0.16809  0.71115  1.0000
  H   H407      1.0  0.90187  0.39150  0.78190  1.0000
  H   H408      1.0  0.98657  0.34445  0.72123  1.0000
  H   H409      1.0  0.94782  0.07963  0.96619  1.0000
  C   C242      1.0  0.95720  0.32744  0.72160  1.0000
  H   H410      1.0  0.82400  0.27030  0.73765  1.0000
  S   S72       1.0  0.61009  0.24172  0.68513  1.0000
  C   C243      1.0  0.89554  0.28954  0.76055  1.0000
  H   H411      1.0  0.81734  0.28261  0.70509  1.0000
  H   H412      1.0  0.90453  0.26318  0.74817  1.0000
  H   H413      1.0  0.91826  0.38102  0.72640  1.0000
  H   H414      1.0  0.60210  0.18482  0.72735  1.0000
  C   C244      1.0  0.71583  0.48879  0.67681  1.0000
  C   C245      1.0  0.86807  0.31579  0.72077  1.0000
  H   H415      1.0  0.88719  0.29260  0.71058  1.0000
  C   C246      1.0  0.52257  0.13469  0.77324  1.0000
  H   H416      1.0  0.50714  0.10661  0.73858  1.0000
  Fe  Fe36      1.0  0.52411  0.00938  0.72940  1.0000
  C   C247      1.0  0.56728  0.12417  0.66964  1.0000
  H   H417      1.0  0.73465  0.46575  0.68730  1.0000
  H   H418      1.0  0.54446  0.10917  0.77738  1.0000
  H   H419      1.0  0.95800  0.03000  0.98170  1.0000
  H   H420      1.0  0.92897  0.02009  0.94263  1.0000
  C   C248      1.0  0.97056  0.06139  0.97666  1.0000
  H   H421      1.0  0.49791  0.17249  0.71843  1.0000
  C   C249      1.0  0.58156  0.16581  0.66657  1.0000
  C   C250      1.0  0.80418  0.37991  0.66437  1.0000
  C   C251      1.0  0.67251  0.47072  0.67847  1.0000
  H   H422      1.0  0.50920  0.14421  0.79155  1.0000
  H   H423      1.0  0.49684  0.20226  0.74548  1.0000
  C   C252      1.0  0.94545  0.00884  0.92578  1.0000
  C   C253      1.0  0.98821  0.08870  0.92185  1.0000
  C   C254      1.0  0.84563  0.38841  0.65963  1.0000
  H   H424      1.0  0.96290  0.29569  0.72947  1.0000
  H   H425      1.0  0.65002  0.49036  0.66877  1.0000
  H   H426      1.0  0.98450  0.15647  0.91773  1.0000
  H   H427      1.0  0.99135  0.08654  0.90104  1.0000
  Fe  Fe37      1.0  0.84366  0.85064  0.09489  1.0000
  S   S73       1.0  0.81853  0.89688  0.12268  1.0000
  S   S74       1.0  0.84318  0.87559  0.05412  1.0000
  Fe  Fe38      1.0  0.87021  0.79028  0.13777  1.0000
  S   S75       1.0  0.84747  0.83326  0.16814  1.0000
  S   S76       1.0  0.89860  0.72455  0.14136  1.0000
  Fe  Fe39      1.0  0.79213  0.84242  0.14454  1.0000
  S   S77       1.0  0.72650  0.83484  0.15966  1.0000
  Fe  Fe40      1.0  0.87560  0.88520  0.14392  1.0000
  S   S78       1.0  0.90407  0.94512  0.15790  1.0000
  S   S79       1.0  0.81326  0.79630  0.11524  1.0000
  S   S80       1.0  0.90225  0.84189  0.11520  1.0000
  Fe  Fe41      1.0  0.53800  0.96823  0.22843  1.0000
  H   H428      1.0  0.70658  0.70735  0.13962  1.0000
  H   H429      1.0  0.93826  0.91540  0.01856  1.0000
  H   H430      1.0  0.70925  0.80247  0.05556  1.0000
  H   H431      1.0  0.76031  0.82269  0.05989  1.0000
  N   N17       1.0  0.77418  0.69112  0.17403  1.0000
  C   C255      1.0  0.95391  0.96298  0.15045  1.0000
  C   C256      1.0  0.51287  0.66070  0.28861  1.0000
  S   S81       1.0  0.59765  0.96682  0.20471  1.0000
  C   C257      1.0  0.82162  0.79404  0.99734  1.0000
  C   C258      1.0  0.69222  0.87188  0.17347  1.0000
  C   C259      1.0  0.70009  0.91497  0.17314  1.0000
  C   C260      1.0  0.67093  0.94324  0.18290  1.0000
  C   C261      1.0  0.63368  0.92904  0.19349  1.0000
  C   C262      1.0  0.62602  0.88587  0.19406  1.0000
  C   C263      1.0  0.65495  0.85762  0.18397  1.0000
  H   H432      1.0  0.72844  0.92666  0.16515  1.0000
  H   H433      1.0  0.82163  0.72333  0.21641  1.0000
  H   H434      1.0  0.59754  0.87434  0.20195  1.0000
  H   H435      1.0  0.64825  0.82446  0.18423  1.0000
  C   C264      1.0  0.91086  0.68898  0.16634  1.0000
  C   C265      1.0  0.92691  0.64936  0.16042  1.0000
  C   C266      1.0  0.93425  0.61880  0.17933  1.0000
  C   C267      1.0  0.92515  0.62728  0.20451  1.0000
  C   C268      1.0  0.90953  0.66710  0.21047  1.0000
  C   C269      1.0  0.90286  0.69790  0.19160  1.0000
  H   H436      1.0  0.93317  0.64198  0.14096  1.0000
  C   C270      1.0  0.94933  0.94755  0.01438  1.0000
  H   H437      1.0  0.74232  0.75053  0.13761  1.0000
  H   H438      1.0  0.89097  0.72830  0.19653  1.0000
  C   C271      1.0  0.91933  0.96406  0.06404  1.0000
  C   C272      1.0  0.83816  0.85227  0.02417  1.0000
  C   C273      1.0  0.82705  0.81034  0.02150  1.0000
  H   H439      1.0  0.86748  0.96433  0.08994  1.0000
  H   H440      1.0  0.82236  0.79047  0.03798  1.0000
  H   H441      1.0  0.76107  0.65622  0.14062  1.0000
  H   H442      1.0  0.76431  0.60345  0.18828  1.0000
  H   H443      1.0  0.74012  0.71376  0.11316  1.0000
  H   H444      1.0  0.90256  0.67418  0.22988  1.0000
  H   H445      1.0  0.81708  0.59188  0.18633  1.0000
  H   H446      1.0  0.75526  0.88941  0.05118  1.0000
  C   C274      1.0  0.70346  0.71874  0.18960  1.0000
  C   C275      1.0  0.76974  0.68833  0.14599  1.0000
  H   H447      1.0  0.74055  0.67215  0.20766  1.0000
  H   H448      1.0  0.97625  0.87537  0.04215  1.0000
  Fe  Fe42      1.0  0.96263  0.52549  0.23704  1.0000
  H   H449      1.0  0.71197  0.85782  0.02893  1.0000
  H   H450      1.0  0.62531  0.89218  0.10212  1.0000
  H   H451      1.0  0.69820  0.72771  0.20946  1.0000
  H   H452      1.0  0.67370  0.70813  0.18279  1.0000
  N   N18       1.0  0.96486  0.96025  0.06155  1.0000
  H   H453      1.0  0.93116  0.87683  0.06241  1.0000
  H   H454      1.0  0.85279  0.90987  0.00411  1.0000
  H   H455      1.0  0.81209  0.66071  0.20185  1.0000
  C   C276      1.0  0.79219  0.73318  0.17988  1.0000
  H   H456      1.0  0.79943  0.69490  0.13615  1.0000
  C   C277      1.0  0.79717  0.74233  0.20799  1.0000
  H   H457      1.0  0.97619  0.85201  0.07277  1.0000
  N   N19       1.0  0.70414  0.88619  0.07801  1.0000
  C   C278      1.0  0.68981  0.91193  0.10006  1.0000
  C   C279      1.0  0.74212  0.90666  0.06723  1.0000
  C   C280      1.0  0.71447  0.84316  0.08822  1.0000
  C   C281      1.0  0.67062  0.88412  0.05929  1.0000
  H   H458      1.0  0.97239  0.91824  0.09342  1.0000
  C   C282      1.0  0.73199  0.81155  0.06940  1.0000
  C   C283      1.0  0.68308  0.87480  0.03170  1.0000
  H   H459      1.0  0.65710  0.86624  0.12502  1.0000
  H   H460      1.0  0.50375  0.74220  0.29982  1.0000
  S   S82       1.0  0.97882  0.51813  0.27794  1.0000
  H   H461      1.0  0.76640  0.90592  0.08130  1.0000
  H   H462      1.0  0.73660  0.84571  0.10358  1.0000
  H   H463      1.0  0.68729  0.82753  0.09682  1.0000
  H   H464      1.0  0.64762  0.86031  0.06552  1.0000
  H   H465      1.0  0.76484  0.96149  0.04654  1.0000
  H   H466      1.0  0.71432  0.91482  0.11400  1.0000
  H   H467      1.0  0.54523  0.60152  0.29267  1.0000
  H   H468      1.0  0.90388  0.93875  0.05409  1.0000
  C   C284      1.0  0.73767  0.95262  0.05822  1.0000
  H   H469      1.0  0.67731  0.97649  0.18230  1.0000
  H   H470      1.0  0.79164  0.60363  0.15815  1.0000
  C   C285      1.0  0.80482  0.65831  0.18168  1.0000
  H   H471      1.0  0.65931  0.85510  0.02342  1.0000
  C   C286      1.0  0.84439  0.87736  0.00236  1.0000
  H   H472      1.0  0.68383  0.90415  0.02013  1.0000
  C   C287      1.0  0.73461  0.68239  0.18795  1.0000
  C   C288      1.0  0.98432  0.93567  0.14218  1.0000
  C   C289      1.0  0.79299  0.61201  0.17819  1.0000
  H   H473      1.0  0.76872  0.73793  0.21916  1.0000
  H   H474      1.0  0.98576  0.65771  0.23847  1.0000
  H   H475      1.0  0.96540  0.94698  0.99582  1.0000
  H   H476      1.0  0.99090  0.73453  0.22674  1.0000
  H   H477      1.0  0.77472  0.75955  0.17187  1.0000
  H   H478      1.0  0.83389  0.66322  0.17103  1.0000
  S   S83       1.0  0.93262  0.58981  0.22933  1.0000
  H   H479      1.0  0.51855  0.65900  0.26796  1.0000
  H   H480      1.0  0.71150  0.74741  0.17871  1.0000
  H   H481      1.0  0.94621  0.58842  0.17436  1.0000
  C   C290      1.0  0.65150  0.89588  0.11450  1.0000
  H   H482      1.0  0.74002  0.78234  0.07981  1.0000
  H   H483      1.0  0.71895  0.65543  0.17945  1.0000
  H   H484      1.0  0.68233  0.94448  0.09396  1.0000
  H   H485      1.0  0.90841  0.93390  0.10132  1.0000
  C   C291      1.0  0.73777  0.71696  0.13387  1.0000
  H   H486      1.0  0.82266  0.73667  0.17058  1.0000
  H   H487      1.0  0.80616  0.77564  0.20984  1.0000
  H   H488      1.0  0.65416  0.91463  0.05860  1.0000
  H   H489      1.0  0.71068  0.95765  0.04661  1.0000
  H   H490      1.0  0.92262  0.96841  0.01230  1.0000
  S   S84       1.0  0.54121  0.97316  0.27059  1.0000
  H   H491      1.0  0.51531  0.61395  0.31981  1.0000
  C   C292      1.0  0.90104  0.96319  0.09097  1.0000
  H   H492      1.0  0.97767  0.90270  0.14042  1.0000
  H   H493      1.0  0.53926  0.67846  0.29545  1.0000
  H   H494      1.0  0.73665  0.97416  0.07433  1.0000
  H   H495      1.0  0.51792  0.72738  0.25429  1.0000
  C   C293      1.0  0.51588  0.61532  0.29898  1.0000
  H   H496      1.0  0.64248  0.91922  0.12883  1.0000
  H   H497      1.0  0.91007  0.99070  0.10191  1.0000
  C   C294      1.0  0.98002  0.91981  0.07305  1.0000
  C   C295      1.0  0.96463  0.87911  0.06165  1.0000
  H   H498      1.0  0.81260  0.76169  0.99552  1.0000
  C   C296      1.0  0.97831  0.96447  0.03423  1.0000
  H   H499      1.0  0.49242  0.97620  0.31792  1.0000
  H   H500      1.0  0.49189  0.77572  0.25925  1.0000
  H   H501      1.0  0.56686  0.91529  0.64651  1.0000
  C   C297      1.0  0.53794  0.50186  0.62973  1.0000
  C   C298      1.0  0.49718  0.51515  0.62895  1.0000
  C   C299      1.0  0.55150  0.96349  0.34991  1.0000
  H   H502      1.0  0.56194  0.52490  0.62845  1.0000
  C   C300      1.0  0.67547  0.54341  0.63354  1.0000
  H   H503      1.0  0.52346  0.53047  0.33571  1.0000
  H   H504      1.0  0.52334  0.68653  0.33519  1.0000
  H   H505      1.0  0.55099  0.98141  0.62618  1.0000
  C   C301      1.0  0.54645  0.91720  0.35801  1.0000
  C   C302      1.0  0.50480  0.50490  0.34291  1.0000
  H   H506      1.0  0.50247  0.56489  0.44060  1.0000
  H   H507      1.0  0.66168  0.51456  0.62653  1.0000
  C   C303      1.0  0.72043  0.53899  0.64049  1.0000
  H   H508      1.0  0.72589  0.56406  0.65419  1.0000
  H   H509      1.0  0.49720  0.86653  0.65219  1.0000
  H   H510      1.0  0.57411  0.89978  0.35205  1.0000
  N   N20       1.0  0.73419  0.49721  0.65093  1.0000
  H   H511      1.0  0.52257  0.91397  0.61706  1.0000
  N   N21       1.0  0.51538  0.99171  0.35421  1.0000
  H   H512      1.0  0.50869  0.51048  0.47476  1.0000
  H   H513      1.0  0.50213  0.60746  0.40339  1.0000
  H   H514      1.0  0.57815  0.97459  0.36024  1.0000
  H   H515      1.0  0.67292  0.56651  0.61778  1.0000
  H   H516      1.0  0.54333  0.51370  0.43432  1.0000
  H   H517      1.0  0.79461  0.51039  0.63533  1.0000
  H   H518      1.0  0.56089  0.96418  0.32963  1.0000
  H   H519      1.0  0.73923  0.54906  0.62380  1.0000
  H   H520      1.0  0.51043  0.55512  0.39321  1.0000
  H   H521      1.0  0.50550  0.98528  0.59065  1.0000
  H   H522      1.0  0.52076  0.90180  0.34898  1.0000
  H   H523      1.0  0.54377  0.91362  0.37873  1.0000
  H   H524      1.0  0.53045  0.99206  0.39354  1.0000
  C   C304      1.0  0.51956  0.99220  0.63054  1.0000
  H   H525      1.0  0.65693  0.55484  0.64969  1.0000
  C   C305      1.0  0.77979  0.49900  0.65318  1.0000
  C   C306      1.0  0.49266  0.92099  0.62610  1.0000
  N   N22       1.0  0.49510  0.95777  0.64336  1.0000
  H   H526      1.0  0.73447  0.49420  0.59717  1.0000
  Fe  Fe43      1.0  0.80705  0.86864  0.85816  1.0000
  S   S85       1.0  0.79709  0.80247  0.87239  1.0000
  S   S86       1.0  0.76282  0.91170  0.83669  1.0000
  Fe  Fe44      1.0  0.89764  0.86588  0.87177  1.0000
  S   S87       1.0  0.89288  0.79927  0.88658  1.0000
  S   S88       1.0  0.96257  0.89070  0.87237  1.0000
  Fe  Fe45      1.0  0.85635  0.78612  0.85259  1.0000
  S   S89       1.0  0.86141  0.73437  0.82292  1.0000
  Fe  Fe46      1.0  0.83488  0.82095  0.90550  1.0000
  S   S90       1.0  0.81910  0.79698  0.94555  1.0000
  S   S91       1.0  0.86442  0.85157  0.83667  1.0000
  S   S92       1.0  0.84150  0.88830  0.89245  1.0000
  Fe  Fe47      1.0  0.98522  0.52812  0.76904  1.0000
  H   H527      1.0  0.64824  0.96351  0.78681  1.0000
  S   S93       1.0  0.98031  0.57893  0.79931  1.0000
  Fe  Fe48      1.0  0.53697  0.94501  0.77254  1.0000
  S   S94       1.0  0.57961  0.90561  0.79757  1.0000
  S   S95       1.0  0.53765  0.93974  0.73027  1.0000
  C   C307      1.0  0.82788  0.81907  0.97549  1.0000
  C   C308      1.0  0.83961  0.86086  0.97818  1.0000
  H   H528      1.0  0.92436  0.80950  0.75523  1.0000
  H   H529      1.0  0.84431  0.88059  0.96162  1.0000
  C   C309      1.0  0.95380  0.97518  0.86008  1.0000
  H   H530      1.0  0.71867  0.96451  0.80246  1.0000
  H   H531      1.0  0.94666  0.81356  0.84245  1.0000
  C   C310      1.0  0.94706  0.80667  0.79318  1.0000
  C   C311      1.0  0.89438  0.69070  0.81712  1.0000
  C   C312      1.0  0.92310  0.67679  0.83430  1.0000
  C   C313      1.0  0.94878  0.64254  0.82855  1.0000
  C   C314      1.0  0.94604  0.62128  0.80570  1.0000
  C   C315      1.0  0.91712  0.63505  0.78859  1.0000
  C   C316      1.0  0.89163  0.66947  0.79426  1.0000
  H   H532      1.0  0.92540  0.69212  0.85213  1.0000
  H   H533      1.0  0.95287  0.76063  0.83477  1.0000
  H   H534      1.0  0.91454  0.61924  0.77093  1.0000
  H   H535      1.0  0.86964  0.67964  0.78075  1.0000
  C   C317      1.0  0.71148  0.90970  0.82645  1.0000
  C   C318      1.0  0.68403  0.87878  0.83492  1.0000
  C   C319      1.0  0.64398  0.87831  0.82597  1.0000
  C   C320      1.0  0.63048  0.90876  0.80853  1.0000
  C   C321      1.0  0.65789  0.93979  0.80016  1.0000
  C   C322      1.0  0.69796  0.94023  0.80909  1.0000
  H   H536      1.0  0.69350  0.85547  0.84855  1.0000
  H   H537      1.0  0.62313  0.85429  0.83277  1.0000
  H   H538      1.0  0.98688  0.88160  0.77702  1.0000
  C   C323      1.0  0.95322  0.80162  0.76453  1.0000
  N   N23       1.0  0.74203  0.77865  0.79150  1.0000
  C   C324      1.0  0.73862  0.74250  0.81025  1.0000
  C   C325      1.0  0.75713  0.76080  0.76698  1.0000
  C   C326      1.0  0.70005  0.79638  0.78811  1.0000
  C   C327      1.0  0.77027  0.81099  0.80173  1.0000
  C   C328      1.0  0.71689  0.75189  0.83553  1.0000
  C   C329      1.0  0.79882  0.73897  0.76775  1.0000
  C   C330      1.0  0.69611  0.83416  0.76993  1.0000
  C   C331      1.0  0.79101  0.84183  0.78258  1.0000
  H   H539      1.0  0.72245  0.71550  0.80210  1.0000
  H   H540      1.0  0.76921  0.73042  0.81511  1.0000
  H   H541      1.0  0.75908  0.78478  0.75174  1.0000
  H   H542      1.0  0.73509  0.73743  0.76015  1.0000
  H   H543      1.0  0.67907  0.77153  0.78185  1.0000
  H   H544      1.0  0.68703  0.80750  0.80619  1.0000
  H   H545      1.0  0.75418  0.82989  0.81616  1.0000
  H   H546      1.0  0.79543  0.79532  0.81183  1.0000
  H   H547      1.0  0.72658  0.78197  0.84341  1.0000
  H   H548      1.0  0.68346  0.75209  0.83362  1.0000
  H   H549      1.0  0.72404  0.72674  0.84946  1.0000
  H   H550      1.0  0.82238  0.75918  0.77564  1.0000
  H   H551      1.0  0.79728  0.70896  0.77862  1.0000
  H   H552      1.0  0.80892  0.73120  0.74836  1.0000
  H   H553      1.0  0.66351  0.84269  0.76878  1.0000
  H   H554      1.0  0.70684  0.82742  0.75058  1.0000
  H   H555      1.0  0.71140  0.86223  0.77715  1.0000
  H   H556      1.0  0.79145  0.87357  0.79074  1.0000
  H   H557      1.0  0.77628  0.84545  0.76433  1.0000
  H   H558      1.0  0.82338  0.83335  0.77953  1.0000
  H   H559      1.0  0.92158  0.96931  0.85920  1.0000
  H   H560      1.0  0.51674  0.97286  0.67996  1.0000
  S   S96       1.0  0.97486  0.53759  0.72759  1.0000
  C   C332      1.0  0.98018  0.94231  0.86586  1.0000
  C   C333      1.0  0.51542  0.94564  0.66742  1.0000
  H   H561      1.0  0.71564  0.51780  0.68809  1.0000
  H   H562      1.0  0.93036  0.83653  0.79640  1.0000
  H   H563      1.0  0.97692  0.82211  0.75600  1.0000
  H   H564      1.0  0.92481  0.78181  0.79884  1.0000
  H   H565      1.0  0.56441  0.90412  0.67913  1.0000
  H   H566      1.0  0.97082  0.63219  0.84203  1.0000
  C   C334      1.0  0.96952  0.79087  0.83520  1.0000
  H   H567      1.0  0.98137  0.86849  0.82205  1.0000
  H   H568      1.0  0.49720  0.92247  0.67874  1.0000
  C   C335      1.0  0.55944  0.92930  0.66484  1.0000
  H   H569      1.0  0.96035  0.76871  0.75979  1.0000
  N   N24       1.0  0.98428  0.80447  0.80924  1.0000
  H   H570      1.0  0.78623  0.55995  0.67196  1.0000
  C   C336      1.0  0.79610  0.52692  0.67403  1.0000
  H   H571      1.0  0.58129  0.95509  0.66793  1.0000
  H   H572      1.0  0.78774  0.51463  0.69309  1.0000
  H   H573      1.0  0.93660  0.97560  0.92326  1.0000
  H   H574      1.0  0.82979  0.52670  0.67285  1.0000
  H   H575      1.0  0.97297  0.72273  0.79218  1.0000
  H   H576      1.0  0.98713  0.77418  0.87307  1.0000
