data_image0
_chemical_formula_structural       CH2FeSHFeCSFeS2FeHFeHS2H2NH5SHCHSCHCHC6H4SH3NC2HCHCH5CH3C2HCH2SH3FeCHCH4C4H2CH2CH2CHC2H5NC2H2CHCHCH2CSH6CHCHC3H3CS2H2CHCHS2FeS2FeS2FeHFeS3H3NC2H2C4H6C6H4C3NH3NC7H11C3H2CH3CH3SH4CFeH2CNC2H5CH6CH8SCH3C2H3C2H4FeC2HCH2C2H3CH2CHS2FeSFeHSHC5FeC2HCFeS2FeS2FeSFeHS2HSFeS2FeCSHCH3CHC3H4C2FeHSC3H2CHC4H4SHS2HC2SCNC8H20NC7H12CSH4C3H3C2H3CSH2CHNSC3H2SHCH3FeCH2CH2FeS2HCFeSCFeS2FeCFeS3HCHC2HC2H3CHC7H4C2HCH10CH5CH4CHCHNH3C2HC2HNH8CH2SH4CHNHCHCH2CH4CHSCH3NH2FeC5HCH2CH3SCH2CH4CHC3H2CH3CFeS2FeHSHC2H2C2H3NHSHFeS2FeS2C6H5C2H4CH6CHCH2C2HFeCH3CH2CHC2HCH4SC2HSH3CH2C2H2C2H6NH4SC2HCH2C2H2CH2FeCH4CH11NC4H3CH2CH9CH4CH4CHCNC5H13CH2C2HCHFeCHCHSFeS2FeS2FeSFeS3HCSH5C2H2CH2C6H4CHC6H2FeNC8H10CH11NH2SH2CH3CHCH5CH2CHCH3NC7H4SH2CHCH6CFeH5FeS2FeS2FeS2FeSFeS3HNH3C6H4C5H2CHC2H2NHC2HCH3CH2FeCHC2HCH5SH5CHCH5C2HCHCH8C2H6CHC3H2CH4SHCHCNHSCHCH2C3H2CHCFeSH5CHNH3CH3CHCH2CHCH4CH2NH2C3H7CHCHCHCH2C2H8CH2SCHCH7CSH2NHFeS2FeS2FeSFeS3CHC4H2C7H4C2H2C2H6SHCH2CH2SH5CH10CH2C3N2HSC3HC2H2CH3CHC2HCH3C2HCH9CFeH2FeHCH2CHFeS2FeSHFeSFeS3HNHSC3H7FeC6H5C3H2C3H2FeH8CHCHCHSHCSCHCH2CHCH7CH3CH2SH3CHNHC3HC3H2SH2C3H2CSHC2H3C2H3CNCH2CHC2H2FeSCFeSHFeSFeS5HCSHFeSHFeS2FeSFeS3C3SC2FeH3SC4H2C2HC2HC4H6CH6C7NC7H11SCH3NC8H21CH2SHCHCFeH2C3HSHFeCHC2HNH2CH3CHSCHC2NC2HCH3CH2
_chemical_formula_sum              "C504 H864 Fe72 S144 N36"
_cell_length_a       35.4798
_cell_length_b       35.5336
_cell_length_c       70.1746
_cell_angle_alpha    89.9882
_cell_angle_beta     90.0073
_cell_angle_gamma    119.857

_space_group_name_H-M_alt    "P 1"
_space_group_IT_number       1

loop_
  _space_group_symop_operation_xyz
  'x, y, z'

loop_
  _atom_site_type_symbol
  _atom_site_label
  _atom_site_symmetry_multiplicity
  _atom_site_fract_x
  _atom_site_fract_y
  _atom_site_fract_z
  _atom_site_occupancy
  C   C1        1.0  0.17905  0.40612  0.99703  1.0000
  H   H1        1.0  0.12775  0.31911  0.08075  1.0000
  H   H2        1.0  0.32210  0.10103  0.17836  1.0000
  Fe  Fe1       1.0  0.03721  0.07251  0.14479  1.0000
  S   S1        1.0  0.09825  0.13819  0.13849  1.0000
  H   H3        1.0  0.16400  0.45306  0.07304  1.0000
  Fe  Fe2       1.0  0.26025  0.41854  0.03914  1.0000
  C   C2        1.0  0.40638  0.03661  0.18501  1.0000
  S   S2        1.0  0.26413  0.43111  0.00707  1.0000
  Fe  Fe3       1.0  0.22850  0.34554  0.06911  1.0000
  S   S3        1.0  0.27125  0.39121  0.09195  1.0000
  S   S4        1.0  0.17646  0.27359  0.06954  1.0000
  Fe  Fe4       1.0  0.24786  0.43563  0.08069  1.0000
  H   H4        1.0  0.41349  0.99298  0.24757  1.0000
  Fe  Fe5       1.0  0.32490  0.42276  0.06982  1.0000
  H   H5        1.0  0.47967  0.13132  0.22140  1.0000
  S   S5        1.0  0.20274  0.38856  0.05887  1.0000
  S   S6        1.0  0.28326  0.37255  0.04785  1.0000
  H   H6        1.0  0.10161  0.38834  0.15308  1.0000
  H   H7        1.0  0.23689  0.33773  0.00909  1.0000
  N   N1        1.0  0.38547  0.05756  0.19635  1.0000
  H   H8        1.0  0.16368  0.32153  0.10687  1.0000
  H   H9        1.0  0.10221  0.32184  0.15157  1.0000
  H   H10       1.0  0.19400  0.23824  0.00939  1.0000
  H   H11       1.0  0.43094  0.06036  0.17490  1.0000
  H   H12       1.0  0.26290  0.30619  0.00961  1.0000
  S   S7        1.0  0.02682  0.00577  0.13839  1.0000
  H   H13       1.0  0.14310  0.18020  0.02495  1.0000
  C   C3        1.0  0.18158  0.33623  0.13600  1.0000
  H   H14       1.0  0.08260  0.27877  0.02963  1.0000
  S   S8        1.0  0.22569  0.46584  0.10359  1.0000
  C   C4        1.0  0.21241  0.99121  0.27127  1.0000
  H   H15       1.0  0.12205  0.23028  0.03835  1.0000
  C   C5        1.0  0.45511  0.09791  0.21698  1.0000
  H   H16       1.0  0.10561  0.36274  0.10141  1.0000
  C   C6        1.0  0.11933  0.17476  0.11890  1.0000
  C   C7        1.0  0.09803  0.16646  0.10131  1.0000
  C   C8        1.0  0.11619  0.19690  0.08633  1.0000
  C   C9        1.0  0.15549  0.23618  0.08881  1.0000
  C   C10       1.0  0.17667  0.24456  0.10639  1.0000
  C   C11       1.0  0.15871  0.21399  0.12130  1.0000
  H   H17       1.0  0.06776  0.13646  0.09925  1.0000
  H   H18       1.0  0.09953  0.18993  0.07279  1.0000
  H   H19       1.0  0.20719  0.27429  0.10843  1.0000
  H   H20       1.0  0.17554  0.22067  0.13481  1.0000
  S   S9        1.0  0.39586  0.43628  0.07239  1.0000
  H   H21       1.0  0.05659  0.31477  0.13877  1.0000
  H   H22       1.0  0.35849  0.00347  0.16172  1.0000
  H   H23       1.0  0.17240  0.40506  0.01212  1.0000
  N   N2        1.0  0.10638  0.31531  0.12081  1.0000
  C   C12       1.0  0.08894  0.32690  0.10346  1.0000
  C   C13       1.0  0.08579  0.26647  0.12146  1.0000
  H   H24       1.0  0.08058  0.31988  0.07271  1.0000
  C   C14       1.0  0.08558  0.24567  0.14080  1.0000
  H   H25       1.0  0.05379  0.31617  0.10530  1.0000
  C   C15       1.0  0.42152  0.10030  0.20377  1.0000
  H   H26       1.0  0.05101  0.25069  0.11706  1.0000
  H   H27       1.0  0.21069  0.00970  0.28362  1.0000
  H   H28       1.0  0.10161  0.25518  0.11105  1.0000
  H   H29       1.0  0.09180  0.29534  0.00480  1.0000
  H   H30       1.0  0.32185  0.01887  0.23780  1.0000
  C   C16       1.0  0.34886  0.10351  0.18749  1.0000
  H   H31       1.0  0.16947  0.37117  0.11388  1.0000
  H   H32       1.0  0.07272  0.21036  0.13864  1.0000
  H   H33       1.0  0.06339  0.24831  0.15116  1.0000
  C   C17       1.0  0.17683  0.46793  0.10287  1.0000
  C   C18       1.0  0.15512  0.33682  0.11867  1.0000
  H   H34       1.0  0.09562  0.39105  0.12804  1.0000
  C   C19       1.0  0.09274  0.33096  0.13805  1.0000
  H   H35       1.0  0.16832  0.33819  0.14994  1.0000
  H   H36       1.0  0.37835  0.13477  0.18392  1.0000
  S   S10       1.0  0.02838  0.05894  0.17639  1.0000
  H   H37       1.0  0.21446  0.36551  0.13544  1.0000
  H   H38       1.0  0.23123  0.30223  0.98927  1.0000
  H   H39       1.0  0.14641  0.39887  0.13800  1.0000
  Fe  Fe6       1.0  0.01351  0.99116  0.16959  1.0000
  C   C20       1.0  0.23279  0.30587  0.00498  1.0000
  H   H40       1.0  0.08546  0.15434  0.02535  1.0000
  C   C21       1.0  0.11048  0.38022  0.13910  1.0000
  H   H41       1.0  0.20097  0.26952  0.03025  1.0000
  H   H42       1.0  0.43985  0.12195  0.19162  1.0000
  H   H43       1.0  0.16015  0.30687  0.03516  1.0000
  H   H44       1.0  0.42442  0.02599  0.19450  1.0000
  C   C22       1.0  0.19360  0.26749  0.01471  1.0000
  C   C23       1.0  0.11493  0.18108  0.01853  1.0000
  C   C24       1.0  0.15300  0.46076  0.08608  1.0000
  C   C25       1.0  0.22117  0.41887  0.99084  1.0000
  H   H45       1.0  0.44002  0.07967  0.23025  1.0000
  H   H46       1.0  0.18186  0.03431  0.20863  1.0000
  C   C26       1.0  0.10619  0.30227  0.01927  1.0000
  H   H47       1.0  0.08316  0.21859  0.02013  1.0000
  H   H48       1.0  0.31029  0.04503  0.21901  1.0000
  C   C27       1.0  0.33706  0.04301  0.22616  1.0000
  H   H49       1.0  0.44530  0.46497  0.01014  1.0000
  H   H50       1.0  0.07443  0.27210  0.08399  1.0000
  C   C28       1.0  0.09342  0.30807  0.08429  1.0000
  H   H51       1.0  0.18560  0.30720  0.13570  1.0000
  C   C29       1.0  0.37539  0.99615  0.17317  1.0000
  C   C30       1.0  0.44077  0.99803  0.23887  1.0000
  H   H52       1.0  0.38347  0.39709  0.01628  1.0000
  H   H53       1.0  0.11831  0.25885  0.14704  1.0000
  H   H54       1.0  0.38097  0.01894  0.22099  1.0000
  H   H55       1.0  0.09785  0.46043  0.07283  1.0000
  H   H56       1.0  0.47336  0.08410  0.20980  1.0000
  N   N3        1.0  0.14968  0.26357  0.01160  1.0000
  C   C31       1.0  0.11663  0.22455  0.02273  1.0000
  C   C32       1.0  0.14991  0.30279  0.01996  1.0000
  H   H57       1.0  0.37895  0.43245  0.03298  1.0000
  H   H58       1.0  0.36894  0.07110  0.16829  1.0000
  C   C33       1.0  0.35593  0.06482  0.18312  1.0000
  H   H59       1.0  0.33974  0.10475  0.20242  1.0000
  C   C34       1.0  0.35989  0.02720  0.21235  1.0000
  H   H60       1.0  0.32328  0.03502  0.18223  1.0000
  C   C35       1.0  0.37843  0.42542  0.01762  1.0000
  H   H61       1.0  0.17435  0.33331  0.01320  1.0000
  H   H62       1.0  0.11317  0.02381  0.19421  1.0000
  C   C36       1.0  0.41436  0.46424  0.00656  1.0000
  S   S11       1.0  0.30422  0.47019  0.06011  1.0000
  H   H63       1.0  0.33399  0.99580  0.20670  1.0000
  H   H64       1.0  0.11159  0.33471  0.02350  1.0000
  H   H65       1.0  0.11290  0.17392  0.00308  1.0000
  H   H66       1.0  0.35993  0.07426  0.23301  1.0000
  H   H67       1.0  0.40862  0.11816  0.21194  1.0000
  H   H68       1.0  0.24699  0.99992  0.26969  1.0000
  C   C37       1.0  0.11745  0.99612  0.19675  1.0000
  H   H69       1.0  0.34573  0.41539  0.01169  1.0000
  C   C38       1.0  0.15640  0.00196  0.20494  1.0000
  H   H70       1.0  0.20358  0.00227  0.25813  1.0000
  C   C39       1.0  0.11553  0.46500  0.08600  1.0000
  C   C40       1.0  0.10105  0.47560  0.10274  1.0000
  C   C41       1.0  0.16217  0.47818  0.11963  1.0000
  H   H71       1.0  0.11285  0.38453  0.98857  1.0000
  H   H72       1.0  0.10105  0.24002  0.98934  1.0000
  H   H73       1.0  0.40838  0.45558  0.99114  1.0000
  C   C42       1.0  0.13710  0.25663  0.99078  1.0000
  S   S12       1.0  0.05509  0.48281  0.10169  1.0000
  S   S13       1.0  0.03458  0.48189  0.15732  1.0000
  H   H74       1.0  0.47810  0.43880  0.06872  1.0000
  H   H75       1.0  0.35089  0.48060  0.01864  1.0000
  C   C43       1.0  0.45096  0.48053  0.07329  1.0000
  H   H76       1.0  0.18027  0.48350  0.13272  1.0000
  C   C44       1.0  0.12416  0.48142  0.11965  1.0000
  H   H77       1.0  0.42095  0.19230  0.57793  1.0000
  S   S14       1.0  0.03053  0.04651  0.46675  1.0000
  S   S15       1.0  0.06761  0.06488  0.52168  1.0000
  Fe  Fe7       1.0  0.36226  0.26146  0.58300  1.0000
  S   S16       1.0  0.42951  0.30565  0.57167  1.0000
  S   S17       1.0  0.35844  0.26075  0.61552  1.0000
  Fe  Fe8       1.0  0.32181  0.24245  0.54301  1.0000
  S   S18       1.0  0.38721  0.28555  0.52940  1.0000
  S   S19       1.0  0.26675  0.21455  0.52094  1.0000
  Fe  Fe9       1.0  0.41195  0.25351  0.54949  1.0000
  H   H78       1.0  0.09546  0.16849  0.42688  1.0000
  Fe  Fe10      1.0  0.39923  0.33422  0.55267  1.0000
  S   S20       1.0  0.42254  0.40604  0.54514  1.0000
  S   S21       1.0  0.34630  0.20756  0.56194  1.0000
  S   S22       1.0  0.33227  0.29275  0.56515  1.0000
  H   H79       1.0  0.38377  0.26397  0.65460  1.0000
  H   H80       1.0  0.45090  0.37169  0.60385  1.0000
  H   H81       1.0  0.34763  0.41677  0.63285  1.0000
  N   N4        1.0  0.37079  0.40227  0.60687  1.0000
  C   C45       1.0  0.39768  0.44921  0.60110  1.0000
  C   C46       1.0  0.32636  0.38118  0.59773  1.0000
  H   H82       1.0  0.37210  0.34279  0.60135  1.0000
  H   H83       1.0  0.32435  0.01640  0.48200  1.0000
  C   C47       1.0  0.45359  0.18759  0.52998  1.0000
  C   C48       1.0  0.41191  0.15684  0.52386  1.0000
  C   C49       1.0  0.40533  0.11950  0.51397  1.0000
  C   C50       1.0  0.44024  0.11244  0.51004  1.0000
  H   H84       1.0  0.09239  0.01204  0.45104  1.0000
  H   H85       1.0  0.12778  0.03328  0.51280  1.0000
  H   H86       1.0  0.38478  0.16185  0.52675  1.0000
  H   H87       1.0  0.37298  0.09599  0.50928  1.0000
  H   H88       1.0  0.37023  0.04945  0.45799  1.0000
  H   H89       1.0  0.31000  0.34517  0.59907  1.0000
  C   C51       1.0  0.12270  0.10722  0.52123  1.0000
  C   C52       1.0  0.14784  0.11625  0.53789  1.0000
  C   C53       1.0  0.19198  0.14892  0.53813  1.0000
  C   C54       1.0  0.21144  0.17294  0.52166  1.0000
  C   C55       1.0  0.18631  0.16375  0.50497  1.0000
  C   C56       1.0  0.14222  0.13110  0.50473  1.0000
  H   H90       1.0  0.13308  0.09786  0.55072  1.0000
  H   H91       1.0  0.21090  0.15560  0.55105  1.0000
  H   H92       1.0  0.20124  0.18204  0.49214  1.0000
  H   H93       1.0  0.12342  0.12435  0.49181  1.0000
  C   C57       1.0  0.32894  0.14382  0.63888  1.0000
  C   C58       1.0  0.33275  0.17571  0.62584  1.0000
  C   C59       1.0  0.35293  0.21930  0.63134  1.0000
  N   N5        1.0  0.45099  0.18724  0.60416  1.0000
  H   H94       1.0  0.31342  0.11024  0.63445  1.0000
  H   H95       1.0  0.31973  0.16655  0.61158  1.0000
  H   H96       1.0  0.20452  0.05562  0.52311  1.0000
  N   N6        1.0  0.08739  0.20815  0.47175  1.0000
  C   C60       1.0  0.08256  0.20009  0.45049  1.0000
  C   C61       1.0  0.06855  0.23696  0.47629  1.0000
  C   C62       1.0  0.06067  0.16504  0.48160  1.0000
  C   C63       1.0  0.13494  0.22817  0.47685  1.0000
  C   C64       1.0  0.09513  0.16717  0.44271  1.0000
  C   C65       1.0  0.09007  0.28123  0.46603  1.0000
  C   C66       1.0  0.06011  0.16565  0.50354  1.0000
  H   H97       1.0  0.21571  0.04317  0.49975  1.0000
  H   H98       1.0  0.04856  0.18891  0.44588  1.0000
  H   H99       1.0  0.10296  0.23065  0.44247  1.0000
  H   H100      1.0  0.06933  0.24370  0.49171  1.0000
  H   H101      1.0  0.46268  0.02514  0.40990  1.0000
  H   H102      1.0  0.02627  0.14915  0.47663  1.0000
  H   H103      1.0  0.07246  0.14231  0.47790  1.0000
  H   H104      1.0  0.14440  0.20265  0.47755  1.0000
  H   H105      1.0  0.14728  0.02478  0.44480  1.0000
  H   H106      1.0  0.12784  0.17432  0.44743  1.0000
  H   H107      1.0  0.07059  0.13341  0.44652  1.0000
  C   C67       1.0  0.47321  0.02498  0.39492  1.0000
  C   C68       1.0  0.14611  0.01895  0.50601  1.0000
  C   C69       1.0  0.34051  0.35379  0.63666  1.0000
  H   H108      1.0  0.16919  0.02130  0.65447  1.0000
  H   H109      1.0  0.44636  0.26460  0.60425  1.0000
  C   C70       1.0  0.47454  0.18930  0.63926  1.0000
  H   H110      1.0  0.17681  0.06550  0.47374  1.0000
  H   H111      1.0  0.16909  0.28998  0.49246  1.0000
  H   H112      1.0  0.12476  0.24842  0.50608  1.0000
  C   C71       1.0  0.36549  0.40000  0.62821  1.0000
  H   H113      1.0  0.03861  0.13214  0.50879  1.0000
  H   H114      1.0  0.38709  0.11204  0.58200  1.0000
  H   H115      1.0  0.35661  0.33457  0.63363  1.0000
  S   S23       1.0  0.46327  0.23431  0.54314  1.0000
  H   H116      1.0  0.48004  0.27032  0.62452  1.0000
  H   H117      1.0  0.18283  0.00139  0.47195  1.0000
  H   H118      1.0  0.29198  0.36991  0.57076  1.0000
  H   H119      1.0  0.46137  0.18606  0.65393  1.0000
  C   C72       1.0  0.45674  0.46046  0.55351  1.0000
  Fe  Fe11      1.0  0.47527  0.04056  0.48731  1.0000
  H   H120      1.0  0.04682  0.18561  0.50935  1.0000
  H   H121      1.0  0.43016  0.37816  0.62588  1.0000
  C   C73       1.0  0.39377  0.37850  0.60030  1.0000
  N   N7        1.0  0.12954  0.00350  0.48606  1.0000
  C   C74       1.0  0.37594  0.13085  0.59059  1.0000
  C   C75       1.0  0.43798  0.17989  0.62489  1.0000
  H   H122      1.0  0.38925  0.03612  0.43691  1.0000
  H   H123      1.0  0.13342  0.06633  0.44658  1.0000
  H   H124      1.0  0.15546  0.25072  0.46534  1.0000
  H   H125      1.0  0.39763  0.41780  0.63544  1.0000
  H   H126      1.0  0.41232  0.14569  0.62743  1.0000
  C   C76       1.0  0.32538  0.39080  0.57636  1.0000
  H   H127      1.0  0.20172  0.08542  0.50340  1.0000
  H   H128      1.0  0.39596  0.19638  0.59867  1.0000
  H   H129      1.0  0.34786  0.12933  0.58289  1.0000
  H   H130      1.0  0.43043  0.46432  0.60773  1.0000
  H   H131      1.0  0.40210  0.38467  0.58492  1.0000
  H   H132      1.0  0.36377  0.11496  0.60457  1.0000
  C   C77       1.0  0.37904  0.47891  0.60644  1.0000
  H   H133      1.0  0.12599  0.29841  0.46703  1.0000
  H   H134      1.0  0.33924  0.35609  0.65241  1.0000
  H   H135      1.0  0.34728  0.38352  0.56791  1.0000
  H   H136      1.0  0.33393  0.42497  0.57385  1.0000
  H   H137      1.0  0.03327  0.22013  0.47259  1.0000
  H   H138      1.0  0.09256  0.17556  0.50962  1.0000
  H   H139      1.0  0.07875  0.30224  0.47268  1.0000
  H   H140      1.0  0.42306  0.19964  0.62923  1.0000
  S   S24       1.0  0.42959  0.06460  0.49756  1.0000
  C   C78       1.0  0.41172  0.17882  0.59256  1.0000
  H   H141      1.0  0.40489  0.45264  0.58557  1.0000
  H   H142      1.0  0.45781  0.16181  0.56755  1.0000
  H   H143      1.0  0.06643  0.99700  0.49109  1.0000
  C   C79       1.0  0.43619  0.38934  0.61087  1.0000
  C   C80       1.0  0.12738  0.03523  0.45301  1.0000
  H   H144      1.0  0.17362  0.24704  0.50290  1.0000
  H   H145      1.0  0.46076  0.42426  0.61033  1.0000
  H   H146      1.0  0.30426  0.39008  0.60521  1.0000
  C   C81       1.0  0.14112  0.04309  0.47408  1.0000
  C   C82       1.0  0.15037  0.25466  0.49558  1.0000
  H   H147      1.0  0.08009  0.27753  0.45083  1.0000
  H   H148      1.0  0.12674  0.06181  0.48043  1.0000
  H   H149      1.0  0.30646  0.33576  0.63152  1.0000
  H   H150      1.0  0.47467  0.05371  0.38788  1.0000
  Fe  Fe12      1.0  0.01670  0.03859  0.49800  1.0000
  C   C83       1.0  0.48040  0.15879  0.57741  1.0000
  C   C84       1.0  0.19492  0.05262  0.50787  1.0000
  H   H151      1.0  0.44448  0.12292  0.60260  1.0000
  C   C85       1.0  0.36849  0.23042  0.65012  1.0000
  H   H152      1.0  0.47864  0.12770  0.57342  1.0000
  H   H153      1.0  0.39694  0.01749  0.45930  1.0000
  C   C86       1.0  0.37393  0.02347  0.45101  1.0000
  C   C87       1.0  0.46757  0.15718  0.59855  1.0000
  H   H154      1.0  0.34312  0.46186  0.60655  1.0000
  H   H155      1.0  0.27908  0.00101  0.46745  1.0000
  H   H156      1.0  0.30984  0.99134  0.43940  1.0000
  C   C88       1.0  0.47817  0.26891  0.60874  1.0000
  H   H157      1.0  0.14047  0.99125  0.51532  1.0000
  H   H158      1.0  0.40665  0.98932  0.38452  1.0000
  C   C89       1.0  0.29441  0.98711  0.47682  1.0000
  H   H159      1.0  0.24214  0.05274  0.71873  1.0000
  S   S25       1.0  0.03576  0.10150  0.85576  1.0000
  S   S26       1.0  0.39966  0.48037  0.85645  1.0000
  Fe  Fe13      1.0  0.06053  0.33077  0.88116  1.0000
  S   S27       1.0  0.01390  0.26832  0.86544  1.0000
  Fe  Fe14      1.0  0.07446  0.42473  0.88591  1.0000
  H   H160      1.0  0.16400  0.29033  0.96387  1.0000
  S   S28       1.0  0.04251  0.36414  0.90371  1.0000
  H   H161      1.0  0.39116  0.24759  0.74693  1.0000
  C   C90       1.0  0.03144  0.14913  0.85743  1.0000
  C   C91       1.0  0.00959  0.15982  0.84375  1.0000
  C   C92       1.0  0.00516  0.19685  0.84624  1.0000
  C   C93       1.0  0.02321  0.22405  0.86218  1.0000
  C   C94       1.0  0.04652  0.21431  0.87545  1.0000
  Fe  Fe15      1.0  0.02480  0.01580  0.79583  1.0000
  C   C95       1.0  0.37568  0.14597  0.79967  1.0000
  C   C96       1.0  0.22957  0.42139  0.97115  1.0000
  H   H162      1.0  0.06047  0.23484  0.88782  1.0000
  C   C97       1.0  0.34349  0.46215  0.85508  1.0000
  Fe  Fe16      1.0  0.32022  0.08729  0.74434  1.0000
  S   S29       1.0  0.38497  0.10286  0.75669  1.0000
  S   S30       1.0  0.26311  0.05608  0.76530  1.0000
  Fe  Fe17      1.0  0.36029  0.11823  0.70450  1.0000
  S   S31       1.0  0.42783  0.13662  0.71439  1.0000
  S   S32       1.0  0.34025  0.11350  0.67314  1.0000
  Fe  Fe18      1.0  0.39694  0.07327  0.73064  1.0000
  S   S33       1.0  0.41211  0.01684  0.73090  1.0000
  Fe  Fe19      1.0  0.41100  0.16485  0.73987  1.0000
  H   H163      1.0  0.19355  0.01262  0.79220  1.0000
  S   S34       1.0  0.32994  0.05336  0.71944  1.0000
  S   S35       1.0  0.34558  0.15080  0.72880  1.0000
  H   H164      1.0  0.16827  0.08142  0.69752  1.0000
  S   S36       1.0  0.08738  0.38947  0.86251  1.0000
  Fe  Fe20      1.0  0.10995  0.38678  0.91547  1.0000
  S   S37       1.0  0.14127  0.44943  0.89852  1.0000
  S   S38       1.0  0.10955  0.37975  0.94786  1.0000
  Fe  Fe21      1.0  0.15162  0.40939  0.87624  1.0000
  C   C98       1.0  0.45649  0.00631  0.73300  1.0000
  S   S39       1.0  0.12517  0.34858  0.89405  1.0000
  H   H165      1.0  0.12900  0.30566  0.97495  1.0000
  C   C99       1.0  0.16106  0.00348  0.68527  1.0000
  H   H166      1.0  0.99556  0.13920  0.83141  1.0000
  H   H167      1.0  0.35517  0.11010  0.79853  1.0000
  H   H168      1.0  0.99429  0.37034  0.86593  1.0000
  C   C100      1.0  0.43926  0.33979  0.77427  1.0000
  H   H169      1.0  0.14726  0.08768  0.74644  1.0000
  C   C101      1.0  0.15369  0.39677  0.96395  1.0000
  C   C102      1.0  0.19604  0.41043  0.95775  1.0000
  C   C103      1.0  0.34515  0.15504  0.65757  1.0000
  H   H170      1.0  0.21717  0.11198  0.71133  1.0000
  H   H171      1.0  0.20283  0.41207  0.94265  1.0000
  H   H172      1.0  0.26212  0.43149  0.96621  1.0000
  H   H173      1.0  0.14556  0.04667  0.66846  1.0000
  C   C104      1.0  0.20410  0.10194  0.69670  1.0000
  C   C105      1.0  0.25488  0.43852  0.85386  1.0000
  Fe  Fe22      1.0  0.00706  0.04842  0.83291  1.0000
  H   H174      1.0  0.33902  0.45518  0.82458  1.0000
  S   S40       1.0  0.03537  0.00499  0.82663  1.0000
  C   C106      1.0  0.18374  0.02943  0.78227  1.0000
  C   C107      1.0  0.05031  0.17691  0.87314  1.0000
  C   C108      1.0  0.27760  0.44128  0.83703  1.0000
  H   H175      1.0  0.18626  0.03762  0.71996  1.0000
  H   H176      1.0  0.38105  0.15472  0.81491  1.0000
  C   C109      1.0  0.36486  0.19853  0.66316  1.0000
  H   H177      1.0  0.37740  0.20764  0.67749  1.0000
  C   C110      1.0  0.21205  0.05394  0.76743  1.0000
  C   C111      1.0  0.19903  0.07578  0.75484  1.0000
  C   C112      1.0  0.15739  0.07141  0.75651  1.0000
  C   C113      1.0  0.12865  0.04617  0.77114  1.0000
  H   H178      1.0  0.22103  0.09590  0.74381  1.0000
  H   H179      1.0  0.26711  0.00980  0.65793  1.0000
  H   H180      1.0  0.26110  0.09777  0.69041  1.0000
  H   H181      1.0  0.38036  0.30821  0.75769  1.0000
  S   S41       1.0  0.20047  0.42673  0.85212  1.0000
  H   H182      1.0  0.22471  0.08379  0.67117  1.0000
  S   S42       1.0  0.07553  0.03967  0.77178  1.0000
  S   S43       1.0  0.42790  0.38041  0.78244  1.0000
  H   H183      1.0  0.39254  0.27012  0.80067  1.0000
  C   C114      1.0  0.40885  0.30699  0.76225  1.0000
  C   C115      1.0  0.41482  0.27252  0.75617  1.0000
  S   S44       1.0  0.99947  0.06157  0.80241  1.0000
  C   C116      1.0  0.45139  0.27043  0.76205  1.0000
  N   N8        1.0  0.16561  0.29120  0.83747  1.0000
  C   C117      1.0  0.12008  0.27116  0.82967  1.0000
  C   C118      1.0  0.18011  0.25792  0.83670  1.0000
  C   C119      1.0  0.19679  0.33021  0.82592  1.0000
  C   C120      1.0  0.16547  0.30572  0.85765  1.0000
  C   C121      1.0  0.10137  0.30199  0.82772  1.0000
  C   C122      1.0  0.15349  0.21678  0.84889  1.0000
  C   C123      1.0  0.19735  0.32299  0.80427  1.0000
  C   C124      1.0  0.20767  0.32053  0.86914  1.0000
  H   H184      1.0  0.11748  0.25568  0.81557  1.0000
  H   H185      1.0  0.09709  0.24423  0.83900  1.0000
  H   H186      1.0  0.21493  0.27254  0.84081  1.0000
  H   H187      1.0  0.17824  0.24605  0.82188  1.0000
  H   H188      1.0  0.19033  0.35751  0.82797  1.0000
  H   H189      1.0  0.23077  0.34292  0.83090  1.0000
  H   H190      1.0  0.15953  0.33362  0.85779  1.0000
  H   H191      1.0  0.13814  0.27988  0.86599  1.0000
  H   H192      1.0  0.09866  0.31492  0.84172  1.0000
  H   H193      1.0  0.12041  0.32926  0.81781  1.0000
  H   H194      1.0  0.06785  0.28345  0.82192  1.0000
  H   H195      1.0  0.16929  0.19654  0.84837  1.0000
  H   H196      1.0  0.15155  0.22402  0.86409  1.0000
  H   H197      1.0  0.12023  0.19637  0.84311  1.0000
  H   H198      1.0  0.20825  0.29947  0.80085  1.0000
  H   H199      1.0  0.22111  0.35427  0.79755  1.0000
  H   H200      1.0  0.16549  0.31280  0.79748  1.0000
  H   H201      1.0  0.21380  0.29339  0.87203  1.0000
  H   H202      1.0  0.20435  0.33302  0.88320  1.0000
  H   H203      1.0  0.23642  0.34746  0.86212  1.0000
  N   N9        1.0  0.32608  0.18026  0.79952  1.0000
  C   C125      1.0  0.31136  0.20427  0.78651  1.0000
  C   C126      1.0  0.34982  0.20947  0.81614  1.0000
  C   C127      1.0  0.28815  0.13894  0.80690  1.0000
  C   C128      1.0  0.35510  0.16858  0.78837  1.0000
  C   C129      1.0  0.27952  0.17728  0.77049  1.0000
  C   C130      1.0  0.39478  0.24877  0.81156  1.0000
  C   C131      1.0  0.25346  0.14427  0.81790  1.0000
  H   H204      1.0  0.01174  0.46558  0.91353  1.0000
  H   H205      1.0  0.29583  0.21976  0.79469  1.0000
  H   H206      1.0  0.33973  0.23164  0.77939  1.0000
  H   H207      1.0  0.35397  0.19116  0.82803  1.0000
  H   H208      1.0  0.33031  0.22300  0.82248  1.0000
  H   H209      1.0  0.27156  0.11552  0.79512  1.0000
  H   H210      1.0  0.29948  0.12187  0.81665  1.0000
  H   H211      1.0  0.33675  0.14597  0.77656  1.0000
  H   H212      1.0  0.38131  0.19711  0.78080  1.0000
  H   H213      1.0  0.27368  0.19923  0.76123  1.0000
  H   H214      1.0  0.29255  0.16124  0.76122  1.0000
  H   H215      1.0  0.24749  0.15272  0.77623  1.0000
  C   C132      1.0  0.20923  0.02892  0.71320  1.0000
  S   S45       1.0  0.45950  0.22676  0.75536  1.0000
  H   H216      1.0  0.40837  0.26869  0.82462  1.0000
  H   H217      1.0  0.22629  0.11154  0.82169  1.0000
  H   H218      1.0  0.23929  0.16026  0.80927  1.0000
  H   H219      1.0  0.26658  0.16226  0.83143  1.0000
  C   C133      1.0  0.14751  0.01671  0.66661  1.0000
  C   C134      1.0  0.14241  0.02575  0.78421  1.0000
  C   C135      1.0  0.32169  0.45277  0.83762  1.0000
  H   H220      1.0  0.21188  0.13204  0.68878  1.0000
  H   H221      1.0  0.41845  0.23887  0.80686  1.0000
  H   H222      1.0  0.06746  0.16907  0.88375  1.0000
  C   C136      1.0  0.27630  0.44662  0.87136  1.0000
  C   C137      1.0  0.15485  0.29751  0.97799  1.0000
  H   H223      1.0  0.26122  0.43518  0.82343  1.0000
  H   H224      1.0  0.13772  0.00195  0.69630  1.0000
  H   H225      1.0  0.99210  0.32512  0.84021  1.0000
  C   C138      1.0  0.22590  0.07895  0.68672  1.0000
  S   S46       1.0  0.04542  0.46616  0.87500  1.0000
  H   H226      1.0  0.40840  0.15601  0.79371  1.0000
  H   H227      1.0  0.25912  0.44468  0.88439  1.0000
  C   C139      1.0  0.24080  0.01687  0.66166  1.0000
  H   H228      1.0  0.25044  0.04897  0.65536  1.0000
  N   N10       1.0  0.20755  0.03171  0.69176  1.0000
  S   S47       1.0  0.47983  0.45210  0.83082  1.0000
  C   C140      1.0  0.23655  0.01601  0.68350  1.0000
  C   C141      1.0  0.00063  0.48189  0.90394  1.0000
  C   C142      1.0  0.14546  0.39478  0.98365  1.0000
  H   H229      1.0  0.33727  0.46582  0.88548  1.0000
  H   H230      1.0  0.18386  0.32665  0.98341  1.0000
  S   S48       1.0  0.42488  0.47609  0.80016  1.0000
  H   H231      1.0  0.98781  0.20461  0.83571  1.0000
  C   C143      1.0  0.47608  0.33798  0.78001  1.0000
  H   H232      1.0  0.26995  0.03534  0.68937  1.0000
  H   H233      1.0  0.14696  0.23435  0.98417  1.0000
  H   H234      1.0  0.11442  0.99065  0.66255  1.0000
  Fe  Fe23      1.0  0.46590  0.44387  0.79917  1.0000
  C   C144      1.0  0.32055  0.45862  0.87193  1.0000
  H   H235      1.0  0.12075  0.00619  0.79551  1.0000
  H   H236      1.0  0.21072  0.99100  0.65496  1.0000
  C   C145      1.0  0.12284  0.68803  0.25961  1.0000
  H   H237      1.0  0.06401  0.88638  0.19266  1.0000
  H   H238      1.0  0.05176  0.86122  0.15885  1.0000
  Fe  Fe24      1.0  0.03820  0.54512  0.16455  1.0000
  S   S49       1.0  0.03102  0.55960  0.13418  1.0000
  S   S50       1.0  0.09318  0.59055  0.18419  1.0000
  H   H239      1.0  0.16780  0.65892  0.20259  1.0000
  C   C146      1.0  0.16578  0.69332  0.25160  1.0000
  Fe  Fe25      1.0  0.30734  0.90666  0.22146  1.0000
  S   S51       1.0  0.27439  0.92263  0.24517  1.0000
  C   C147      1.0  0.02949  0.64927  0.27012  1.0000
  Fe  Fe26      1.0  0.21882  0.83930  0.20378  1.0000
  S   S52       1.0  0.18038  0.85111  0.22593  1.0000
  S   S53       1.0  0.18170  0.79559  0.17894  1.0000
  Fe  Fe27      1.0  0.22879  0.92157  0.22227  1.0000
  C   C148      1.0  0.12118  0.92666  0.25497  1.0000
  Fe  Fe28      1.0  0.22801  0.85038  0.24685  1.0000
  S   S54       1.0  0.19883  0.80311  0.27163  1.0000
  S   S55       1.0  0.26432  0.91023  0.19859  1.0000
  S   S56       1.0  0.26373  0.83403  0.22469  1.0000
  H   H240      1.0  0.23019  0.63267  0.16086  1.0000
  C   C149      1.0  0.08991  0.91882  0.19585  1.0000
  H   H241      1.0  0.19181  0.55272  0.16123  1.0000
  C   C150      1.0  0.18915  0.81481  0.29507  1.0000
  C   C151      1.0  0.20248  0.85715  0.30098  1.0000
  H   H242      1.0  0.37571  0.55691  0.02365  1.0000
  C   C152      1.0  0.13142  0.61379  0.11153  1.0000
  C   C153      1.0  0.07513  0.64626  0.23314  1.0000
  H   H243      1.0  0.22075  0.88380  0.29131  1.0000
  H   H244      1.0  0.22614  0.57724  0.09862  1.0000
  H   H245      1.0  0.99174  0.86096  0.16676  1.0000
  C   C154      1.0  0.16689  0.78044  0.30799  1.0000
  H   H246      1.0  0.19373  0.92661  0.26250  1.0000
  C   C155      1.0  0.21666  0.66755  0.13047  1.0000
  C   C156      1.0  0.15805  0.73869  0.18023  1.0000
  C   C157      1.0  0.12216  0.71238  0.16862  1.0000
  C   C158      1.0  0.10198  0.66686  0.16960  1.0000
  C   C159      1.0  0.11809  0.64745  0.18200  1.0000
  C   C160      1.0  0.15484  0.67379  0.19315  1.0000
  C   C161      1.0  0.17458  0.71925  0.19239  1.0000
  H   H247      1.0  0.10945  0.72728  0.15906  1.0000
  H   H248      1.0  0.07378  0.64687  0.16089  1.0000
  H   H249      1.0  0.20269  0.73929  0.20114  1.0000
  H   H250      1.0  0.12689  0.75656  0.24249  1.0000
  C   C162      1.0  0.20110  0.69659  0.14003  1.0000
  C   C163      1.0  0.12918  0.92474  0.20359  1.0000
  H   H251      1.0  0.13391  0.91275  0.24423  1.0000
  C   C164      1.0  0.03142  0.62912  0.22240  1.0000
  H   H252      1.0  0.12360  0.91890  0.31624  1.0000
  H   H253      1.0  0.01970  0.88852  0.10532  1.0000
  H   H254      1.0  0.25144  0.68096  0.13448  1.0000
  H   H255      1.0  0.17344  0.57158  0.18064  1.0000
  H   H256      1.0  0.10731  0.76474  0.21029  1.0000
  H   H257      1.0  0.21770  0.67341  0.11495  1.0000
  H   H258      1.0  0.12610  0.60713  0.14197  1.0000
  H   H259      1.0  0.10525  0.58455  0.10431  1.0000
  H   H260      1.0  0.12756  0.56375  0.13025  1.0000
  H   H261      1.0  0.19537  0.56222  0.13028  1.0000
  C   C165      1.0  0.05306  0.86391  0.14311  1.0000
  H   H262      1.0  0.17549  0.96540  0.31021  1.0000
  H   H263      1.0  0.15792  0.62967  0.10106  1.0000
  H   H264      1.0  0.10013  0.65124  0.22241  1.0000
  H   H265      1.0  0.10838  0.65781  0.26828  1.0000
  H   H266      1.0  0.18078  0.63271  0.16455  1.0000
  C   C166      1.0  0.14323  0.59977  0.13051  1.0000
  H   H267      1.0  0.06751  0.71792  0.26462  1.0000
  H   H268      1.0  0.21759  0.72917  0.13325  1.0000
  H   H269      1.0  0.00927  0.91181  0.14180  1.0000
  H   H270      1.0  0.07782  0.70822  0.20602  1.0000
  C   C167      1.0  0.05440  0.68735  0.25615  1.0000
  H   H271      1.0  0.13911  0.54963  0.16042  1.0000
  C   C168      1.0  0.21110  0.59644  0.12559  1.0000
  H   H272      1.0  0.17449  0.57365  0.09875  1.0000
  N   N11       1.0  0.19087  0.61990  0.13534  1.0000
  H   H273      1.0  0.07779  0.85544  0.13835  1.0000
  H   H274      1.0  0.04930  0.65264  0.28293  1.0000
  H   H275      1.0  0.13330  0.89699  0.20614  1.0000
  C   C169      1.0  0.11346  0.72721  0.23321  1.0000
  C   C170      1.0  0.11474  0.87676  0.28128  1.0000
  H   H276      1.0  0.16566  0.68348  0.13852  1.0000
  C   C171      1.0  0.20854  0.59392  0.10370  1.0000
  C   C172      1.0  0.19530  0.61608  0.15658  1.0000
  H   H277      1.0  0.24598  0.61107  0.12968  1.0000
  N   N12       1.0  0.09054  0.68660  0.24515  1.0000
  H   H278      1.0  0.16038  0.66965  0.24017  1.0000
  H   H279      1.0  0.20993  0.70182  0.15536  1.0000
  H   H280      1.0  0.43559  0.53099  0.07840  1.0000
  H   H281      1.0  0.12844  0.87432  0.29520  1.0000
  H   H282      1.0  0.11737  0.63506  0.11436  1.0000
  H   H283      1.0  0.15415  0.85475  0.26571  1.0000
  H   H284      1.0  0.15683  0.74759  0.30362  1.0000
  H   H285      1.0  0.44041  0.57418  0.04872  1.0000
  C   C173      1.0  0.17354  0.56959  0.16483  1.0000
  H   H286      1.0  0.10379  0.84183  0.25384  1.0000
  H   H287      1.0  0.22417  0.62625  0.09683  1.0000
  S   S57       1.0  0.37998  0.93599  0.21371  1.0000
  H   H288      1.0  0.18365  0.68785  0.26329  1.0000
  H   H289      1.0  0.07155  0.61876  0.24210  1.0000
  H   H290      1.0  0.14181  0.72899  0.22573  1.0000
  H   H291      1.0  0.06524  0.91051  0.23704  1.0000
  C   C174      1.0  0.08671  0.73294  0.21737  1.0000
  H   H292      1.0  0.02988  0.68815  0.24671  1.0000
  N   N13       1.0  0.13605  0.92333  0.27473  1.0000
  H   H293      1.0  0.05649  0.91893  0.26127  1.0000
  C   C175      1.0  0.11961  0.84513  0.26784  1.0000
  H   H294      1.0  0.46462  0.96251  0.19823  1.0000
  C   C176      1.0  0.45445  0.57058  0.03515  1.0000
  H   H295      1.0  0.00579  0.59885  0.22915  1.0000
  H   H296      1.0  0.13470  0.96117  0.25071  1.0000
  C   C177      1.0  0.36948  0.54375  0.00895  1.0000
  H   H297      1.0  0.01863  0.61733  0.26335  1.0000
  H   H298      1.0  0.01933  0.65216  0.22086  1.0000
  H   H299      1.0  0.18763  0.72687  0.24643  1.0000
  H   H300      1.0  0.10384  0.81241  0.27449  1.0000
  C   C178      1.0  0.08379  0.95440  0.19229  1.0000
  H   H301      1.0  0.13169  0.71487  0.27000  1.0000
  S   S58       1.0  0.03274  0.94439  0.18324  1.0000
  C   C179      1.0  0.43393  0.52166  0.03035  1.0000
  H   H302      1.0  0.19621  0.93366  0.28751  1.0000
  H   H303      1.0  0.07944  0.86353  0.28399  1.0000
  H   H304      1.0  0.03510  0.61966  0.20770  1.0000
  N   N14       1.0  0.41806  0.50794  0.01021  1.0000
  H   H305      1.0  0.05769  0.73343  0.22281  1.0000
  H   H306      1.0  0.08799  0.93330  0.28938  1.0000
  Fe  Fe29      1.0  0.02249  0.49405  0.12737  1.0000
  C   C180      1.0  0.00902  0.83235  0.13376  1.0000
  C   C181      1.0  0.16255  0.96636  0.20838  1.0000
  C   C182      1.0  0.07159  0.90488  0.25199  1.0000
  C   C183      1.0  0.13980  0.95107  0.30912  1.0000
  C   C184      1.0  0.44878  0.53872  0.99541  1.0000
  H   H307      1.0  0.01580  0.83224  0.11836  1.0000
  C   C185      1.0  0.37351  0.50268  0.00756  1.0000
  H   H308      1.0  0.40706  0.50338  0.04071  1.0000
  H   H309      1.0  0.05501  0.86927  0.25406  1.0000
  C   C186      1.0  0.18461  0.94167  0.27423  1.0000
  H   H310      1.0  0.44953  0.59064  0.02457  1.0000
  H   H311      1.0  0.45217  0.57131  0.99626  1.0000
  H   H312      1.0  0.06508  0.89810  0.13888  1.0000
  S   S59       1.0  0.21108  0.97483  0.21973  1.0000
  C   C187      1.0  0.99991  0.90175  0.11127  1.0000
  H   H313      1.0  0.02161  0.93750  0.11094  1.0000
  H   H314      1.0  0.99945  0.79894  0.13871  1.0000
  C   C188      1.0  0.12389  0.94828  0.28839  1.0000
  H   H315      1.0  0.35116  0.96947  0.18213  1.0000
  H   H316      1.0  0.38984  0.56899  0.99844  1.0000
  H   H317      1.0  0.33523  0.53451  0.00574  1.0000
  H   H318      1.0  0.00002  0.64959  0.27524  1.0000
  C   C189      1.0  0.46141  0.52370  0.07610  1.0000
  H   H319      1.0  0.13114  0.97226  0.31746  1.0000
  C   C190      1.0  0.46970  0.98093  0.21118  1.0000
  C   C191      1.0  0.43343  0.97379  0.22216  1.0000
  C   C192      1.0  0.19267  0.86492  0.31953  1.0000
  H   H320      1.0  0.39481  0.98337  0.16615  1.0000
  H   H321      1.0  0.45893  0.51256  0.03404  1.0000
  C   C193      1.0  0.98462  0.88746  0.13191  1.0000
  H   H322      1.0  0.11302  0.48885  0.13270  1.0000
  H   H323      1.0  0.13559  0.98188  0.28313  1.0000
  H   H324      1.0  0.35961  0.48720  0.99353  1.0000
  C   C194      1.0  0.01099  0.56841  0.41267  1.0000
  Fe  Fe30      1.0  0.08342  0.69910  0.39478  1.0000
  S   S60       1.0  0.06272  0.74825  0.38737  1.0000
  S   S61       1.0  0.04792  0.62906  0.38306  1.0000
  Fe  Fe31      1.0  0.08219  0.77339  0.41742  1.0000
  H   H325      1.0  0.06434  0.95097  0.51641  1.0000
  S   S62       1.0  0.09771  0.72093  0.42523  1.0000
  H   H326      1.0  0.22874  0.59791  0.43476  1.0000
  C   C195      1.0  0.31616  0.90999  0.49143  1.0000
  C   C196      1.0  0.00461  0.87146  0.45717  1.0000
  H   H327      1.0  0.02262  0.59570  0.42231  1.0000
  H   H328      1.0  0.10411  0.58293  0.42324  1.0000
  C   C197      1.0  0.04809  0.86175  0.42572  1.0000
  C   C198      1.0  0.03513  0.83181  0.44065  1.0000
  H   H329      1.0  0.04841  0.91855  0.41463  1.0000
  H   H330      1.0  0.06455  0.85808  0.41349  1.0000
  H   H331      1.0  0.25797  0.68124  0.40718  1.0000
  N   N15       1.0  0.16533  0.63306  0.41130  1.0000
  H   H332      1.0  0.34234  0.91005  0.50016  1.0000
  S   S63       1.0  0.41091  0.93898  0.43274  1.0000
  H   H333      1.0  0.38929  0.50497  0.59556  1.0000
  Fe  Fe32      1.0  0.16563  0.76843  0.41559  1.0000
  S   S64       1.0  0.15101  0.82175  0.40969  1.0000
  S   S65       1.0  0.21960  0.77617  0.43557  1.0000
  Fe  Fe33      1.0  0.13331  0.79314  0.38006  1.0000
  S   S66       1.0  0.15785  0.84176  0.35548  1.0000
  S   S67       1.0  0.15315  0.74304  0.38548  1.0000
  C   C199      1.0  0.35803  0.89328  0.43384  1.0000
  C   C200      1.0  0.34418  0.86468  0.44930  1.0000
  C   C201      1.0  0.30179  0.82864  0.44954  1.0000
  C   C202      1.0  0.27269  0.82141  0.43452  1.0000
  C   C203      1.0  0.28645  0.85022  0.41914  1.0000
  C   C204      1.0  0.32910  0.88572  0.41872  1.0000
  H   H334      1.0  0.36626  0.86998  0.46096  1.0000
  H   H335      1.0  0.29140  0.80638  0.46146  1.0000
  H   H336      1.0  0.26435  0.84489  0.40748  1.0000
  H   H337      1.0  0.33958  0.90760  0.40667  1.0000
  H   H338      1.0  0.24603  0.93280  0.43301  1.0000
  C   C205      1.0  0.01356  0.83699  0.45641  1.0000
  C   C206      1.0  0.01780  0.57580  0.39305  1.0000
  H   H339      1.0  0.98468  0.52041  0.43509  1.0000
  H   H340      1.0  0.21930  0.63984  0.44178  1.0000
  H   H341      1.0  0.11046  0.58499  0.36867  1.0000
  H   H342      1.0  0.28626  0.97211  0.50740  1.0000
  C   C207      1.0  0.18409  0.60410  0.41551  1.0000
  H   H343      1.0  0.20509  0.68692  0.43043  1.0000
  H   H344      1.0  0.14041  0.76152  0.33644  1.0000
  H   H345      1.0  0.17732  0.58411  0.44553  1.0000
  H   H346      1.0  0.14972  0.62939  0.45199  1.0000
  H   H347      1.0  0.09561  0.61996  0.44976  1.0000
  H   H348      1.0  0.35773  0.94186  0.46791  1.0000
  C   C208      1.0  0.23338  0.92035  0.44748  1.0000
  H   H349      1.0  0.43674  0.48818  0.53108  1.0000
  C   C209      1.0  0.19709  0.68027  0.41511  1.0000
  H   H350      1.0  0.14084  0.65060  0.38650  1.0000
  H   H351      1.0  0.18197  0.70021  0.41140  1.0000
  C   C210      1.0  0.26705  0.91599  0.45976  1.0000
  C   C211      1.0  0.45649  0.49502  0.54375  1.0000
  H   H352      1.0  0.26253  0.73324  0.41012  1.0000
  Fe  Fe34      1.0  0.98321  0.97494  0.46452  1.0000
  C   C212      1.0  0.32989  0.98161  0.44803  1.0000
  H   H353      1.0  0.20926  0.60858  0.40484  1.0000
  H   H354      1.0  0.15799  0.96209  0.49010  1.0000
  H   H355      1.0  0.29294  0.91156  0.50141  1.0000
  C   C213      1.0  0.33676  0.94866  0.47747  1.0000
  H   H356      1.0  0.10303  0.62967  0.41502  1.0000
  H   H357      1.0  0.13974  0.67147  0.44314  1.0000
  C   C214      1.0  0.08072  0.97632  0.48721  1.0000
  H   H358      1.0  0.09640  0.91446  0.46990  1.0000
  C   C215      1.0  0.03885  0.89598  0.42641  1.0000
  C   C216      1.0  0.12098  0.58276  0.38335  1.0000
  H   H359      1.0  0.13581  0.56170  0.38264  1.0000
  C   C217      1.0  0.15399  0.62887  0.39036  1.0000
  H   H360      1.0  0.24890  0.89513  0.47200  1.0000
  H   H361      1.0  0.42584  0.95453  0.39236  1.0000
  H   H362      1.0  0.15872  0.56943  0.41368  1.0000
  H   H363      1.0  0.30005  0.87859  0.48368  1.0000
  S   S68       1.0  0.04473  0.78733  0.44020  1.0000
  C   C218      1.0  0.01701  0.90098  0.44208  1.0000
  C   C219      1.0  0.15764  0.78823  0.32662  1.0000
  H   H364      1.0  0.44370  0.98239  0.36972  1.0000
  S   S69       1.0  0.00626  0.94470  0.44194  1.0000
  H   H365      1.0  0.23753  0.70342  0.38911  1.0000
  H   H366      1.0  0.22180  0.94073  0.45441  1.0000
  H   H367      1.0  0.27760  0.89613  0.45151  1.0000
  C   C220      1.0  0.12825  0.63611  0.44298  1.0000
  H   H368      1.0  0.33617  0.95997  0.43870  1.0000
  H   H369      1.0  0.24060  0.93354  0.49323  1.0000
  C   C221      1.0  0.24104  0.69986  0.40460  1.0000
  C   C222      1.0  0.17028  0.83052  0.33245  1.0000
  H   H370      1.0  0.18324  0.63942  0.38131  1.0000
  H   H371      1.0  0.11341  0.95425  0.45126  1.0000
  C   C223      1.0  0.12387  0.61895  0.42243  1.0000
  C   C224      1.0  0.20293  0.60689  0.43560  1.0000
  H   H372      1.0  0.09125  0.56684  0.39217  1.0000
  H   H373      1.0  0.47922  0.54640  0.63418  1.0000
  H   H374      1.0  0.20457  0.88755  0.44543  1.0000
  H   H375      1.0  0.39110  0.49400  0.62063  1.0000
  H   H376      1.0  0.02834  0.91562  0.49855  1.0000
  H   H377      1.0  0.24759  0.98538  0.49729  1.0000
  N   N16       1.0  0.30628  0.95793  0.46592  1.0000
  H   H378      1.0  0.00319  0.81381  0.46797  1.0000
  H   H379      1.0  0.08086  0.92047  0.50127  1.0000
  H   H380      1.0  0.46666  0.64363  0.63073  1.0000
  H   H381      1.0  0.20295  0.89776  0.32401  1.0000
  S   S70       1.0  0.44275  0.96759  0.48903  1.0000
  C   C225      1.0  0.26585  0.96798  0.49469  1.0000
  C   C226      1.0  0.06307  0.93871  0.50173  1.0000
  H   H382      1.0  0.06612  0.96215  0.47322  1.0000
  C   C227      1.0  0.00184  0.53961  0.38080  1.0000
  H   H383      1.0  0.35963  0.97765  0.48594  1.0000
  H   H384      1.0  0.47449  0.66003  0.60664  1.0000
  C   C228      1.0  0.15068  0.97868  0.47839  1.0000
  C   C229      1.0  0.12481  0.94293  0.46346  1.0000
  H   H385      1.0  0.14582  0.93081  0.45755  1.0000
  H   H386      1.0  0.00691  0.54479  0.36560  1.0000
  C   C230      1.0  0.98937  0.52557  0.41988  1.0000
  H   H387      1.0  0.98728  0.87457  0.46918  1.0000
  H   H388      1.0  0.47488  0.79480  0.49898  1.0000
  Fe  Fe35      1.0  0.45691  0.97052  0.45772  1.0000
  C   C231      1.0  0.43581  0.98537  0.38473  1.0000
  H   H389      1.0  0.07364  0.63378  0.93121  1.0000
  H   H390      1.0  0.04808  0.67840  0.86111  1.0000
  H   H391      1.0  0.16698  0.95758  0.71538  1.0000
  H   H392      1.0  0.47314  0.91910  0.73662  1.0000
  C   C232      1.0  0.01595  0.71233  0.92352  1.0000
  H   H393      1.0  0.32922  0.53680  0.84883  1.0000
  H   H394      1.0  0.22525  0.98182  0.68762  1.0000
  H   H395      1.0  0.46762  0.92104  0.69666  1.0000
  H   H396      1.0  0.04670  0.74910  0.88977  1.0000
  H   H397      1.0  0.44155  0.57614  0.85129  1.0000
  H   H398      1.0  0.02239  0.60417  0.90478  1.0000
  H   H399      1.0  0.22445  0.97719  0.71959  1.0000
  H   H400      1.0  0.00715  0.51246  0.85769  1.0000
  H   H401      1.0  0.43554  0.52716  0.98083  1.0000
  H   H402      1.0  0.39598  0.58297  0.85563  1.0000
  H   H403      1.0  0.99088  0.65042  0.85664  1.0000
  N   N17       1.0  0.04261  0.67222  0.90111  1.0000
  C   C233      1.0  0.05246  0.63544  0.90178  1.0000
  C   C234      1.0  0.01645  0.65197  0.86630  1.0000
  C   C235      1.0  0.02659  0.67566  0.92059  1.0000
  C   C236      1.0  0.08354  0.71355  0.89580  1.0000
  H   H404      1.0  0.06442  0.63116  0.88774  1.0000
  H   H405      1.0  0.27963  0.52893  0.83940  1.0000
  H   H406      1.0  0.44016  0.58922  0.81687  1.0000
  C   C237      1.0  0.07798  0.75050  0.88692  1.0000
  H   H407      1.0  0.34020  0.52895  0.78306  1.0000
  H   H408      1.0  0.32583  0.52429  0.81465  1.0000
  C   C238      1.0  0.31525  0.55189  0.83953  1.0000
  H   H409      1.0  0.46433  0.93405  0.66381  1.0000
  H   H410      1.0  0.43762  0.70218  0.82533  1.0000
  H   H411      1.0  0.43973  0.84598  0.70616  1.0000
  H   H412      1.0  0.39076  0.53356  0.79142  1.0000
  H   H413      1.0  0.10254  0.70636  0.88522  1.0000
  H   H414      1.0  0.99171  0.71117  0.91326  1.0000
  H   H415      1.0  0.00043  0.86655  0.84138  1.0000
  H   H416      1.0  0.10363  0.78214  0.89264  1.0000
  H   H417      1.0  0.99701  0.64441  0.92446  1.0000
  C   C239      1.0  0.45743  0.85718  0.69241  1.0000
  H   H418      1.0  0.05116  0.68146  0.93172  1.0000
  H   H419      1.0  0.01562  0.62046  0.86495  1.0000
  H   H420      1.0  0.31977  0.58242  0.84581  1.0000
  H   H421      1.0  0.00152  0.70889  0.93791  1.0000
  C   C240      1.0  0.42349  0.59199  0.84583  1.0000
  H   H422      1.0  0.42210  0.61618  0.79105  1.0000
  H   H423      1.0  0.08348  0.75234  0.87128  1.0000
  H   H424      1.0  0.09508  0.61383  0.91359  1.0000
  H   H425      1.0  0.41389  0.93703  0.73413  1.0000
  C   C241      1.0  0.43167  0.67335  0.81685  1.0000
  H   H426      1.0  0.10506  0.72720  0.90847  1.0000
  C   C242      1.0  0.00633  0.65944  0.88689  1.0000
  N   N18       1.0  0.37952  0.59060  0.81569  1.0000
  C   C243      1.0  0.38727  0.59359  0.79441  1.0000
  C   C244      1.0  0.38732  0.63424  0.82238  1.0000
  C   C245      1.0  0.33243  0.55715  0.81898  1.0000
  C   C246      1.0  0.40937  0.57708  0.82507  1.0000
  C   C247      1.0  0.37584  0.55070  0.78426  1.0000
  H   H427      1.0  0.99509  0.68332  0.88612  1.0000
  H   H428      1.0  0.43253  0.84836  0.68115  1.0000
  H   H429      1.0  0.00876  0.80786  0.85667  1.0000
  H   H430      1.0  0.36880  0.60729  0.78715  1.0000
  H   H431      1.0  0.11726  0.67116  0.91559  1.0000
  H   H432      1.0  0.38453  0.63523  0.83809  1.0000
  H   H433      1.0  0.36182  0.64075  0.81660  1.0000
  H   H434      1.0  0.31100  0.56438  0.80990  1.0000
  H   H435      1.0  0.46698  0.88874  0.65599  1.0000
  H   H436      1.0  0.39457  0.54111  0.82490  1.0000
  H   H437      1.0  0.45876  0.66706  0.81960  1.0000
  H   H438      1.0  0.44612  0.62740  0.84679  1.0000
  H   H439      1.0  0.47490  0.83886  0.69039  1.0000
  C   C248      1.0  0.08670  0.63958  0.91648  1.0000
  H   H440      1.0  0.04575  0.74469  0.92313  1.0000
  H   H441      1.0  0.38897  0.55799  0.76950  1.0000
  C   C249      1.0  0.99807  0.50847  0.87259  1.0000
  C   C250      1.0  0.44739  0.96291  0.73414  1.0000
  H   H442      1.0  0.43230  0.68211  0.80160  1.0000
  C   C251      1.0  0.01284  0.48690  0.88475  1.0000
  H   H443      1.0  0.15345  0.96923  0.68353  1.0000
  Fe  Fe36      1.0  0.44253  0.48791  0.83101  1.0000
  C   C252      1.0  0.19745  0.98415  0.72149  1.0000
  H   H444      1.0  0.19254  0.98448  0.73713  1.0000
  C   C253      1.0  0.84378  0.11742  0.27604  1.0000
  H   H445      1.0  0.77298  0.19250  0.18658  1.0000
  S   S71       1.0  0.93026  0.06702  0.19218  1.0000
  Fe  Fe37      1.0  0.64599  0.10301  0.23450  1.0000
  S   S72       1.0  0.68487  0.07352  0.24589  1.0000
  S   S73       1.0  0.57311  0.07681  0.24092  1.0000
  Fe  Fe38      1.0  0.73118  0.18750  0.22371  1.0000
  S   S74       1.0  0.77568  0.16418  0.23464  1.0000
  S   S75       1.0  0.75066  0.25375  0.21131  1.0000
  Fe  Fe39      1.0  0.72845  0.10158  0.22022  1.0000
  S   S76       1.0  0.74794  0.06084  0.20190  1.0000
  Fe  Fe40      1.0  0.72939  0.13817  0.25951  1.0000
  S   S77       1.0  0.74370  0.13585  0.29101  1.0000
  S   S78       1.0  0.68628  0.12656  0.20761  1.0000
  S   S79       1.0  0.68856  0.16631  0.24967  1.0000
  H   H446      1.0  0.87394  0.33473  0.29217  1.0000
  C   C254      1.0  0.78224  0.06458  0.25697  1.0000
  S   S80       1.0  0.93701  0.38720  0.17762  1.0000
  H   H447      1.0  0.91169  0.10196  0.27236  1.0000
  H   H448      1.0  0.77205  0.07886  0.16045  1.0000
  H   H449      1.0  0.76252  0.07689  0.26413  1.0000
  H   H450      1.0  0.77725  0.10218  0.13695  1.0000
  H   H451      1.0  0.73852  0.03577  0.29077  1.0000
  C   C255      1.0  0.78209  0.17816  0.30572  1.0000
  C   C256      1.0  0.82348  0.20826  0.29907  1.0000
  H   H452      1.0  0.83112  0.02449  0.25416  1.0000
  H   H453      1.0  0.82101  0.12673  0.28256  1.0000
  C   C257      1.0  0.89080  0.06770  0.26800  1.0000
  H   H454      1.0  0.83225  0.20657  0.28448  1.0000
  H   H455      1.0  0.91007  0.06014  0.25779  1.0000
  C   C258      1.0  0.80277  0.29096  0.20227  1.0000
  C   C259      1.0  0.83845  0.28507  0.20516  1.0000
  C   C260      1.0  0.87932  0.31514  0.19761  1.0000
  C   C261      1.0  0.88501  0.35144  0.18720  1.0000
  C   C262      1.0  0.84942  0.35764  0.18454  1.0000
  C   C263      1.0  0.80849  0.32753  0.19210  1.0000
  H   H456      1.0  0.83449  0.25714  0.21299  1.0000
  H   H457      1.0  0.90681  0.31030  0.19980  1.0000
  H   H458      1.0  0.85340  0.38547  0.17657  1.0000
  H   H459      1.0  0.78108  0.33247  0.18989  1.0000
  C   C264      1.0  0.51991  0.03614  0.23338  1.0000
  H   H460      1.0  0.82628  0.25508  0.14007  1.0000
  C   C265      1.0  0.87970  0.06602  0.19362  1.0000
  C   C266      1.0  0.87695  0.09720  0.20500  1.0000
  C   C267      1.0  0.83714  0.09649  0.20750  1.0000
  C   C268      1.0  0.79929  0.06401  0.19890  1.0000
  C   C269      1.0  0.80213  0.03322  0.18729  1.0000
  C   C270      1.0  0.84209  0.03429  0.18457  1.0000
  H   H461      1.0  0.90593  0.12206  0.21195  1.0000
  H   H462      1.0  0.83586  0.12109  0.21604  1.0000
  Fe  Fe41      1.0  0.95742  0.03647  0.17126  1.0000
  N   N19       1.0  0.78698  0.29919  0.27648  1.0000
  C   C271      1.0  0.73783  0.27658  0.27682  1.0000
  C   C272      1.0  0.80312  0.34338  0.26772  1.0000
  C   C273      1.0  0.80255  0.30371  0.29686  1.0000
  C   C274      1.0  0.79962  0.27138  0.26492  1.0000
  C   C275      1.0  0.71467  0.23538  0.28937  1.0000
  C   C276      1.0  0.79117  0.34350  0.24661  1.0000
  C   C277      1.0  0.85021  0.33797  0.30113  1.0000
  C   C278      1.0  0.84828  0.29005  0.26047  1.0000
  H   H463      1.0  0.72647  0.29895  0.28194  1.0000
  H   H464      1.0  0.72411  0.26659  0.26220  1.0000
  H   H465      1.0  0.83896  0.36373  0.26846  1.0000
  H   H466      1.0  0.79078  0.36187  0.27594  1.0000
  H   H467      1.0  0.78289  0.31254  0.30632  1.0000
  H   H468      1.0  0.79742  0.27211  0.30232  1.0000
  H   H469      1.0  0.78885  0.23985  0.27213  1.0000
  H   H470      1.0  0.78172  0.26143  0.25113  1.0000
  H   H471      1.0  0.89582  0.14829  0.25432  1.0000
  H   H472      1.0  0.75214  0.21218  0.14625  1.0000
  C   C279      1.0  0.75117  0.01764  0.25031  1.0000
  H   H473      1.0  0.75563  0.32572  0.24407  1.0000
  H   H474      1.0  0.80349  0.37750  0.24189  1.0000
  H   H475      1.0  0.80698  0.33006  0.23740  1.0000
  H   H476      1.0  0.88401  0.04611  0.28048  1.0000
  H   H477      1.0  0.89082  0.21191  0.16717  1.0000
  H   H478      1.0  0.83663  0.17374  0.13883  1.0000
  H   H479      1.0  0.86457  0.28154  0.27178  1.0000
  H   H480      1.0  0.86622  0.32546  0.25808  1.0000
  H   H481      1.0  0.85152  0.27601  0.24685  1.0000
  H   H482      1.0  0.75020  0.23969  0.16736  1.0000
  H   H483      1.0  0.87105  0.25365  0.15134  1.0000
  N   N20       1.0  0.81955  0.07084  0.26944  1.0000
  H   H484      1.0  0.86261  0.24518  0.12632  1.0000
  H   H485      1.0  0.83077  0.13883  0.16887  1.0000
  S   S81       1.0  0.96685  0.05249  0.13989  1.0000
  H   H486      1.0  0.84744  0.15093  0.24895  1.0000
  H   H487      1.0  0.79429  0.08413  0.24376  1.0000
  C   C280      1.0  0.84856  0.05948  0.25805  1.0000
  H   H488      1.0  0.88390  0.18451  0.26706  1.0000
  H   H489      1.0  0.48872  0.04765  0.25724  1.0000
  H   H490      1.0  0.72554  0.21170  0.28637  1.0000
  C   C281      1.0  0.76884  0.04521  0.29882  1.0000
  H   H491      1.0  0.88604  0.26305  0.30629  1.0000
  C   C282      1.0  0.84566  0.23838  0.14028  1.0000
  H   H492      1.0  0.83078  0.04923  0.29661  1.0000
  H   H493      1.0  0.79165  0.17843  0.13118  1.0000
  H   H494      1.0  0.86726  0.12197  0.28756  1.0000
  H   H495      1.0  0.85758  0.07699  0.24421  1.0000
  H   H496      1.0  0.84363  0.01003  0.17581  1.0000
  C   C283      1.0  0.86895  0.15171  0.26052  1.0000
  H   H497      1.0  0.72508  0.06527  0.14673  1.0000
  H   H498      1.0  0.75977  0.02257  0.31109  1.0000
  C   C284      1.0  0.85398  0.23998  0.31149  1.0000
  H   H499      1.0  0.53989  0.01659  0.20811  1.0000
  C   C285      1.0  0.51256  0.01167  0.21675  1.0000
  H   H500      1.0  0.71565  0.18237  0.16561  1.0000
  H   H501      1.0  0.80693  0.15017  0.18874  1.0000
  H   H502      1.0  0.86725  0.23066  0.18533  1.0000
  N   N21       1.0  0.79525  0.17232  0.16188  1.0000
  C   C286      1.0  0.75352  0.12976  0.15922  1.0000
  C   C287      1.0  0.78405  0.20326  0.17168  1.0000
  C   C288      1.0  0.82390  0.16368  0.17495  1.0000
  C   C289      1.0  0.81652  0.18870  0.14268  1.0000
  C   C290      1.0  0.75799  0.09241  0.15029  1.0000
  C   C291      1.0  0.74849  0.20947  0.16195  1.0000
  C   C292      1.0  0.86885  0.20247  0.17968  1.0000
  H   H503      1.0  0.88410  0.19245  0.19094  1.0000
  H   H504      1.0  0.73623  0.11779  0.17309  1.0000
  H   H505      1.0  0.73070  0.13388  0.14974  1.0000
  H   H506      1.0  0.81294  0.23593  0.17317  1.0000
  S   S82       1.0  0.94950  0.45992  0.13064  1.0000
  H   H507      1.0  0.77316  0.00810  0.18044  1.0000
  H   H508      1.0  0.72466  0.01720  0.24171  1.0000
  C   C293      1.0  0.48360  0.02906  0.24434  1.0000
  H   H509      1.0  0.67916  0.21874  0.28652  1.0000
  C   C294      1.0  0.80343  0.04186  0.28673  1.0000
  H   H510      1.0  0.85549  0.37142  0.30000  1.0000
  H   H511      1.0  0.73541  0.99491  0.26232  1.0000
  H   H512      1.0  0.78136  0.07817  0.30486  1.0000
  H   H513      1.0  0.78252  0.47704  0.10379  1.0000
  H   H514      1.0  0.71908  0.24338  0.30479  1.0000
  H   H515      1.0  0.76761  0.00544  0.24075  1.0000
  C   C295      1.0  0.48544  0.47196  0.07075  1.0000
  Fe  Fe42      1.0  0.96219  0.45127  0.16149  1.0000
  H   H516      1.0  0.85768  0.33391  0.31613  1.0000
  H   H517      1.0  0.79009  0.00721  0.28271  1.0000
  H   H518      1.0  0.83470  0.16031  0.43967  1.0000
  H   H519      1.0  0.49748  0.16502  0.60672  1.0000
  H   H520      1.0  0.49225  0.23958  0.58504  1.0000
  Fe  Fe43      1.0  0.55063  0.04654  0.46258  1.0000
  S   S83       1.0  0.61151  0.07625  0.44399  1.0000
  S   S84       1.0  0.54196  0.05035  0.49423  1.0000
  Fe  Fe44      1.0  0.87568  0.29134  0.37740  1.0000
  S   S85       1.0  0.85096  0.33576  0.38709  1.0000
  S   S86       1.0  0.88277  0.28306  0.34555  1.0000
  Fe  Fe45      1.0  0.89594  0.27434  0.41772  1.0000
  S   S87       1.0  0.87276  0.31780  0.42976  1.0000
  S   S88       1.0  0.91571  0.24504  0.44218  1.0000
  Fe  Fe46      1.0  0.81648  0.28507  0.40976  1.0000
  S   S89       1.0  0.75108  0.27022  0.42208  1.0000
  Fe  Fe47      1.0  0.90945  0.36574  0.40646  1.0000
  S   S90       1.0  0.94668  0.43612  0.41776  1.0000
  S   S91       1.0  0.83694  0.23843  0.39886  1.0000
  S   S92       1.0  0.93668  0.32435  0.39562  1.0000
  H   H521      1.0  0.52483  0.11469  0.40400  1.0000
  N   N22       1.0  0.82239  0.43393  0.42046  1.0000
  H   H522      1.0  0.73504  0.14830  0.47855  1.0000
  H   H523      1.0  0.58258  0.13883  0.40370  1.0000
  H   H524      1.0  0.71171  0.39558  0.42921  1.0000
  C   C296      1.0  0.64651  0.13062  0.43698  1.0000
  C   C297      1.0  0.67619  0.13852  0.42216  1.0000
  C   C298      1.0  0.70768  0.18112  0.41720  1.0000
  C   C299      1.0  0.70989  0.21634  0.42706  1.0000
  C   C300      1.0  0.67913  0.20856  0.44139  1.0000
  C   C301      1.0  0.64758  0.16582  0.44640  1.0000
  H   H525      1.0  0.67536  0.11147  0.41471  1.0000
  H   H526      1.0  0.73065  0.18676  0.40590  1.0000
  H   H527      1.0  0.68034  0.23565  0.44897  1.0000
  H   H528      1.0  0.62491  0.16014  0.45784  1.0000
  C   C302      1.0  0.95566  0.14005  0.44191  1.0000
  C   C303      1.0  0.94608  0.15376  0.45900  1.0000
  C   C304      1.0  0.93412  0.18611  0.45879  1.0000
  C   C305      1.0  0.93042  0.20415  0.44151  1.0000
  C   C306      1.0  0.93912  0.18979  0.42442  1.0000
  H   H529      1.0  0.58195  0.07309  0.40506  1.0000
  H   H530      1.0  0.72479  0.08122  0.48660  1.0000
  C   C307      1.0  0.74146  0.13356  0.46586  1.0000
  H   H531      1.0  0.93663  0.20355  0.41104  1.0000
  C   C308      1.0  0.86522  0.45153  0.38878  1.0000
  C   C309      1.0  0.78875  0.23196  0.46617  1.0000
  H   H532      1.0  0.52081  0.20397  0.53088  1.0000
  H   H533      1.0  0.79372  0.21258  0.35207  1.0000
  N   N23       1.0  0.78852  0.15981  0.45998  1.0000
  H   H534      1.0  0.77489  0.15295  0.41844  1.0000
  C   C310      1.0  0.81841  0.16974  0.47688  1.0000
  C   C311      1.0  0.78237  0.43259  0.42849  1.0000
  H   H535      1.0  0.79562  0.26220  0.45861  1.0000
  C   C312      1.0  0.53051  0.02781  0.37412  1.0000
  H   H536      1.0  0.73986  0.06988  0.46364  1.0000
  H   H537      1.0  0.79800  0.10276  0.48659  1.0000
  H   H538      1.0  0.58447  0.04397  0.35478  1.0000
  C   C313      1.0  0.82775  0.13379  0.48354  1.0000
  H   H539      1.0  0.51581  0.99393  0.36868  1.0000
  H   H540      1.0  0.84888  0.40477  0.45475  1.0000
  Fe  Fe48      1.0  0.97231  0.05553  0.46395  1.0000
  C   C314      1.0  0.79594  0.20261  0.45216  1.0000
  H   H541      1.0  0.75455  0.21671  0.47107  1.0000
  C   C315      1.0  0.80215  0.21161  0.33734  1.0000
  C   C316      1.0  0.77178  0.17969  0.32494  1.0000
  H   H542      1.0  0.50904  0.13810  0.51333  1.0000
  C   C317      1.0  0.95223  0.15831  0.42467  1.0000
  H   H543      1.0  0.53970  0.06515  0.42060  1.0000
  H   H544      1.0  0.87860  0.43013  0.39229  1.0000
  H   H545      1.0  0.73574  0.36188  0.42866  1.0000
  H   H546      1.0  0.85436  0.39558  0.42024  1.0000
  H   H547      1.0  0.80051  0.10885  0.44941  1.0000
  S   S93       1.0  0.96209  0.05339  0.49557  1.0000
  H   H548      1.0  0.77442  0.19761  0.43989  1.0000
  H   H549      1.0  0.59546  0.08627  0.37127  1.0000
  H   H550      1.0  0.51815  0.23908  0.60642  1.0000
  H   H551      1.0  0.74009  0.15603  0.33030  1.0000
  H   H552      1.0  0.85090  0.19851  0.47382  1.0000
  C   C318      1.0  0.82172  0.43739  0.39902  1.0000
  H   H553      1.0  0.59754  0.03900  0.37882  1.0000
  C   C319      1.0  0.80059  0.13842  0.44440  1.0000
  H   H554      1.0  0.84681  0.14438  0.49697  1.0000
  H   H555      1.0  0.68897  0.06646  0.46643  1.0000
  H   H556      1.0  0.79771  0.40564  0.39265  1.0000
  H   H557      1.0  0.51375  0.18608  0.57468  1.0000
  H   H558      1.0  0.73686  0.10234  0.42998  1.0000
  C   C320      1.0  0.82359  0.39317  0.42529  1.0000
  C   C321      1.0  0.48848  0.18044  0.52616  1.0000
  H   H559      1.0  0.78987  0.37752  0.45329  1.0000
  C   C322      1.0  0.77150  0.12467  0.42651  1.0000
  H   H560      1.0  0.84821  0.12853  0.47312  1.0000
  C   C323      1.0  0.73877  0.39240  0.42296  1.0000
  H   H561      1.0  0.82945  0.22217  0.44646  1.0000
  H   H562      1.0  0.55216  0.11328  0.38247  1.0000
  H   H563      1.0  0.81123  0.24198  0.47850  1.0000
  H   H564      1.0  0.89223  0.47253  0.42504  1.0000
  H   H565      1.0  0.79766  0.36462  0.41759  1.0000
  H   H566      1.0  0.73384  0.38956  0.40731  1.0000
  H   H567      1.0  0.78390  0.43491  0.44432  1.0000
  H   H568      1.0  0.51754  0.04394  0.36467  1.0000
  C   C324      1.0  0.72357  0.08535  0.47096  1.0000
  C   C325      1.0  0.54859  0.06824  0.40524  1.0000
  H   H569      1.0  0.92778  0.19731  0.47209  1.0000
  H   H570      1.0  0.94879  0.14014  0.47237  1.0000
  H   H571      1.0  0.81797  0.34923  0.44803  1.0000
  H   H572      1.0  0.71973  0.13501  0.45482  1.0000
  H   H573      1.0  0.58194  0.01331  0.41231  1.0000
  H   H574      1.0  0.78199  0.10703  0.41673  1.0000
  C   C326      1.0  0.57978  0.05053  0.36983  1.0000
  H   H575      1.0  0.80559  0.17876  0.48950  1.0000
  C   C327      1.0  0.55195  0.11098  0.39822  1.0000
  C   C328      1.0  0.81981  0.38123  0.44663  1.0000
  C   C329      1.0  0.84347  0.24190  0.33067  1.0000
  H   H576      1.0  0.96831  0.46945  0.37836  1.0000
  H   H577      1.0  0.81032  0.46007  0.39450  1.0000
  C   C330      1.0  0.86175  0.47216  0.42904  1.0000
  H   H578      1.0  0.95989  0.14812  0.41139  1.0000
  H   H579      1.0  0.86123  0.46942  0.44484  1.0000
  H   H580      1.0  0.85994  0.44956  0.37313  1.0000
  H   H581      1.0  0.50250  0.22265  0.63798  1.0000
  S   S94       1.0  0.97575  0.10330  0.44139  1.0000
  H   H582      1.0  0.78047  0.46154  0.42378  1.0000
  C   C331      1.0  0.48281  0.47017  0.56980  1.0000
  H   H583      1.0  0.88979  0.48565  0.39206  1.0000
  C   C332      1.0  0.48191  0.14311  0.51621  1.0000
  N   N24       1.0  0.51714  0.02778  0.39458  1.0000
  H   H584      1.0  0.48582  0.16536  0.63806  1.0000
  S   S95       1.0  0.48712  0.04283  0.45570  1.0000
  C   C333      1.0  0.51250  0.98882  0.40529  1.0000
  H   H585      1.0  0.50358  0.30101  0.60332  1.0000
  C   C334      1.0  0.48649  0.23329  0.60064  1.0000
  H   H586      1.0  0.50134  0.98875  0.42015  1.0000
  H   H587      1.0  0.48437  0.44434  0.57721  1.0000
  C   C335      1.0  0.53381  0.02895  0.73440  1.0000
  C   C336      1.0  0.89936  0.40516  0.86254  1.0000
  C   C337      1.0  0.88152  0.12497  0.83533  1.0000
  H   H588      1.0  0.93148  0.06823  0.84685  1.0000
  H   H589      1.0  0.67866  0.45586  0.86782  1.0000
  C   C338      1.0  0.92011  0.05031  0.87647  1.0000
  H   H590      1.0  0.88424  0.07063  0.82349  1.0000
  C   C339      1.0  0.92640  0.32841  0.90406  1.0000
  Fe  Fe49      1.0  0.93294  0.00198  0.80355  1.0000
  S   S96       1.0  0.87008  0.00342  0.79752  1.0000
  H   H591      1.0  0.88343  0.31465  0.83455  1.0000
  H   H592      1.0  0.86660  0.00117  0.83849  1.0000
  H   H593      1.0  0.49968  0.36290  0.78927  1.0000
  H   H594      1.0  0.58556  0.45427  0.86597  1.0000
  H   H595      1.0  0.58051  0.42082  0.91612  1.0000
  C   C340      1.0  0.52719  0.00327  0.68452  1.0000
  H   H596      1.0  0.62106  0.41828  0.93089  1.0000
  N   N25       1.0  0.92615  0.35045  0.86875  1.0000
  H   H597      1.0  0.84215  0.26534  0.84447  1.0000
  H   H598      1.0  0.88187  0.13663  0.82060  1.0000
  H   H599      1.0  0.93451  0.29499  0.83941  1.0000
  C   C341      1.0  0.88193  0.31055  0.86669  1.0000
  H   H600      1.0  0.56632  0.45159  0.88994  1.0000
  H   H601      1.0  0.59320  0.42183  0.88263  1.0000
  H   H602      1.0  0.87350  0.09729  0.89406  1.0000
  C   C342      1.0  0.86073  0.30104  0.84667  1.0000
  H   H603      1.0  0.96092  0.31476  0.87188  1.0000
  C   C343      1.0  0.93077  0.38850  0.85729  1.0000
  H   H604      1.0  0.89209  0.30184  0.90442  1.0000
  H   H605      1.0  0.83796  0.11297  0.88377  1.0000
  C   C344      1.0  0.91281  0.07180  0.85881  1.0000
  H   H606      1.0  0.91118  0.37563  0.89421  1.0000
  C   C345      1.0  0.86496  0.07594  0.83463  1.0000
  H   H607      1.0  0.85843  0.31320  0.87636  1.0000
  H   H608      1.0  0.88314  0.28120  0.87141  1.0000
  H   H609      1.0  0.82812  0.03363  0.87893  1.0000
  H   H610      1.0  0.85944  0.13220  0.84375  1.0000
  C   C346      1.0  0.93346  0.36398  0.88947  1.0000
  H   H611      1.0  0.95427  0.07056  0.88137  1.0000
  H   H612      1.0  0.83630  0.31187  0.84581  1.0000
  N   N26       1.0  0.86603  0.05461  0.85307  1.0000
  H   H613      1.0  0.56729  0.05487  0.73443  1.0000
  H   H614      1.0  0.69964  0.42569  0.87958  1.0000
  C   C347      1.0  0.48207  0.30345  0.77390  1.0000
  C   C348      1.0  0.69665  0.45529  0.88064  1.0000
  C   C349      1.0  0.50011  0.03930  0.73321  1.0000
  H   H615      1.0  0.91015  0.42535  0.87564  1.0000
  H   H616      1.0  0.88936  0.13108  0.87300  1.0000
  H   H617      1.0  0.86541  0.37858  0.86433  1.0000
  H   H618      1.0  0.94788  0.31458  0.90172  1.0000
  H   H619      1.0  0.83139  0.06140  0.82893  1.0000
  H   H620      1.0  0.69312  0.45281  0.91135  1.0000
  H   H621      1.0  0.80945  0.05804  0.86204  1.0000
  C   C350      1.0  0.64017  0.48433  0.92116  1.0000
  H   H622      1.0  0.93417  0.34313  0.91852  1.0000
  C   C351      1.0  0.59302  0.45268  0.88125  1.0000
  H   H623      1.0  0.58884  0.43970  0.94011  1.0000
  C   C352      1.0  0.83942  0.06050  0.86834  1.0000
  H   H624      1.0  0.92988  0.10707  0.86164  1.0000
  C   C353      1.0  0.60569  0.43791  0.92709  1.0000
  H   H625      1.0  0.91516  0.14373  0.84070  1.0000
  H   H626      1.0  0.92697  0.38170  0.84183  1.0000
  C   C354      1.0  0.86220  0.10298  0.88015  1.0000
  C   C355      1.0  0.84669  0.00667  0.84914  1.0000
  H   H627      1.0  0.89971  0.42674  0.85099  1.0000
  H   H628      1.0  0.91593  0.01802  0.87291  1.0000
  H   H629      1.0  0.51264  0.00707  0.67119  1.0000
  H   H630      1.0  0.89858  0.04710  0.88851  1.0000
  H   H631      1.0  0.50792  0.07282  0.73238  1.0000
  H   H632      1.0  0.55292  0.03620  0.68894  1.0000
  H   H633      1.0  0.64314  0.42113  0.89960  1.0000
  H   H634      1.0  0.96429  0.41644  0.85859  1.0000
  C   C356      1.0  0.67285  0.45347  0.89933  1.0000
  H   H635      1.0  0.51053  0.30218  0.77848  1.0000
  H   H636      1.0  0.96692  0.39183  0.89164  1.0000
  S   S97       1.0  0.93957  0.99174  0.83467  1.0000
  C   C357      1.0  0.96191  0.34129  0.86315  1.0000
  H   H637      1.0  0.73024  0.48323  0.88033  1.0000
  C   C358      1.0  0.96241  0.32770  0.84238  1.0000
  H   H638      1.0  0.50257  0.99131  0.69600  1.0000
  H   H639      1.0  0.79744  0.99046  0.82662  1.0000
  H   H640      1.0  0.77702  0.98824  0.85063  1.0000
  H   H641      1.0  0.96434  0.35187  0.83190  1.0000
  H   H642      1.0  0.78761  0.99796  0.79134  1.0000
  H   H643      1.0  0.84681  0.98899  0.86220  1.0000
  H   H644      1.0  0.57348  0.99137  0.67062  1.0000
  C   C359      1.0  0.86285  0.60628  0.00896  1.0000
  S   S98       1.0  0.91826  0.93756  0.11159  1.0000
  H   H645      1.0  0.90634  0.66942  0.03674  1.0000
  H   H646      1.0  0.81297  0.52968  0.06654  1.0000
  N   N27       1.0  0.97259  0.84177  0.13736  1.0000
  H   H647      1.0  0.95456  0.82251  0.09718  1.0000
  Fe  Fe50      1.0  0.75254  0.64880  0.04931  1.0000
  S   S99       1.0  0.70082  0.58018  0.05585  1.0000
  S   S100      1.0  0.79154  0.67631  0.02190  1.0000
  Fe  Fe51      1.0  0.75374  0.68102  0.09013  1.0000
  S   S101      1.0  0.70230  0.61399  0.09965  1.0000
  S   S102      1.0  0.77989  0.73378  0.11333  1.0000
  Fe  Fe52      1.0  0.73988  0.58972  0.08278  1.0000
  S   S103      1.0  0.75335  0.53614  0.09237  1.0000
  Fe  Fe53      1.0  0.66652  0.60929  0.07229  1.0000
  S   S104      1.0  0.59455  0.59387  0.07206  1.0000
  S   S105      1.0  0.79328  0.65639  0.07526  1.0000
  S   S106      1.0  0.71629  0.67813  0.06377  1.0000
  C   C360      1.0  0.53978  0.54906  0.07302  1.0000
  H   H648      1.0  0.90852  0.82124  0.12600  1.0000
  C   C361      1.0  0.88013  0.55710  0.12041  1.0000
  C   C362      1.0  0.87400  0.59263  0.11670  1.0000
  C   C363      1.0  0.83518  0.58668  0.10846  1.0000
  C   C364      1.0  0.80194  0.54502  0.10373  1.0000
  H   H649      1.0  0.89945  0.62501  0.12034  1.0000
  H   H650      1.0  0.83096  0.61435  0.10581  1.0000
  C   C365      1.0  0.49528  0.54554  0.99594  1.0000
  C   C366      1.0  0.87935  0.88102  0.11241  1.0000
  C   C367      1.0  0.86939  0.85637  0.09554  1.0000
  C   C368      1.0  0.83906  0.81143  0.09550  1.0000
  C   C369      1.0  0.81793  0.79052  0.11235  1.0000
  C   C370      1.0  0.82758  0.81523  0.12920  1.0000
  C   C371      1.0  0.85819  0.86011  0.12927  1.0000
  H   H651      1.0  0.88534  0.87217  0.08239  1.0000
  H   H652      1.0  0.83200  0.79303  0.08241  1.0000
  H   H653      1.0  0.81150  0.79952  0.14233  1.0000
  H   H654      1.0  0.86522  0.87859  0.14233  1.0000
  C   C372      1.0  0.78878  0.64937  0.00020  1.0000
  C   C373      1.0  0.50533  0.55757  0.07584  1.0000
  H   H655      1.0  0.73037  0.59000  0.00697  1.0000
  H   H656      1.0  0.63091  0.59603  0.13585  1.0000
  C   C374      1.0  0.67259  0.68579  0.13671  1.0000
  C   C375      1.0  0.70111  0.73266  0.14397  1.0000
  H   H657      1.0  0.69258  0.67878  0.12668  1.0000
  H   H658      1.0  0.66753  0.66407  0.14905  1.0000
  H   H659      1.0  0.73004  0.73516  0.15131  1.0000
  H   H660      1.0  0.71373  0.75627  0.13203  1.0000
  H   H661      1.0  0.68381  0.74215  0.15434  1.0000
  H   H662      1.0  0.58836  0.56456  0.11941  1.0000
  S   S107      1.0  0.94138  0.96683  0.16721  1.0000
  H   H663      1.0  0.69246  0.71227  0.10047  1.0000
  C   C376      1.0  0.63487  0.71044  0.11418  1.0000
  H   H664      1.0  0.81831  0.50688  0.04506  1.0000
  H   H665      1.0  0.64463  0.74171  0.12156  1.0000
  C   C377      1.0  0.88246  0.66003  0.04851  1.0000
  H   H666      1.0  0.92045  0.83542  0.18089  1.0000
  H   H667      1.0  0.55520  0.49837  0.06851  1.0000
  S   S108      1.0  0.96698  0.51411  0.17128  1.0000
  H   H668      1.0  0.51266  0.59072  0.07779  1.0000
  H   H669      1.0  0.95751  0.80430  0.16349  1.0000
  H   H670      1.0  0.89358  0.62187  0.00066  1.0000
  H   H671      1.0  0.85112  0.48775  0.11846  1.0000
  H   H672      1.0  0.63527  0.63610  0.10606  1.0000
  C   C378      1.0  0.80801  0.50942  0.10740  1.0000
  H   H673      1.0  0.60312  0.70190  0.10757  1.0000
  H   H674      1.0  0.64780  0.69892  0.08470  1.0000
  H   H675      1.0  0.53311  0.65493  0.15090  1.0000
  H   H676      1.0  0.80205  0.60113  0.03271  1.0000
  H   H677      1.0  0.75341  0.50264  0.03862  1.0000
  H   H678      1.0  0.85686  0.63264  0.01337  1.0000
  H   H679      1.0  0.48989  0.58502  0.03777  1.0000
  H   H680      1.0  0.93003  0.87445  0.16297  1.0000
  H   H681      1.0  0.54854  0.67785  0.12770  1.0000
  H   H682      1.0  0.89336  0.81715  0.15853  1.0000
  C   C379      1.0  0.93170  0.80900  0.12719  1.0000
  H   H683      1.0  0.95194  0.77432  0.10735  1.0000
  H   H684      1.0  0.53574  0.62246  0.13221  1.0000
  C   C380      1.0  0.93654  0.79490  0.10697  1.0000
  C   C381      1.0  0.86998  0.61494  0.05646  1.0000
  C   C382      1.0  0.55174  0.65594  0.13799  1.0000
  N   N28       1.0  0.84327  0.57650  0.04370  1.0000
  N   N29       1.0  0.62968  0.67557  0.12793  1.0000
  H   H685      1.0  0.59912  0.65108  0.15543  1.0000
  S   S109      1.0  0.93006  0.56723  0.13077  1.0000
  C   C383      1.0  0.92439  0.84117  0.16527  1.0000
  C   C384      1.0  0.87571  0.53577  0.06218  1.0000
  C   C385      1.0  0.60132  0.59312  0.12908  1.0000
  H   H686      1.0  0.58203  0.62667  0.10898  1.0000
  C   C386      1.0  0.79952  0.57281  0.04039  1.0000
  C   C387      1.0  0.84690  0.51538  0.11568  1.0000
  H   H687      1.0  0.88849  0.55642  0.07511  1.0000
  H   H688      1.0  0.86626  0.50231  0.06682  1.0000
  C   C388      1.0  0.75566  0.60698  0.99651  1.0000
  H   H689      1.0  0.51005  0.55461  0.01032  1.0000
  H   H690      1.0  0.68222  0.75384  0.09319  1.0000
  H   H691      1.0  0.90235  0.59281  0.02827  1.0000
  C   C389      1.0  0.76622  0.53199  0.02949  1.0000
  H   H692      1.0  0.89856  0.68447  0.05998  1.0000
  C   C390      1.0  0.61173  0.63356  0.11712  1.0000
  C   C391      1.0  0.66592  0.71899  0.09722  1.0000
  H   H693      1.0  0.57610  0.58597  0.14000  1.0000
  C   C392      1.0  0.59948  0.67247  0.14374  1.0000
  H   H694      1.0  0.61130  0.70475  0.15050  1.0000
  H   H695      1.0  0.77980  0.52693  0.01616  1.0000
  H   H696      1.0  0.73788  0.53565  0.02559  1.0000
  C   C393      1.0  0.52940  0.50580  0.07064  1.0000
  C   C394      1.0  0.86709  0.57950  0.02540  1.0000
  H   H697      1.0  0.78430  0.57289  0.05426  1.0000
  C   C395      1.0  0.83524  0.53609  0.05430  1.0000
  H   H698      1.0  0.85511  0.54643  0.01940  1.0000
  H   H699      1.0  0.90357  0.77464  0.10077  1.0000
  H   H700      1.0  0.90151  0.61727  0.06019  1.0000
  H   H701      1.0  0.85266  0.61101  0.07021  1.0000
  H   H702      1.0  0.85404  0.66264  0.04392  1.0000
  H   H703      1.0  0.91431  0.77828  0.13554  1.0000
  H   H704      1.0  0.83737  0.58481  0.99866  1.0000
  H   H705      1.0  0.95640  0.89257  0.13385  1.0000
  H   H706      1.0  0.90173  0.54580  0.05137  1.0000
  C   C396      1.0  0.96335  0.83658  0.15851  1.0000
  Fe  Fe54      1.0  0.95898  0.52504  0.14006  1.0000
  H   H707      1.0  0.49607  0.51635  0.99090  1.0000
  H   H708      1.0  0.97179  0.89352  0.10176  1.0000
  Fe  Fe55      1.0  0.95536  0.98394  0.13621  1.0000
  H   H709      1.0  0.84669  0.70417  0.98900  1.0000
  C   C397      1.0  0.63452  0.82404  0.64475  1.0000
  H   H710      1.0  0.63724  0.73061  0.64119  1.0000
  H   H711      1.0  0.78232  0.91439  0.59639  1.0000
  C   C398      1.0  0.61202  0.83429  0.46892  1.0000
  H   H712      1.0  0.62474  0.76510  0.47662  1.0000
  Fe  Fe56      1.0  0.56126  0.67067  0.56408  1.0000
  S   S110      1.0  0.63040  0.71788  0.57260  1.0000
  S   S111      1.0  0.53615  0.60175  0.57647  1.0000
  Fe  Fe57      1.0  0.55366  0.74500  0.54493  1.0000
  S   S112      1.0  0.62139  0.79646  0.55257  1.0000
  H   H713      1.0  0.82521  0.90929  0.61719  1.0000
  Fe  Fe58      1.0  0.64013  0.74768  0.54356  1.0000
  S   S113      1.0  0.70074  0.76534  0.52605  1.0000
  Fe  Fe59      1.0  0.60694  0.76353  0.58116  1.0000
  S   S114      1.0  0.64018  0.80339  0.60758  1.0000
  S   S115      1.0  0.57303  0.69710  0.53409  1.0000
  S   S116      1.0  0.53705  0.71537  0.57444  1.0000
  H   H714      1.0  0.72585  0.81670  0.56483  1.0000
  N   N30       1.0  0.63836  0.84642  0.48705  1.0000
  H   H715      1.0  0.64445  0.91909  0.52259  1.0000
  S   S117      1.0  0.85422  0.95670  0.50788  1.0000
  C   C399      1.0  0.52792  0.89630  0.51831  1.0000
  C   C400      1.0  0.55018  0.88810  0.53286  1.0000
  C   C401      1.0  0.54567  0.84666  0.53514  1.0000
  H   H716      1.0  0.85277  0.51905  0.41112  1.0000
  H   H717      1.0  0.56277  0.84084  0.54649  1.0000
  H   H718      1.0  0.73654  0.85891  0.46905  1.0000
  H   H719      1.0  0.83306  0.86184  0.56844  1.0000
  H   H720      1.0  0.73506  0.86636  0.60281  1.0000
  H   H721      1.0  0.52653  0.52028  0.58921  1.0000
  H   H722      1.0  0.57079  0.91396  0.54253  1.0000
  Fe  Fe60      1.0  0.50999  0.97716  0.49346  1.0000
  C   C402      1.0  0.81146  0.90305  0.51201  1.0000
  C   C403      1.0  0.81413  0.86658  0.50661  1.0000
  C   C404      1.0  0.77976  0.82461  0.51086  1.0000
  C   C405      1.0  0.74252  0.81869  0.52057  1.0000
  C   C406      1.0  0.73965  0.85515  0.52578  1.0000
  C   C407      1.0  0.77393  0.89708  0.52149  1.0000
  H   H723      1.0  0.84278  0.87071  0.49928  1.0000
  H   H724      1.0  0.78221  0.79658  0.50670  1.0000
  H   H725      1.0  0.71133  0.85113  0.53330  1.0000
  H   H726      1.0  0.77162  0.92516  0.52568  1.0000
  H   H727      1.0  0.70644  0.87996  0.49503  1.0000
  C   C408      1.0  0.61158  0.80562  0.62780  1.0000
  C   C409      1.0  0.56663  0.78885  0.62743  1.0000
  C   C410      1.0  0.84024  0.92600  0.56906  1.0000
  H   H728      1.0  0.72569  0.91662  0.58014  1.0000
  H   H729      1.0  0.54879  0.77535  0.61435  1.0000
  C   C411      1.0  0.63112  0.88008  0.49698  1.0000
  C   C412      1.0  0.65710  0.89961  0.51551  1.0000
  C   C413      1.0  0.56252  0.81464  0.47158  1.0000
  H   H730      1.0  0.63839  0.90766  0.48723  1.0000
  H   H731      1.0  0.59642  0.86619  0.50104  1.0000
  Fe  Fe61      1.0  0.91835  0.98111  0.49172  1.0000
  H   H732      1.0  0.59665  0.80303  0.50900  1.0000
  H   H733      1.0  0.60166  0.64780  0.64645  1.0000
  H   H734      1.0  0.65328  0.87433  0.52581  1.0000
  H   H735      1.0  0.86415  0.90256  0.60266  1.0000
  H   H736      1.0  0.54561  0.79911  0.45807  1.0000
  H   H737      1.0  0.54905  0.78951  0.48287  1.0000
  H   H738      1.0  0.55421  0.84021  0.47488  1.0000
  H   H739      1.0  0.62328  0.86333  0.45957  1.0000
  C   C414      1.0  0.63083  0.70655  0.62980  1.0000
  H   H740      1.0  0.69567  0.89642  0.47279  1.0000
  C   C415      1.0  0.54472  0.78973  0.64401  1.0000
  H   H741      1.0  0.62603  0.74752  0.49999  1.0000
  C   C416      1.0  0.61252  0.76398  0.49117  1.0000
  H   H742      1.0  0.81185  0.82557  0.59804  1.0000
  S   S118      1.0  0.97250  0.96598  0.49632  1.0000
  H   H743      1.0  0.61684  0.81122  0.46012  1.0000
  C   C417      1.0  0.68598  0.86757  0.48208  1.0000
  S   S119      1.0  0.53434  0.94900  0.51648  1.0000
  C   C418      1.0  0.70133  0.83872  0.47236  1.0000
  H   H744      1.0  0.76232  0.76458  0.58464  1.0000
  C   C419      1.0  0.62518  0.80842  0.50033  1.0000
  H   H745      1.0  0.87294  0.93464  0.56352  1.0000
  H   H746      1.0  0.79460  0.86793  0.55485  1.0000
  C   C420      1.0  0.75429  0.77812  0.57206  1.0000
  H   H747      1.0  0.75107  0.90231  0.56166  1.0000
  C   C421      1.0  0.74155  0.81234  0.57772  1.0000
  H   H748      1.0  0.84542  0.94161  0.58315  1.0000
  H   H749      1.0  0.66935  0.83731  0.64514  1.0000
  H   H750      1.0  0.58929  0.64049  0.62184  1.0000
  H   H751      1.0  0.68453  0.82488  0.45869  1.0000
  H   H752      1.0  0.54078  0.97765  0.64333  1.0000
  H   H753      1.0  0.58263  0.94293  0.64804  1.0000
  H   H754      1.0  0.51786  0.92479  0.63224  1.0000
  C   C422      1.0  0.49617  0.82089  0.50841  1.0000
  H   H755      1.0  0.69845  0.81275  0.48207  1.0000
  H   H756      1.0  0.82779  0.94113  0.55884  1.0000
  H   H757      1.0  0.56055  0.97428  0.39278  1.0000
  C   C423      1.0  0.51068  0.94630  0.64116  1.0000
  H   H758      1.0  0.84509  0.87464  0.62465  1.0000
  H   H759      1.0  0.85241  0.52716  0.43638  1.0000
  S   S120      1.0  0.92558  0.98449  0.45973  1.0000
  H   H760      1.0  0.70069  0.86174  0.57247  1.0000
  H   H761      1.0  0.90233  0.54165  0.42381  1.0000
  H   H762      1.0  0.65150  0.81575  0.51078  1.0000
  C   C424      1.0  0.73265  0.89102  0.57514  1.0000
  H   H763      1.0  0.55839  0.70617  0.61636  1.0000
  N   N31       1.0  0.77809  0.85544  0.58467  1.0000
  H   H764      1.0  0.78119  0.79084  0.56155  1.0000
  C   C425      1.0  0.75800  0.88234  0.59072  1.0000
  C   C426      1.0  0.79783  0.84642  0.60188  1.0000
  C   C427      1.0  0.81122  0.87597  0.56889  1.0000
  H   H765      1.0  0.69203  0.92221  0.51266  1.0000
  C   C428      1.0  0.51838  0.81274  0.52300  1.0000
  C   C429      1.0  0.83504  0.88605  0.61191  1.0000
  C   C430      1.0  0.86713  0.51729  0.42484  1.0000
  H   H766      1.0  0.57669  0.74224  0.49152  1.0000
  H   H767      1.0  0.72604  0.75033  0.56509  1.0000
  S   S121      1.0  0.52130  0.97395  0.46219  1.0000
  H   H768      1.0  0.71531  0.79727  0.58865  1.0000
  H   H769      1.0  0.77224  0.82803  0.61279  1.0000
  C   C431      1.0  0.53491  0.67191  0.62014  1.0000
  C   C432      1.0  0.50694  0.51344  0.57650  1.0000
  C   C433      1.0  0.50114  0.86255  0.50596  1.0000
  H   H770      1.0  0.50988  0.77649  0.64365  1.0000
  H   H771      1.0  0.62639  0.71887  0.61599  1.0000
  C   C434      1.0  0.55295  0.68991  0.65365  1.0000
  S   S122      1.0  0.51156  0.76000  0.52542  1.0000
  H   H772      1.0  0.53601  0.65352  0.60754  1.0000
  C   C435      1.0  0.97998  0.49675  0.38800  1.0000
  C   C436      1.0  0.50662  0.54800  0.56672  1.0000
  H   H773      1.0  0.48726  0.95802  0.39879  1.0000
  H   H774      1.0  0.52735  0.57780  0.62048  1.0000
  H   H775      1.0  0.54637  0.95734  0.41683  1.0000
  C   C437      1.0  0.59205  0.66125  0.63425  1.0000
  C   C438      1.0  0.50041  0.57901  0.62792  1.0000
  H   H776      1.0  0.66064  0.70399  0.62835  1.0000
  H   H777      1.0  0.48887  0.95452  0.63303  1.0000
  H   H778      1.0  0.48798  0.61154  0.65107  1.0000
  C   C439      1.0  0.51688  0.61331  0.64399  1.0000
  N   N32       1.0  0.54916  0.65911  0.63803  1.0000
  C   C440      1.0  0.48989  0.66888  0.62095  1.0000
  H   H779      1.0  0.49312  0.70039  0.62530  1.0000
  H   H780      1.0  0.57334  0.72423  0.64907  1.0000
  C   C441      1.0  0.97382  0.48940  0.40764  1.0000
  H   H781      1.0  0.48368  0.86834  0.49477  1.0000
  C   C442      1.0  0.48139  0.53841  0.55019  1.0000
  C   C443      1.0  0.55317  0.98401  0.40668  1.0000
  H   H782      1.0  0.48054  0.58456  0.61728  1.0000
  H   H783      1.0  0.48051  0.56432  0.54247  1.0000
  Fe  Fe62      1.0  0.56663  0.82948  0.75224  1.0000
  S   S123      1.0  0.60575  0.82122  0.72936  1.0000
  C   C444      1.0  0.69722  0.52620  0.83360  1.0000
  Fe  Fe63      1.0  0.57885  0.91505  0.73512  1.0000
  S   S124      1.0  0.62108  0.91297  0.71138  1.0000
  H   H784      1.0  0.80730  0.91514  0.73941  1.0000
  Fe  Fe64      1.0  0.57102  0.84228  0.70909  1.0000
  S   S125      1.0  0.53843  0.80706  0.68157  1.0000
  Fe  Fe65      1.0  0.65304  0.89237  0.73373  1.0000
  S   S126      1.0  0.72399  0.90822  0.73375  1.0000
  S   S127      1.0  0.52717  0.84500  0.73174  1.0000
  S   S128      1.0  0.61537  0.89998  0.75766  1.0000
  S   S129      1.0  0.59932  0.55359  0.84127  1.0000
  S   S130      1.0  0.50109  0.55297  0.82535  1.0000
  H   H785      1.0  0.90769  0.68280  0.84473  1.0000
  C   C445      1.0  0.97405  0.84163  0.84963  1.0000
  S   S131      1.0  0.92594  0.88193  0.84009  1.0000
  H   H786      1.0  0.81783  0.67622  0.78452  1.0000
  Fe  Fe66      1.0  0.89903  0.66632  0.88951  1.0000
  S   S132      1.0  0.89377  0.61143  0.87145  1.0000
  H   H787      1.0  0.61070  0.95409  0.67074  1.0000
  Fe  Fe67      1.0  0.83000  0.60395  0.91789  1.0000
  S   S133      1.0  0.82012  0.54559  0.90118  1.0000
  S   S134      1.0  0.78293  0.58249  0.94309  1.0000
  Fe  Fe68      1.0  0.89292  0.57828  0.89891  1.0000
  S   S135      1.0  0.92871  0.54246  0.90865  1.0000
  Fe  Fe69      1.0  0.82171  0.58341  0.87529  1.0000
  S   S136      1.0  0.77684  0.55199  0.84998  1.0000
  S   S137      1.0  0.90290  0.63503  0.91704  1.0000
  S   S138      1.0  0.82678  0.63976  0.89184  1.0000
  C   C446      1.0  0.82100  0.67131  0.98629  1.0000
  C   C447      1.0  0.79364  0.65016  0.79371  1.0000
  C   C448      1.0  0.51086  0.66434  0.75682  1.0000
  S   S139      1.0  0.54463  0.78401  0.77787  1.0000
  C   C449      1.0  0.78679  0.60898  0.96507  1.0000
  C   C450      1.0  0.82018  0.65121  0.96884  1.0000
  Fe  Fe70      1.0  0.53805  0.51676  0.82316  1.0000
  H   H788      1.0  0.96577  0.49494  0.92580  1.0000
  H   H789      1.0  0.84500  0.66860  0.95823  1.0000
  H   H790      1.0  0.69132  0.57044  0.92348  1.0000
  S   S140      1.0  0.95688  0.95688  0.79431  1.0000
  C   C451      1.0  0.72850  0.55417  0.84678  1.0000
  C   C452      1.0  0.64942  0.55428  0.84209  1.0000
  C   C453      1.0  0.68133  0.58316  0.85481  1.0000
  C   C454      1.0  0.72054  0.58295  0.85724  1.0000
  H   H791      1.0  0.72287  0.53891  0.88920  1.0000
  H   H792      1.0  0.74417  0.60453  0.86746  1.0000
  C   C455      1.0  0.79941  0.98242  0.84173  1.0000
  C   C456      1.0  0.63679  0.49316  0.88611  1.0000
  H   H793      1.0  0.67516  0.60510  0.86318  1.0000
  C   C457      1.0  0.93520  0.84246  0.85153  1.0000
  C   C458      1.0  0.56759  0.80775  0.66102  1.0000
  H   H794      1.0  0.51325  0.64293  0.80386  1.0000
  C   C459      1.0  0.94450  0.77520  0.86895  1.0000
  C   C460      1.0  0.90599  0.77652  0.87112  1.0000
  C   C461      1.0  0.90129  0.80968  0.86233  1.0000
  C   C462      1.0  0.61265  0.82517  0.66130  1.0000
  H   H795      1.0  0.72809  0.52854  0.91342  1.0000
  H   H796      1.0  0.87997  0.75228  0.87975  1.0000
  H   H797      1.0  0.87131  0.81028  0.86410  1.0000
  H   H798      1.0  0.89136  0.72800  0.79349  1.0000
  H   H799      1.0  0.50380  0.64851  0.74306  1.0000
  H   H800      1.0  0.63061  0.83922  0.67431  1.0000
  C   C463      1.0  0.76428  0.93517  0.75158  1.0000
  H   H801      1.0  0.50898  0.91252  0.70653  1.0000
  H   H802      1.0  0.63328  0.50368  0.82148  1.0000
  H   H803      1.0  0.57169  0.70857  0.68308  1.0000
  H   H804      1.0  0.78751  0.94698  0.84202  1.0000
  H   H805      1.0  0.55061  0.65195  0.67901  1.0000
  H   H806      1.0  0.72964  0.96072  0.76706  1.0000
  C   C464      1.0  0.83542  0.95338  0.76480  1.0000
  C   C465      1.0  0.53115  0.72904  0.77568  1.0000
  C   C466      1.0  0.52349  0.70866  0.75793  1.0000
  C   C467      1.0  0.70582  0.53154  0.90313  1.0000
  C   C468      1.0  0.50684  0.64026  0.77335  1.0000
  C   C469      1.0  0.97861  0.80818  0.85829  1.0000
  C   C470      1.0  0.65763  0.52602  0.83133  1.0000
  N   N33       1.0  0.83733  0.68683  0.82468  1.0000
  C   C471      1.0  0.82798  0.68122  0.84579  1.0000
  C   C472      1.0  0.86311  0.66466  0.82006  1.0000
  C   C473      1.0  0.79410  0.66488  0.81442  1.0000
  C   C474      1.0  0.86219  0.73485  0.82050  1.0000
  C   C475      1.0  0.79784  0.69758  0.85349  1.0000
  C   C476      1.0  0.90887  0.68510  0.82901  1.0000
  C   C477      1.0  0.88001  0.74874  0.80014  1.0000
  H   H807      1.0  0.81304  0.64640  0.84980  1.0000
  H   H808      1.0  0.85839  0.69810  0.85421  1.0000
  H   H809      1.0  0.86799  0.66348  0.80454  1.0000
  H   H810      1.0  0.84472  0.62991  0.82455  1.0000
  H   H811      1.0  0.77033  0.63479  0.82211  1.0000
  H   H812      1.0  0.77936  0.68619  0.81427  1.0000
  H   H813      1.0  0.84153  0.74973  0.82310  1.0000
  H   H814      1.0  0.88965  0.75251  0.83064  1.0000
  H   H815      1.0  0.81215  0.73309  0.85172  1.0000
  H   H816      1.0  0.76499  0.68031  0.84701  1.0000
  H   H817      1.0  0.79335  0.69119  0.86905  1.0000
  S   S141      1.0  0.48767  0.58393  0.77121  1.0000
  C   C478      1.0  0.54163  0.90396  0.67237  1.0000
  H   H818      1.0  0.92988  0.71941  0.82467  1.0000
  H   H819      1.0  0.85555  0.75031  0.79080  1.0000
  H   H820      1.0  0.90932  0.78160  0.80073  1.0000
  N   N34       1.0  0.68709  0.81268  0.78618  1.0000
  C   C479      1.0  0.73497  0.83126  0.78220  1.0000
  C   C480      1.0  0.66250  0.77484  0.77277  1.0000
  C   C481      1.0  0.67743  0.79527  0.80625  1.0000
  C   C482      1.0  0.67318  0.84594  0.78237  1.0000
  C   C483      1.0  0.76704  0.86586  0.79613  1.0000
  C   C484      1.0  0.67419  0.78450  0.75147  1.0000
  C   C485      1.0  0.62881  0.76772  0.81125  1.0000
  C   C486      1.0  0.67549  0.87522  0.79911  1.0000
  H   H821      1.0  0.74321  0.80480  0.78191  1.0000
  H   H822      1.0  0.74363  0.84667  0.76784  1.0000
  H   H823      1.0  0.62679  0.76209  0.77378  1.0000
  H   H824      1.0  0.66735  0.74714  0.77672  1.0000
  H   H825      1.0  0.69239  0.77464  0.80902  1.0000
  H   H826      1.0  0.69223  0.82173  0.81694  1.0000
  H   H827      1.0  0.69230  0.86770  0.77049  1.0000
  H   H828      1.0  0.63899  0.83025  0.77721  1.0000
  H   H829      1.0  0.80067  0.87472  0.79191  1.0000
  H   H830      1.0  0.76570  0.89615  0.79513  1.0000
  H   H831      1.0  0.76291  0.85429  0.81104  1.0000
  H   H832      1.0  0.70541  0.78575  0.74820  1.0000
  H   H833      1.0  0.64862  0.75808  0.74271  1.0000
  H   H834      1.0  0.67638  0.81538  0.74697  1.0000
  H   H835      1.0  0.62482  0.76415  0.82696  1.0000
  H   H836      1.0  0.61485  0.73454  0.80521  1.0000
  H   H837      1.0  0.60981  0.78268  0.80603  1.0000
  H   H838      1.0  0.64980  0.85687  0.80982  1.0000
  H   H839      1.0  0.66938  0.90097  0.79352  1.0000
  H   H840      1.0  0.70740  0.89178  0.80625  1.0000
  H   H841      1.0  0.79849  0.62159  0.79325  1.0000
  C   C487      1.0  0.52730  0.70502  0.79220  1.0000
  H   H842      1.0  0.56633  0.97626  0.69473  1.0000
  H   H843      1.0  0.59664  0.90545  0.65810  1.0000
  S   S142      1.0  0.52727  0.50610  0.79136  1.0000
  H   H844      1.0  0.68484  0.58024  0.89859  1.0000
  C   C488      1.0  0.51593  0.66102  0.79105  1.0000
  H   H845      1.0  0.62417  0.50451  0.92156  1.0000
  C   C489      1.0  0.80274  0.93288  0.75085  1.0000
  Fe  Fe71      1.0  0.48678  0.53847  0.79437  1.0000
  H   H846      1.0  0.53291  0.72048  0.80599  1.0000
  H   H847      1.0  0.52616  0.72672  0.74510  1.0000
  C   C490      1.0  0.70385  0.57258  0.90881  1.0000
  C   C491      1.0  0.83025  0.97702  0.77949  1.0000
  C   C492      1.0  0.75889  0.95840  0.76640  1.0000
  H   H848      1.0  0.60520  0.69145  0.67138  1.0000
  S   S143      1.0  0.95171  0.73346  0.87942  1.0000
  H   H849      1.0  0.97700  0.62896  0.89154  1.0000
  Fe  Fe72      1.0  0.96603  0.94868  0.82567  1.0000
  C   C493      1.0  0.57124  0.68460  0.67275  1.0000
  H   H850      1.0  0.92500  0.66692  0.82405  1.0000
  C   C494      1.0  0.97444  0.49855  0.91085  1.0000
  C   C495      1.0  0.58519  0.92862  0.66161  1.0000
  H   H851      1.0  0.76107  0.63942  0.78744  1.0000
  N   N35       1.0  0.51705  0.92774  0.67638  1.0000
  H   H852      1.0  0.51632  0.57244  0.98612  1.0000
  H   H853      1.0  0.73736  0.60082  0.90879  1.0000
  C   C496      1.0  0.79187  0.97951  0.78015  1.0000
  H   H854      1.0  0.52066  0.68659  0.65683  1.0000
  H   H855      1.0  0.72862  0.55435  0.97623  1.0000
  H   H856      1.0  0.86478  0.95129  0.76406  1.0000
  C   C497      1.0  0.48104  0.95259  0.73550  1.0000
  H   H857      1.0  0.54980  0.89344  0.68595  1.0000
  S   S144      1.0  0.56899  0.97469  0.73597  1.0000
  C   C498      1.0  0.48857  0.90671  0.69358  1.0000
  H   H858      1.0  0.52098  0.87348  0.66428  1.0000
  C   C499      1.0  0.75467  0.58696  0.97903  1.0000
  C   C500      1.0  0.48806  0.92347  0.65986  1.0000
  N   N36       1.0  0.66285  0.48967  0.90229  1.0000
  C   C501      1.0  0.54798  0.97449  0.68154  1.0000
  C   C502      1.0  0.97153  0.52479  0.87947  1.0000
  H   H859      1.0  0.65616  0.50401  0.87281  1.0000
  C   C503      1.0  0.95968  0.52011  0.89871  1.0000
  H   H860      1.0  0.66427  0.49647  0.93308  1.0000
  H   H861      1.0  0.70320  0.50395  0.82537  1.0000
  H   H862      1.0  0.62887  0.51925  0.88892  1.0000
  C   C504      1.0  0.52467  0.98555  0.73545  1.0000
  H   H863      1.0  0.96043  0.54112  0.86991  1.0000
  H   H864      1.0  0.53116  0.60173  0.65509  1.0000
