data_image0
_chemical_formula_structural       HFeS2FeS2FeSFeS2FeS2FeS2HFeS3HFeS2FeHSFeS4CH5SHCH3CNCH2CSCHC4NH4CH2C6H4C6H4C6H5C6H2C5H2CH3NC8H23C2H3CH3CHNC4HC3H8SH2CNH4CH2CH3C3HNHCHCH2CH10CHCH8CH4CH2C2HCHNHC4HFeSH3CH4CH4CH2CHFeC3SH6CH3C3H2FeH7CH4CH2C2H2CH4CH4CH10C2HCH3SHFeS2HFeH3S2HSFeSCFe2S3FeS2FeS2FeSFeS3H3SH3FeCSCHNSHSHSFeS2C2HFeSHC6H3C6H4C6H7C4H3C6H4C6H4C2H3CSH3C4H2CH4CNHCHC6H3CHCH2CH2C2HCHC2H3FeH2CNC4HC3H8CH12SHNHCH4FeCH3SFeHSCH6CFeH4SH2C3H10C2HNH9C2H5CSH6FeH5CHCH3C2HCHC3H3CH2CSH6SNC7H11SH3NC8H8CHCH10CFeHNC4H4C2H3CS3H2CH2CHNSH2C2H5NH3FeHCHFeS2FeSFeSFeSHSFeS2FeS2FeHFeS3FeS2H3S2FeSHCSCFeS2FeH2FeS3HSFeSCFeSFeS2NCHCHCH2C7H3CH2CHC6H4CHCFeC7H4C6H4C6H4C6HCH2CH3Fe2HCHC3H7CH2SHCH5C2SC5H3CHCH4CHCH2SH3CH4FeHC2H2CH5CFeCHFeH2SC4H2CSHNH10SNHNC8H20NC7H17CH2CHCNC8H4SH20SCHC2HCSH2CHC3NC8H23CH4C2SCHCHC2H2CH4FeC2HNHNFeS2FeS2FeSFeS3H2CFeHSH3SFeSCFeS2FeSFeS3FeS2CSHS2H3C2H4CH2C7H6CH4C6H4C3H2CH4C6H2NHC6H4CH2CHCSH4CH4C2H6C2H4CH5CH2CH2FeSCNH2NH3C2H2C3HCH3C3H5CH3C2H2NCHC6H3CH9CH3CHCH3CHCH3NHC7H8C2H2CH8FeHCH3SCH4NCH6CH5C2NH6NHCH5C2NC8H4C2HCH2C2H4C2HC2HCH2CH2C2H3CH6CH2CHFeS2FeCH3FeHS2HFeSHFeSHFeSFeS3FeS2FeS2Fe2S3FeS2FeS2FeSFeS3C4HSCHC6H4C3H2C3NHC7H5C5SH3CNH2C6H4CH5SH2C2H3NH3C2NC8H20NC8H20NC3HFeHCH6CH2CH2CH7CH3SCH3C2HCHC2H3CHSHC3H2CHCHNC8H19CH4CH5C3H7CH3CHC2HSCHC2HCHCNC2HCHCH5CSFeSFeSHFe2S2FeS2FeS2FeSFeS3FeS2FeSFeSFeS3HNHSHSCH4CHC3SC2HCH2C3NH4C6H4C6H4C6H4CH2CHC6H9SHSH6CNC8H20CNC8H23CH4CH3CH2CH2CSFeCHSCH4NHCH2C3H2C2H5CHNSH3CH4C2H6CHC2HC7H6CHSHNC2SCH6CH2CHCSHCH2C2HCH2CH4CH3C3H2CH3CFeH6CHCH2C3FeH2NH3CH2CH2CFeS2FeS2FeSFeS3HCHSHFeS2FeSFeS2CSCSFe2SHFeS2FeS2FeSFeS3C3H3C6H4C6H4CHC4H3C6H4C3HC2HC2HC6H4C3HC2H6C6H2NSC2H4NH4CSHCH3C2H3CNH2C3H3C2HSHCNC8H29C3H3CHC2HCHNC8H12C2H13SHC4H3C2H2CH2C3HCH8CH7CSH2FeH2CH8C2H2CH2CNSH5NH2CH4CHSH2CH6CH8FeCH2SH2CH4CH2C2H4C2H3CH4FeS2HSFeCFeS2FeS2FeS2FeSFeS3FeS2Fe2HCS2HFeS2FeS2FeHFeCS2HC3H2CHNH4CHSH2NC5H6C6H4C6H4CSHC2H5C6H4NC8H21CHCFeH3NCHC2H3CH5CHCH3CHNC8H9CH4CH7CHCH2CH7C2HCH3C2H4SC3H2NH6SH3C2H3C6HNH3CSHCH3CH2CHCSCH2CH3CH7SH7C2HCH2FeCHNCH8CFeS2HSFeSFeS2HSFe2S2FeSHS2HFeSFeS2FeSFeS3FeS2FeS2FeSFeS3CFeSFeCFeS2C6H4C6H4C3H3CH2C2HC6H4CHC4HC2H4C6H8C3H2C6H4C6H5CH2C3NHC2H2CH3NC3HCH5CH5NC8H19NC8H4CH3CHC2HCH6NC2HC3H2C2H11CH5CHCHSH2CH5C2H2FeCHCH2CH6CHSH2C2H6CH3SH2NC8H20CHNHCH4CH3CHCHSHSHCHCFeHCH2C2HNH3C3H7CNHCH3C2H8CH5C3NFeS2FeS2FeSFeS4HS2H2C2HCHCFeHSH4FeS2FeSH2S2HSHFeS2H7C2HCH2SC2HFeHNCHC2H2C4HCH2C7H4C5H2C6H4C6HC2H2C2HC3H5CH4CNHSH7C3SH5CH13FeH3CH4CHCH2C2H2FeNHC2H4CHCH3C2FeHCH2CH3CHCHCH2CNC6HCH2CHC2H3CH4CH8CHC2HSHFeC2H3SHCHSHCHC2H2C2HCH4C2HNCSHC2HCH3SH2CHCH8CH7CH2CHCH2NHSH4CFeH3CHCH2C2SH2CHFeH3FeS2FeS2FeSFeS3FeCH2FeSHSH3C7H4C6H7C3H2C6H4CHCH3CHNCHCHSCHCHCH2SHCH3CH3CHFeCHCH2C4HCNSH4CH6FeH8CH5CHSH5CH2CH2C2NH2NHC2H4C2NH4NC3HCH8CH2CH3CH2SH2CHC3HCSHCH2CHC2H5CH2CH2NCSCH2C2NC2H2S2H3NCH8CH4C3SCH2SH2CH3CH2CH2CHCH3CHFeH2CH3C2H2CNH3FeSFeS2FeSFeS3CH2FeS2FeS2FeSFeS3CSHFeS2FeSFe2S3FeSHFeS2FeSFeS3HCSHC6H6CH2C6H4C6H5C3H3C6H6SC2SCH3C2H6C7H4C2H2C2H5CH2NC8H20NC8H20NC8H20NC8H17CHCFeH2C2SCNCHC3HSHSH2CH4C5H2CHCHCHC3H2NH2CH2FeSH2SH2CH3FeH2CHCH2CH2CHC3HCH2CH6NH3CH2C2H6C2H5CHSH5CH2CHCSFeH2FeS2FeSFeS2FeS2CHFeCFeS4FeSHFeS2FeSFeSFeS2FeS2FeSFeS2FeCSFeSCHCSFeS2FeS2C6H4C4HCH4C4H2C6H4SHC6H5CH2C6H4C4H2C6H4C5H5SH2CH8CHNHFeH2CH3NC4HC2H5FeH12NC4HCH7CH6CH3CHFeHCH3CH2NC8H22CH2CSH2CH6CH4SH2CH4SH3CH2C2HCNC8H12CH4C3HC2SCHNHFeH3S2HCHCHSH2CHC2H3CNH2SHC2HC2H2CSHC3HSCH5CHCH2NCFeS2FeS2Fe2S4CFeS2FeS2FeSFeS3C2SCS2C6H4CSC4H4C6H4C6H5C3H2C2H2CHC3H4C6H5SH2C2H3N3C8H22CH2CHC2H8C2FeH5C3HCSH2C2H3S2H4NHCFeC5H2CHCHCH3CHCH10C2H2CFeH5C2HC2H2CH6CH3CH2CH5CHC4HC2H5SC2HNH4CH5CH4CH13CHSNHC2H3CH5NHSHCFeH9C2HC3FeSFeS2FeNFeS3CHFeS2FeS2Fe2S3HFeS2HCHCFeSCSH2CHC4H4C8H3C6H4CSH2C6H8SC6H4C2HC3H2CSH2CH4SCH3C2H6FeH2C2H3C2H7CSCH3CH3CH7CH2CH2CHCH9CH4CNH6CHC2H5CH2C2H4NH2NSC2HCH5NCH5SH2NC8H13S2H3C2H4CH4C3H2C2H5CH4CH3CH3FeCH2CFeSFeS2H2SCSCFe2SHSCFeS2FeS2FeSFeS4FeSHSCFeS2FeSCFeSFeCS2CS3H3CHC6H3CNC2H7SC6H4C6H6C4H3C3HSH6CHC2H2C6H4C3SH4FeC7H5NC2H2FeCH4CH2CH2CH3CFeC2SHC2NHC5HCH6SH9CHFeH3CNC8H21CH5SC2HCHCHFeCH2CH5FeNC8H20NHC2HC3H2SH4FeH4SH7CH3CSH2NCHSC2NH6C4HCFeH2C2SC2H9CHCHCHCH2SH7FeS2FeS2FeSFeS2H2FeSC3FeS2FeS2FeSFeS3HFeS2FeS2FeSFeS3C8H4C2HC3H6C6H4C6H4C6H4C6H4C2HC3HSHC4H7NCH2CH6CSH2CH7NC8H11C3H4NC7H13C2H2CH2CNCHCH4SH2C2NC2NSHC2HSNH2CSH4CH5C2HCNH2C4H13CH6CHCH5C5H6C2H4CH6SCH4C2H3CH4CH5CHCH3CHC2HCH9CH4CHCH3CHFeSHCSFeSFeS2CHFeS2FeSFeSFeS3FeSFeCSH2FeS2CFeS2FeS2FeSFeS3H3C2HCH3C6H4C6H6C2H6C4H4C6H7NC2H2C3H2NCHCH4CH5CH4NHCH2C2HNH2CHCH5CHCH4CHCHNHSCH4CH4FeHFeCH5CSCHCH8C2H2CH8C2H3C2SH3CHC3HCH5C2HC3H4CHCH3CH2SHC2H2C2HCH3CHC2H2C2HCHNH2NHCFeS2Fe2HCS2HFeS2FeS2FeSFeS4HCHCH3FeS2FeS2FeSFeS2FeS2FeSFeHFeS3CH2CHC2H3C5H4C2HNSHC5H4C2H8C6H4C6H4C3HC3H3C6H4C3H3NC8H28CH10CH3CH3C2HCH3C2HCH5CH2C3H3CH7C3H3FeH2CH3SHC5H2SCH2C2H3CH3C2HNHC3H2C3HSH5CHCH6CH7NC4HC2H5NH2C3H4NSH3CHCH4NCNH2NH5C3H2C2H2C2H4SHCH3C2H4FeS2FeS2FeSFeS4HCH2SC2HSFe2SCFeSFeSFeS2FeS2FeS2FeSFeS3C7H5CH2SC6H6C5HC6H4C2HC3HNH2CH2C6H4C3HC2HCH13C4HC2HCHNHCH6NC6H5CH8C2H3CHCH5FeH4CH2NC4HC3H8CSH3CH6SNCH3C2H6CNH8CHC2H2CHCH2NC8H20CH5CH5SHC3H4C2HCH4CSHC3H7CH2CH3CFeCH4CH3CNHCH3CH6C2HCHS2HSHSCHFeH5FeS2FeS2FeHFeS3CH2C3SCHS2H2CH6C6H4C6H9CNSH2CH2CHFeC6H4C6H5NC3H9C2H3CH5SH2C5H3CH3C2HNC4HC3H18CH2CFeH3CHCHCNCH2CH2CHNCH3CSCH3FeC2H2CHNH6CH3C2FeHC2H2CFeCHCHCH4CHFeH8CS3CNH9CH7CHCHCH4CH2C2H4CNH3CNHCS2H2FeHCFeSH2CHCSH3SH3FeS2FeS2FeSFeS3FeSHFeSHFeSFeSFeS2FeSFeSFeS3FeS2FeS2FeCFeS3CH2FeS2C2HCHCHCHC6HCH4CH2C6H4C6H4C6H4C3H2C3HNH3CHC6H8C6H8C3H2SCH3C2H2FeCH5CHNC2HC4H3CH3SH3SH4NHC3HCHCHCH2SH5NH9NC7H9CH3CH3NC8H19C2H4NCH2CH3SHS2CHSH2CH2CHCH2SCHC2H2C2H4FeCHCH5CH6CHCHCH2CH8CH5C2HCHFeHCHCHCH2CH3CHSHFeS2FeS2FeSFeS3FeSHFeS2FeSFeS3FeSFeS2FeSFeS5C2FeSH2FeS2FeS2FeHFeS3HSHC3H2C6H2CHC6H4C2H2C2H3C3H2C6H4CH3C3H3CHCHC7H4CHCH2CH4C5H3N2C8H9CH11C2HCH6C2H3C2H5CH3CNCHCHC3H3CHC2H5C5FeHC2H13CHCNHCH2C2HC4HSFeC2SH2C2H2NH3CH2SCHNHCH2C2H5CH3FeH2CHC2H2SHC2NC8H20C3H2CHCH4CH5CHSH2CH6CH2NHSHNH9CH3CH2CH3CH5S3HCFeS2FeS2FeS2FeSFeS3H4CH2FeSCSH2SCFeSHCH5SFeS2H3C2HCHCHC6H4CH2C2H4C7H4C2HC3H3C6H4C7H4SC2H2CHN2HC2H2C3H6CH2CH7C2H3CH4CHCHSCSHC2H6NH3CHNC8H20CH5CHCNC2HCH2NHCSCH2CH2CHCH4CSH2SCH4C2H2C3NC8H26CHSCH6FeCHSH2FeHCHSFeSH4C2H4SFeCH4SCHSC
_chemical_formula_sum              "H4608 Fe384 S768 C2688 N192"
_cell_length_a       61.2143
_cell_length_b       61.5204
_cell_length_c       96.8973
_cell_angle_alpha    79.0893
_cell_angle_beta     79.0778
_cell_angle_gamma    79.5021

_space_group_name_H-M_alt    "P 1"
_space_group_IT_number       1

loop_
  _space_group_symop_operation_xyz
  'x, y, z'

loop_
  _atom_site_type_symbol
  _atom_site_label
  _atom_site_symmetry_multiplicity
  _atom_site_fract_x
  _atom_site_fract_y
  _atom_site_fract_z
  _atom_site_occupancy
  H   H1        1.0  0.31057  0.21348  0.17253  1.0000
  Fe  Fe1       1.0  0.30846  0.11553  0.17212  1.0000
  S   S1        1.0  0.29835  0.08713  0.18901  1.0000
  S   S2        1.0  0.28427  0.14401  0.16230  1.0000
  Fe  Fe2       1.0  0.35760  0.09508  0.16795  1.0000
  S   S3        1.0  0.35079  0.06464  0.18416  1.0000
  S   S4        1.0  0.39352  0.09689  0.15661  1.0000
  Fe  Fe3       1.0  0.32028  0.06478  0.17416  1.0000
  S   S5        1.0  0.30832  0.03229  0.17185  1.0000
  Fe  Fe4       1.0  0.32953  0.08939  0.19754  1.0000
  S   S6        1.0  0.32893  0.09325  0.15687  1.0000
  S   S7        1.0  0.33790  0.11977  0.18177  1.0000
  Fe  Fe5       1.0  0.17188  0.21173  0.19384  1.0000
  S   S8        1.0  0.13642  0.21923  0.20516  1.0000
  S   S9        1.0  0.19094  0.17679  0.19888  1.0000
  Fe  Fe6       1.0  0.17286  0.26053  0.18060  1.0000
  S   S10       1.0  0.13772  0.27178  0.19119  1.0000
  S   S11       1.0  0.19590  0.28123  0.16439  1.0000
  H   H2        1.0  0.40238  0.21377  0.14044  1.0000
  Fe  Fe7       1.0  0.12934  0.24119  0.18464  1.0000
  S   S12       1.0  0.09742  0.24554  0.17463  1.0000
  S   S13       1.0  0.18370  0.23990  0.20061  1.0000
  S   S14       1.0  0.16407  0.23139  0.17288  1.0000
  H   H3        1.0  0.37147  0.11088  0.20413  1.0000
  Fe  Fe8       1.0  0.04131  0.18022  0.13018  1.0000
  S   S15       1.0  0.02256  0.21444  0.12420  1.0000
  S   S16       1.0  0.06738  0.17376  0.14504  1.0000
  Fe  Fe9       1.0  0.01785  0.15918  0.11085  1.0000
  H   H4        1.0  0.40565  0.24207  0.13938  1.0000
  S   S17       1.0  0.00907  0.12604  0.10759  1.0000
  Fe  Fe10      1.0  0.03063  0.20639  0.10199  1.0000
  S   S18       1.0  0.04872  0.22929  0.08414  1.0000
  S   S19       1.0  0.48797  0.21854  0.13690  1.0000
  S   S20       1.0  0.05078  0.17248  0.10783  1.0000
  S   S21       1.0  0.01065  0.16324  0.13397  1.0000
  C   C1        1.0  0.41239  0.28173  0.99569  1.0000
  H   H5        1.0  0.30580  0.04773  0.14128  1.0000
  H   H6        1.0  0.38479  0.21337  0.11395  1.0000
  H   H7        1.0  0.44086  0.18609  0.12161  1.0000
  H   H8        1.0  0.45597  0.21585  0.10221  1.0000
  H   H9        1.0  0.23276  0.24511  0.16192  1.0000
  S   S22       1.0  0.44128  0.18235  0.15129  1.0000
  H   H10       1.0  0.38256  0.19796  0.09499  1.0000
  C   C2        1.0  0.00829  0.18445  0.16740  1.0000
  H   H11       1.0  0.41147  0.18754  0.12768  1.0000
  H   H12       1.0  0.99897  0.99320  0.06679  1.0000
  H   H13       1.0  0.00182  0.20278  0.19972  1.0000
  C   C3        1.0  0.19378  0.31039  0.16358  1.0000
  N   N1        1.0  0.08313  0.25915  0.11416  1.0000
  C   C4        1.0  0.37976  0.15733  0.19727  1.0000
  H   H14       1.0  0.49038  0.27459  0.07376  1.0000
  H   H15       1.0  0.41675  0.08179  0.19441  1.0000
  C   C5        1.0  0.38979  0.10969  0.19979  1.0000
  S   S23       1.0  0.99714  0.99597  0.03663  1.0000
  C   C6        1.0  0.03056  0.30534  0.08125  1.0000
  H   H16       1.0  0.10647  0.20846  0.10169  1.0000
  C   C7        1.0  0.05661  0.27243  0.07530  1.0000
  C   C8        1.0  0.04144  0.25846  0.08331  1.0000
  C   C9        1.0  0.02098  0.26795  0.09051  1.0000
  C   C10       1.0  0.01548  0.29136  0.08936  1.0000
  N   N2        1.0  0.99662  0.19728  0.17920  1.0000
  H   H17       1.0  0.07252  0.26514  0.06976  1.0000
  H   H18       1.0  0.00919  0.25728  0.09671  1.0000
  H   H19       1.0  0.01092  0.29866  0.02693  1.0000
  H   H20       1.0  0.12975  0.25292  0.11421  1.0000
  C   C11       1.0  0.44636  0.29868  0.09587  1.0000
  H   H21       1.0  0.04090  0.18558  0.19922  1.0000
  H   H22       1.0  0.12143  0.27784  0.12255  1.0000
  C   C12       1.0  0.07561  0.19413  0.15299  1.0000
  C   C13       1.0  0.06237  0.21503  0.15405  1.0000
  C   C14       1.0  0.06918  0.23045  0.16083  1.0000
  C   C15       1.0  0.08939  0.22529  0.16650  1.0000
  C   C16       1.0  0.10260  0.20440  0.16545  1.0000
  C   C17       1.0  0.09565  0.18888  0.15882  1.0000
  H   H23       1.0  0.04677  0.21920  0.14981  1.0000
  H   H24       1.0  0.05877  0.24650  0.16171  1.0000
  H   H25       1.0  0.11813  0.20014  0.16983  1.0000
  H   H26       1.0  0.10591  0.17269  0.15819  1.0000
  C   C18       1.0  0.25809  0.15238  0.17246  1.0000
  C   C19       1.0  0.25301  0.14352  0.18686  1.0000
  C   C20       1.0  0.23217  0.15094  0.19478  1.0000
  C   C21       1.0  0.21653  0.16757  0.18844  1.0000
  C   C22       1.0  0.22147  0.17620  0.17397  1.0000
  C   C23       1.0  0.24211  0.16839  0.16597  1.0000
  H   H27       1.0  0.26516  0.13111  0.19195  1.0000
  H   H28       1.0  0.22832  0.14408  0.20595  1.0000
  H   H29       1.0  0.20931  0.18874  0.16896  1.0000
  H   H30       1.0  0.24579  0.17489  0.15474  1.0000
  C   C24       1.0  0.40635  0.12107  0.15467  1.0000
  C   C25       1.0  0.42933  0.12021  0.14895  1.0000
  C   C26       1.0  0.44027  0.13892  0.14770  1.0000
  C   C27       1.0  0.42824  0.15864  0.15217  1.0000
  C   C28       1.0  0.40518  0.15968  0.15758  1.0000
  C   C29       1.0  0.39427  0.14097  0.15887  1.0000
  H   H31       1.0  0.43878  0.10489  0.14565  1.0000
  H   H32       1.0  0.45804  0.13798  0.14347  1.0000
  H   H33       1.0  0.39573  0.17498  0.16089  1.0000
  H   H34       1.0  0.37653  0.14193  0.16313  1.0000
  H   H35       1.0  0.43727  0.28951  0.97774  1.0000
  C   C30       1.0  0.46187  0.29585  0.08350  1.0000
  C   C31       1.0  0.02868  0.04522  0.03938  1.0000
  C   C32       1.0  0.47855  0.27682  0.08340  1.0000
  C   C33       1.0  0.46462  0.26370  0.10809  1.0000
  C   C34       1.0  0.44777  0.28255  0.10814  1.0000
  C   C35       1.0  0.03423  0.19016  0.18899  1.0000
  H   H36       1.0  0.48755  0.30106  0.10512  1.0000
  H   H37       1.0  0.43586  0.28475  0.11775  1.0000
  C   C36       1.0  0.28695  0.99993  0.13781  1.0000
  C   C37       1.0  0.29374  0.02130  0.13417  1.0000
  C   C38       1.0  0.30062  0.03136  0.14430  1.0000
  C   C39       1.0  0.30064  0.02027  0.15833  1.0000
  C   C40       1.0  0.29393  0.99889  0.16194  1.0000
  H   H38       1.0  0.29362  0.03017  0.12341  1.0000
  H   H39       1.0  0.00821  0.13598  0.05585  1.0000
  C   C41       1.0  0.99682  0.22195  0.17389  1.0000
  H   H40       1.0  0.25186  0.20165  0.17994  1.0000
  H   H41       1.0  0.39337  0.23758  0.10270  1.0000
  H   H42       1.0  0.42458  0.23824  0.08030  1.0000
  N   N3        1.0  0.24225  0.08899  0.15882  1.0000
  C   C42       1.0  0.24812  0.10974  0.14864  1.0000
  C   C43       1.0  0.21777  0.09413  0.16521  1.0000
  C   C44       1.0  0.24532  0.07030  0.15021  1.0000
  C   C45       1.0  0.25777  0.08344  0.16979  1.0000
  C   C46       1.0  0.27191  0.10777  0.13970  1.0000
  C   C47       1.0  0.21181  0.11385  0.17373  1.0000
  C   C48       1.0  0.24009  0.04733  0.15837  1.0000
  C   C49       1.0  0.24978  0.06879  0.18410  1.0000
  H   H43       1.0  0.23588  0.11543  0.14103  1.0000
  H   H44       1.0  0.24695  0.12394  0.15448  1.0000
  H   H45       1.0  0.21151  0.07953  0.17235  1.0000
  H   H46       1.0  0.20703  0.09805  0.15669  1.0000
  H   H47       1.0  0.23488  0.07521  0.14153  1.0000
  H   H48       1.0  0.26305  0.06691  0.14488  1.0000
  H   H49       1.0  0.27456  0.07494  0.16527  1.0000
  H   H50       1.0  0.26101  0.09919  0.17261  1.0000
  H   H51       1.0  0.27534  0.12479  0.13448  1.0000
  H   H52       1.0  0.28519  0.10072  0.14632  1.0000
  H   H53       1.0  0.27334  0.09781  0.13106  1.0000
  H   H54       1.0  0.22313  0.11258  0.18160  1.0000
  H   H55       1.0  0.21197  0.13025  0.16661  1.0000
  H   H56       1.0  0.19442  0.11397  0.17973  1.0000
  H   H57       1.0  0.24226  0.03562  0.15059  1.0000
  H   H58       1.0  0.22256  0.04788  0.16404  1.0000
  H   H59       1.0  0.25228  0.03980  0.16573  1.0000
  H   H60       1.0  0.26421  0.05617  0.18723  1.0000
  H   H61       1.0  0.23619  0.05925  0.18409  1.0000
  H   H62       1.0  0.24471  0.07910  0.19277  1.0000
  H   H63       1.0  0.41104  0.20009  0.08678  1.0000
  H   H64       1.0  0.37468  0.17502  0.19899  1.0000
  H   H65       1.0  0.25875  0.20890  0.15662  1.0000
  C   C50       1.0  0.01135  0.15862  0.17124  1.0000
  C   C51       1.0  0.40268  0.22988  0.13307  1.0000
  H   H66       1.0  0.43274  0.25355  0.09206  1.0000
  H   H67       1.0  0.29383  0.99010  0.17273  1.0000
  H   H68       1.0  0.42780  0.15430  0.11711  1.0000
  C   C52       1.0  0.44016  0.21641  0.09791  1.0000
  H   H69       1.0  0.04924  0.99850  0.07909  1.0000
  H   H70       1.0  0.28720  0.20072  0.17179  1.0000
  H   H71       1.0  0.01774  0.30418  0.05447  1.0000
  C   C53       1.0  0.99317  0.10721  0.06706  1.0000
  H   H72       1.0  0.06187  0.30110  0.01154  1.0000
  N   N4        1.0  0.04610  0.04131  0.06227  1.0000
  C   C54       1.0  0.04569  0.03203  0.04895  1.0000
  C   C55       1.0  0.06586  0.02790  0.06883  1.0000
  C   C56       1.0  0.04981  0.06541  0.05777  1.0000
  C   C57       1.0  0.02381  0.03973  0.07198  1.0000
  H   H73       1.0  0.02697  0.03484  0.03153  1.0000
  C   C58       1.0  0.06549  0.00243  0.07276  1.0000
  C   C59       1.0  0.05207  0.07811  0.06955  1.0000
  C   C60       1.0  0.02340  0.03910  0.08809  1.0000
  H   H74       1.0  0.06260  0.03076  0.04215  1.0000
  H   H75       1.0  0.04156  0.01467  0.05165  1.0000
  H   H76       1.0  0.06775  0.03374  0.07859  1.0000
  H   H77       1.0  0.08190  0.03027  0.06143  1.0000
  H   H78       1.0  0.06514  0.06659  0.04952  1.0000
  H   H79       1.0  0.03558  0.07562  0.05272  1.0000
  H   H80       1.0  0.01085  0.05386  0.06847  1.0000
  H   H81       1.0  0.01749  0.02420  0.07119  1.0000
  S   S24       1.0  0.33236  0.08276  0.22122  1.0000
  H   H82       1.0  0.28740  0.24705  0.17131  1.0000
  H   H83       1.0  0.01435  0.22535  0.16999  1.0000
  C   C61       1.0  0.00259  0.11966  0.09182  1.0000
  N   N5        1.0  0.25441  0.23703  0.17801  1.0000
  H   H84       1.0  0.40357  0.28703  0.00583  1.0000
  H   H85       1.0  0.05547  0.09524  0.06458  1.0000
  H   H86       1.0  0.06622  0.07024  0.07532  1.0000
  H   H87       1.0  0.03609  0.08053  0.07706  1.0000
  C   C62       1.0  0.47999  0.26071  0.09569  1.0000
  H   H88       1.0  0.03652  0.04693  0.09082  1.0000
  H   H89       1.0  0.04980  0.27121  0.13837  1.0000
  C   C63       1.0  0.39843  0.08495  0.19829  1.0000
  H   H90       1.0  0.23101  0.22071  0.20723  1.0000
  H   H91       1.0  0.10594  0.21379  0.11924  1.0000
  H   H92       1.0  0.47774  0.05392  0.10442  1.0000
  C   C64       1.0  0.09443  0.24335  0.10387  1.0000
  C   C65       1.0  0.42180  0.22875  0.12014  1.0000
  C   C66       1.0  0.10046  0.28991  0.09496  1.0000
  H   H93       1.0  0.36052  0.00635  0.11783  1.0000
  N   N6        1.0  0.42073  0.21327  0.10994  1.0000
  H   H94       1.0  0.38594  0.23605  0.12982  1.0000
  C   C67       1.0  0.09518  0.25629  0.12675  1.0000
  H   H95       1.0  0.11156  0.24674  0.09890  1.0000
  C   C68       1.0  0.29329  0.21109  0.17797  1.0000
  H   H96       1.0  0.46085  0.30820  0.07398  1.0000
  H   H97       1.0  0.42039  0.26404  0.99826  1.0000
  C   C69       1.0  0.42310  0.17040  0.11013  1.0000
  H   H98       1.0  0.28060  0.23788  0.18993  1.0000
  H   H99       1.0  0.07884  0.99471  0.07929  1.0000
  H   H100      1.0  0.40299  0.15355  0.21208  1.0000
  H   H101      1.0  0.44426  0.20255  0.09162  1.0000
  H   H102      1.0  0.00319  0.28446  0.05039  1.0000
  H   H103      1.0  0.25693  0.25882  0.15748  1.0000
  H   H104      1.0  0.06878  0.28517  0.03963  1.0000
  H   H105      1.0  0.42154  0.24629  0.11463  1.0000
  H   H106      1.0  0.42722  0.14706  0.18572  1.0000
  H   H107      1.0  0.47101  0.30549  0.97523  1.0000
  C   C70       1.0  0.43308  0.12881  0.18768  1.0000
  H   H108      1.0  0.02722  0.26341  0.13214  1.0000
  C   C71       1.0  0.00843  0.19084  0.19205  1.0000
  H   H109      1.0  0.43798  0.22418  0.12447  1.0000
  H   H110      1.0  0.43503  0.17009  0.10003  1.0000
  H   H111      1.0  0.42708  0.12035  0.18030  1.0000
  H   H112      1.0  0.04287  0.17734  0.18232  1.0000
  H   H113      1.0  0.02653  0.15136  0.16433  1.0000
  H   H114      1.0  0.43453  0.12722  0.20967  1.0000
  H   H115      1.0  0.00699  0.04822  0.09259  1.0000
  H   H116      1.0  0.48116  0.00947  0.11179  1.0000
  C   C72       1.0  0.25104  0.24273  0.16263  1.0000
  H   H117      1.0  0.99937  0.29867  0.09466  1.0000
  H   H118      1.0  0.31521  0.00210  0.08726  1.0000
  H   H119      1.0  0.34557  0.00068  0.09927  1.0000
  H   H120      1.0  0.23912  0.19246  0.20441  1.0000
  C   C73       1.0  0.12002  0.25982  0.12364  1.0000
  H   H121      1.0  0.22594  0.21890  0.18318  1.0000
  H   H122      1.0  0.38922  0.22317  0.08378  1.0000
  C   C74       1.0  0.04353  0.26987  0.12861  1.0000
  C   C75       1.0  0.05974  0.25348  0.11969  1.0000
  H   H123      1.0  0.24246  0.28669  0.16913  1.0000
  C   C76       1.0  0.02626  0.29737  0.03182  1.0000
  H   H124      1.0  0.03975  0.28676  0.12231  1.0000
  N   N7        1.0  0.40157  0.11973  0.20886  1.0000
  H   H125      1.0  0.26681  0.27952  0.17825  1.0000
  C   C77       1.0  0.08084  0.28314  0.10661  1.0000
  C   C78       1.0  0.05131  0.29578  0.07444  1.0000
  C   C79       1.0  0.27898  0.23438  0.17932  1.0000
  C   C80       1.0  0.24384  0.20951  0.20105  1.0000
  H   H126      1.0  0.26055  0.20896  0.20401  1.0000
  Fe  Fe11      1.0  0.47723  0.18455  0.14033  1.0000
  S   S25       1.0  0.99842  0.19264  0.10333  1.0000
  H   H127      1.0  0.09412  0.23969  0.13358  1.0000
  H   H128      1.0  0.11691  0.28598  0.09868  1.0000
  H   H129      1.0  0.01179  0.04931  0.04558  1.0000
  C   C81       1.0  0.24165  0.25619  0.18542  1.0000
  H   H130      1.0  0.03181  0.27635  0.05226  1.0000
  H   H131      1.0  0.08663  0.26825  0.13407  1.0000
  H   H132      1.0  0.22329  0.25779  0.18531  1.0000
  H   H133      1.0  0.36420  0.15101  0.19652  1.0000
  C   C82       1.0  0.43724  0.23827  0.08707  1.0000
  H   H134      1.0  0.39119  0.15739  0.18700  1.0000
  H   H135      1.0  0.40572  0.17030  0.10845  1.0000
  H   H136      1.0  0.39078  0.11907  0.18877  1.0000
  H   H137      1.0  0.12848  0.25044  0.13267  1.0000
  C   C83       1.0  0.39807  0.21902  0.10512  1.0000
  H   H138      1.0  0.06047  0.23676  0.12647  1.0000
  H   H139      1.0  0.45348  0.23972  0.07980  1.0000
  C   C84       1.0  0.26319  0.22586  0.15279  1.0000
  H   H140      1.0  0.01598  0.14715  0.07760  1.0000
  Fe  Fe12      1.0  0.14794  0.24877  0.21081  1.0000
  C   C85       1.0  0.39543  0.20938  0.09197  1.0000
  C   C86       1.0  0.42423  0.18967  0.11794  1.0000
  C   C87       1.0  0.42645  0.11855  0.20336  1.0000
  S   S26       1.0  0.27833  0.98819  0.12450  1.0000
  H   H141      1.0  0.25790  0.23143  0.14217  1.0000
  H   H142      1.0  0.03905  0.20669  0.18395  1.0000
  H   H143      1.0  0.00485  0.17434  0.19822  1.0000
  H   H144      1.0  0.08501  0.24593  0.09477  1.0000
  H   H145      1.0  0.23998  0.29132  0.18688  1.0000
  H   H146      1.0  0.08016  0.21215  0.11303  1.0000
  C   C88       1.0  0.99231  0.10064  0.09272  1.0000
  H   H147      1.0  0.05127  0.25225  0.11073  1.0000
  H   H148      1.0  0.06313  0.30638  0.06837  1.0000
  H   H149      1.0  0.03787  0.28263  0.02819  1.0000
  C   C89       1.0  0.24845  0.27956  0.17941  1.0000
  C   C90       1.0  0.39077  0.14370  0.20994  1.0000
  C   C91       1.0  0.09673  0.21812  0.11004  1.0000
  H   H150      1.0  0.46560  0.25151  0.11761  1.0000
  H   H151      1.0  0.02345  0.30664  0.00282  1.0000
  Fe  Fe13      1.0  0.99251  0.19707  0.12633  1.0000
  H   H152      1.0  0.45173  0.12656  0.18495  1.0000
  H   H153      1.0  0.37695  0.14434  0.21917  1.0000
  H   H154      1.0  0.43504  0.10089  0.20472  1.0000
  H   H155      1.0  0.06580  0.28720  0.10113  1.0000
  H   H156      1.0  0.24357  0.25307  0.19684  1.0000
  H   H157      1.0  0.02489  0.18961  0.16256  1.0000
  H   H158      1.0  0.39387  0.07354  0.20836  1.0000
  C   C92       1.0  0.24380  0.21649  0.18489  1.0000
  H   H159      1.0  0.03444  0.06085  0.03322  1.0000
  H   H160      1.0  0.29540  0.20133  0.18864  1.0000
  H   H161      1.0  0.28170  0.22535  0.15111  1.0000
  H   H162      1.0  0.33160  0.13145  0.21694  1.0000
  C   C93       1.0  0.32271  0.98501  0.09178  1.0000
  H   H163      1.0  0.06917  0.99415  0.06316  1.0000
  H   H164      1.0  0.99869  0.18866  0.15835  1.0000
  C   C94       1.0  0.28723  0.98875  0.15179  1.0000
  C   C95       1.0  0.07398  0.30199  0.03647  1.0000
  H   H165      1.0  0.32300  0.99276  0.11249  1.0000
  H   H166      1.0  0.39008  0.08049  0.19022  1.0000
  C   C96       1.0  0.01964  0.29068  0.04811  1.0000
  H   H167      1.0  0.44491  0.29141  0.99425  1.0000
  H   H168      1.0  0.48728  0.07539  0.12434  1.0000
  H   H169      1.0  0.01447  0.15222  0.18224  1.0000
  H   H170      1.0  0.17125  0.31225  0.18343  1.0000
  C   C97       1.0  0.00798  0.13254  0.07847  1.0000
  H   H171      1.0  0.10136  0.28203  0.08541  1.0000
  H   H172      1.0  0.09730  0.30833  0.09141  1.0000
  H   H173      1.0  0.21621  0.31409  0.14353  1.0000
  H   H174      1.0  0.41559  0.31004  0.01835  1.0000
  C   C98       1.0  0.43075  0.29598  0.98800  1.0000
  H   H175      1.0  0.47989  0.98543  0.99692  1.0000
  H   H176      1.0  0.02385  0.02167  0.09388  1.0000
  H   H177      1.0  0.07781  0.29498  0.11441  1.0000
  H   H178      1.0  0.48232  0.02276  0.09389  1.0000
  H   H179      1.0  0.99647  0.15200  0.16964  1.0000
  H   H180      1.0  0.08364  0.30431  0.04456  1.0000
  H   H181      1.0  0.04728  0.31430  0.99013  1.0000
  H   H182      1.0  0.08582  0.30279  0.02625  1.0000
  H   H183      1.0  0.39995  0.28178  0.98869  1.0000
  H   H184      1.0  0.16364  0.31077  0.13482  1.0000
  C   C99       1.0  0.00355  0.12616  0.06616  1.0000
  C   C100      1.0  0.33567  0.98673  0.10364  1.0000
  H   H185      1.0  0.48187  0.30974  0.12192  1.0000
  C   C101      1.0  0.37187  0.99009  0.11926  1.0000
  H   H186      1.0  0.37972  0.98976  0.12876  1.0000
  H   H187      1.0  0.38552  0.98934  0.10997  1.0000
  H   H188      1.0  0.99074  0.22528  0.15176  1.0000
  S   S27       1.0  0.49032  0.17835  0.11789  1.0000
  H   H189      1.0  0.48885  0.03939  0.11987  1.0000
  Fe  Fe14      1.0  0.09404  0.04249  0.41865  1.0000
  S   S28       1.0  0.11307  0.02956  0.43694  1.0000
  S   S29       1.0  0.09121  0.07890  0.40852  1.0000
  H   H190      1.0  0.35321  0.01177  0.35317  1.0000
  Fe  Fe15      1.0  0.08639  0.00765  0.44527  1.0000
  H   H191      1.0  0.00082  0.26908  0.39939  1.0000
  H   H192      1.0  0.06404  0.26445  0.36713  1.0000
  H   H193      1.0  0.15639  0.01108  0.45258  1.0000
  S   S30       1.0  0.06574  0.02290  0.42799  1.0000
  S   S31       1.0  0.11343  0.01693  0.40533  1.0000
  H   H194      1.0  0.38130  0.01195  0.35539  1.0000
  S   S32       1.0  0.41651  0.00578  0.44464  1.0000
  Fe  Fe16      1.0  0.46278  0.03984  0.42337  1.0000
  S   S33       1.0  0.42664  0.05535  0.42800  1.0000
  C   C102      1.0  0.22581  0.29775  0.33933  1.0000
  Fe  Fe17      1.0  0.42735  0.03573  0.45011  1.0000
  Fe  Fe18      1.0  0.41900  0.02411  0.42213  1.0000
  S   S34       1.0  0.39424  0.03000  0.40649  1.0000
  S   S35       1.0  0.46428  0.02286  0.44593  1.0000
  S   S36       1.0  0.45535  0.00974  0.41614  1.0000
  Fe  Fe19      1.0  0.37182  0.14969  0.30968  1.0000
  S   S37       1.0  0.33879  0.15767  0.32375  1.0000
  S   S38       1.0  0.40528  0.14398  0.31826  1.0000
  Fe  Fe20      1.0  0.34818  0.14609  0.28445  1.0000
  S   S39       1.0  0.31366  0.15366  0.29712  1.0000
  S   S40       1.0  0.35202  0.14720  0.26030  1.0000
  Fe  Fe21      1.0  0.32748  0.18006  0.30444  1.0000
  S   S41       1.0  0.31002  0.21600  0.30319  1.0000
  Fe  Fe22      1.0  0.32795  0.13043  0.31525  1.0000
  S   S42       1.0  0.30757  0.10719  0.33151  1.0000
  S   S43       1.0  0.36139  0.17412  0.29081  1.0000
  S   S44       1.0  0.36169  0.12075  0.30221  1.0000
  H   H195      1.0  0.07587  0.26023  0.25255  1.0000
  H   H196      1.0  0.01042  0.06624  0.39396  1.0000
  H   H197      1.0  0.08525  0.04629  0.37053  1.0000
  S   S45       1.0  0.32950  0.00289  0.33055  1.0000
  H   H198      1.0  0.23583  0.04804  0.34063  1.0000
  H   H199      1.0  0.05874  0.02682  0.36647  1.0000
  H   H200      1.0  0.00489  0.22826  0.40291  1.0000
  Fe  Fe23      1.0  0.47201  0.21001  0.35728  1.0000
  C   C103      1.0  0.01887  0.27452  0.36613  1.0000
  S   S46       1.0  0.44269  0.21454  0.34505  1.0000
  C   C104      1.0  0.01713  0.04902  0.39163  1.0000
  H   H201      1.0  0.20216  0.03500  0.35264  1.0000
  N   N8        1.0  0.09477  0.27128  0.28220  1.0000
  S   S47       1.0  0.46494  0.21525  0.38006  1.0000
  H   H202      1.0  0.04883  0.26775  0.40127  1.0000
  S   S48       1.0  0.16292  0.26921  0.30653  1.0000
  H   H203      1.0  0.46750  0.24241  0.29689  1.0000
  S   S49       1.0  0.09999  0.29034  0.32442  1.0000
  Fe  Fe24      1.0  0.18687  0.27157  0.32097  1.0000
  S   S50       1.0  0.20791  0.24032  0.33065  1.0000
  S   S51       1.0  0.13969  0.25222  0.23441  1.0000
  C   C105      1.0  0.46762  0.12095  0.41613  1.0000
  C   C106      1.0  0.02185  0.03482  0.40604  1.0000
  H   H204      1.0  0.01454  0.05550  0.36404  1.0000
  Fe  Fe25      1.0  0.01942  0.19902  0.36036  1.0000
  S   S52       1.0  0.05618  0.20299  0.35241  1.0000
  H   H205      1.0  0.22266  0.25482  0.25193  1.0000
  C   C107      1.0  0.17211  0.29013  0.25972  1.0000
  C   C108      1.0  0.16521  0.26951  0.26583  1.0000
  C   C109      1.0  0.15657  0.25739  0.25768  1.0000
  C   C110      1.0  0.15489  0.26564  0.24331  1.0000
  C   C111      1.0  0.16301  0.28563  0.23696  1.0000
  C   C112      1.0  0.17160  0.29779  0.24514  1.0000
  H   H206      1.0  0.16616  0.26310  0.27689  1.0000
  H   H207      1.0  0.15065  0.24177  0.26263  1.0000
  H   H208      1.0  0.46482  0.11764  0.35551  1.0000
  C   C113      1.0  0.08813  0.26571  0.33169  1.0000
  C   C114      1.0  0.10154  0.24521  0.33530  1.0000
  C   C115      1.0  0.09145  0.22604  0.34128  1.0000
  C   C116      1.0  0.06792  0.22715  0.34366  1.0000
  C   C117      1.0  0.05453  0.24755  0.33976  1.0000
  C   C118      1.0  0.06462  0.26677  0.33384  1.0000
  H   H209      1.0  0.11966  0.24418  0.33364  1.0000
  H   H210      1.0  0.10192  0.21029  0.34428  1.0000
  H   H211      1.0  0.03642  0.24852  0.34139  1.0000
  H   H212      1.0  0.05416  0.28257  0.33095  1.0000
  C   C119      1.0  0.28179  0.22232  0.31116  1.0000
  C   C120      1.0  0.27017  0.20595  0.31997  1.0000
  C   C121      1.0  0.24753  0.21168  0.32602  1.0000
  C   C122      1.0  0.23631  0.23364  0.32301  1.0000
  C   C123      1.0  0.24801  0.25000  0.31429  1.0000
  C   C124      1.0  0.27071  0.24439  0.30847  1.0000
  H   H213      1.0  0.27866  0.18892  0.32216  1.0000
  H   H214      1.0  0.23862  0.19898  0.33288  1.0000
  H   H215      1.0  0.23969  0.26704  0.31210  1.0000
  H   H216      1.0  0.27971  0.25713  0.30174  1.0000
  H   H217      1.0  0.48348  0.10190  0.36715  1.0000
  H   H218      1.0  0.45346  0.25541  0.43259  1.0000
  H   H219      1.0  0.05986  0.27697  0.26529  1.0000
  C   C125      1.0  0.34318  0.12964  0.25048  1.0000
  C   C126      1.0  0.34276  0.10683  0.25547  1.0000
  C   C127      1.0  0.33871  0.09289  0.24651  1.0000
  C   C128      1.0  0.44774  0.24934  0.41253  1.0000
  H   H220      1.0  0.24128  0.00620  0.34521  1.0000
  H   H221      1.0  0.34629  0.09978  0.26607  1.0000
  H   H222      1.0  0.33895  0.07517  0.25036  1.0000
  C   C129      1.0  0.41564  0.16405  0.32534  1.0000
  C   C130      1.0  0.40299  0.18496  0.32714  1.0000
  C   C131      1.0  0.41158  0.20016  0.33315  1.0000
  C   C132      1.0  0.43277  0.19460  0.33760  1.0000
  C   C133      1.0  0.44550  0.17372  0.33574  1.0000
  C   C134      1.0  0.43701  0.15861  0.32957  1.0000
  H   H223      1.0  0.38657  0.18946  0.32388  1.0000
  H   H224      1.0  0.40165  0.21632  0.33442  1.0000
  H   H225      1.0  0.46192  0.16927  0.33896  1.0000
  H   H226      1.0  0.44701  0.14256  0.32811  1.0000
  C   C135      1.0  0.31336  0.07833  0.33084  1.0000
  C   C136      1.0  0.30287  0.06355  0.34188  1.0000
  C   C137      1.0  0.30773  0.04032  0.34190  1.0000
  C   C138      1.0  0.32284  0.03185  0.33076  1.0000
  C   C139      1.0  0.33319  0.04664  0.31966  1.0000
  C   C140      1.0  0.32854  0.06984  0.31973  1.0000
  H   H227      1.0  0.29131  0.07012  0.35054  1.0000
  H   H228      1.0  0.29995  0.02893  0.35052  1.0000
  H   H229      1.0  0.34488  0.04016  0.31100  1.0000
  H   H230      1.0  0.33655  0.08114  0.31112  1.0000
  C   C141      1.0  0.33500  0.10155  0.23247  1.0000
  C   C142      1.0  0.03780  0.27100  0.39296  1.0000
  H   H231      1.0  0.25861  0.29002  0.32576  1.0000
  H   H232      1.0  0.10898  0.26376  0.30177  1.0000
  H   H233      1.0  0.04338  0.28566  0.38529  1.0000
  C   C143      1.0  0.05750  0.26039  0.29777  1.0000
  S   S53       1.0  0.16051  0.29091  0.33540  1.0000
  H   H234      1.0  0.23646  0.22971  0.24462  1.0000
  H   H235      1.0  0.45502  0.12938  0.42358  1.0000
  H   H236      1.0  0.09246  0.30427  0.26908  1.0000
  C   C144      1.0  0.38015  0.00838  0.40443  1.0000
  C   C145      1.0  0.36375  0.01346  0.39548  1.0000
  C   C146      1.0  0.11223  0.30542  0.28481  1.0000
  C   C147      1.0  0.20692  0.27846  0.36174  1.0000
  H   H237      1.0  0.35934  0.03058  0.39060  1.0000
  H   H238      1.0  0.17715  0.31360  0.24026  1.0000
  C   C148      1.0  0.18780  0.98488  0.41046  1.0000
  H   H239      1.0  0.48907  0.24860  0.32217  1.0000
  H   H240      1.0  0.42558  0.11504  0.23300  1.0000
  H   H241      1.0  0.10091  0.02967  0.46774  1.0000
  H   H242      1.0  0.20109  0.26750  0.35565  1.0000
  C   C149      1.0  0.15723  0.00748  0.46421  1.0000
  N   N9        1.0  0.04111  0.25094  0.38553  1.0000
  H   H243      1.0  0.23762  0.19147  0.28999  1.0000
  C   C150      1.0  0.24557  0.26445  0.35207  1.0000
  H   H244      1.0  0.08355  0.26337  0.38817  1.0000
  C   C151      1.0  0.02266  0.11663  0.39907  1.0000
  C   C152      1.0  0.04247  0.12476  0.39217  1.0000
  C   C153      1.0  0.06339  0.11347  0.39554  1.0000
  C   C154      1.0  0.06462  0.09399  0.40576  1.0000
  C   C155      1.0  0.04475  0.08631  0.41302  1.0000
  C   C156      1.0  0.02382  0.09758  0.40964  1.0000
  H   H245      1.0  0.17926  0.05008  0.37424  1.0000
  H   H246      1.0  0.21873  0.28710  0.33371  1.0000
  H   H247      1.0  0.04554  0.07155  0.42108  1.0000
  C   C157      1.0  0.18726  0.29730  0.36490  1.0000
  H   H248      1.0  0.04701  0.07706  0.38637  1.0000
  C   C158      1.0  0.35273  0.99662  0.39308  1.0000
  H   H249      1.0  0.44361  0.26725  0.40786  1.0000
  H   H250      1.0  0.23527  0.29183  0.37404  1.0000
  C   C159      1.0  0.02357  0.25214  0.37624  1.0000
  H   H251      1.0  0.44769  0.20821  0.42549  1.0000
  H   H252      1.0  0.09814  0.31156  0.29283  1.0000
  C   C160      1.0  0.24725  0.30467  0.32955  1.0000
  C   C161      1.0  0.33868  0.13843  0.23662  1.0000
  H   H253      1.0  0.03960  0.26837  0.29938  1.0000
  C   C162      1.0  0.02061  0.22642  0.40736  1.0000
  H   H254      1.0  0.34008  0.00072  0.38620  1.0000
  C   C163      1.0  0.16874  0.02568  0.46764  1.0000
  C   C164      1.0  0.23510  0.08252  0.35939  1.0000
  H   H255      1.0  0.08424  0.28615  0.25316  1.0000
  H   H256      1.0  0.07491  0.28616  0.29997  1.0000
  H   H257      1.0  0.25036  0.07832  0.36445  1.0000
  Fe  Fe26      1.0  0.99495  0.16292  0.37994  1.0000
  H   H258      1.0  0.25655  0.31382  0.33474  1.0000
  H   H259      1.0  0.32887  0.08371  0.35964  1.0000
  C   C165      1.0  0.48679  0.08649  0.40789  1.0000
  N   N10       1.0  0.37524  0.05994  0.35503  1.0000
  C   C166      1.0  0.35824  0.04431  0.35653  1.0000
  C   C167      1.0  0.36428  0.07872  0.36323  1.0000
  C   C168      1.0  0.39551  0.04681  0.36132  1.0000
  C   C169      1.0  0.38152  0.06840  0.33936  1.0000
  H   H260      1.0  0.01135  0.28854  0.37202  1.0000
  C   C170      1.0  0.34306  0.09328  0.35818  1.0000
  C   C171      1.0  0.40895  0.05964  0.36821  1.0000
  C   C172      1.0  0.39671  0.08673  0.33542  1.0000
  H   H261      1.0  0.35078  0.03980  0.36789  1.0000
  H   H262      1.0  0.34391  0.05260  0.35101  1.0000
  H   H263      1.0  0.37608  0.09057  0.36295  1.0000
  H   H264      1.0  0.35955  0.07185  0.37472  1.0000
  H   H265      1.0  0.39046  0.03316  0.37006  1.0000
  H   H266      1.0  0.40761  0.03816  0.35323  1.0000
  H   H267      1.0  0.39039  0.05447  0.33360  1.0000
  H   H268      1.0  0.36614  0.07508  0.33439  1.0000
  C   C173      1.0  0.48109  0.13346  0.40533  1.0000
  H   H269      1.0  0.18582  0.02616  0.46135  1.0000
  H   H270      1.0  0.01883  0.01759  0.36894  1.0000
  H   H271      1.0  0.33719  0.10690  0.36469  1.0000
  H   H272      1.0  0.34651  0.10156  0.34695  1.0000
  H   H273      1.0  0.38071  0.10453  0.22752  1.0000
  H   H274      1.0  0.39912  0.06438  0.37836  1.0000
  H   H275      1.0  0.41428  0.07469  0.36114  1.0000
  H   H276      1.0  0.42438  0.04835  0.37102  1.0000
  H   H277      1.0  0.38894  0.10207  0.34001  1.0000
  H   H278      1.0  0.39930  0.09192  0.32366  1.0000
  H   H279      1.0  0.41357  0.08052  0.33838  1.0000
  H   H280      1.0  0.08691  0.07123  0.37690  1.0000
  S   S54       1.0  0.49047  0.05717  0.40922  1.0000
  H   H281      1.0  0.01439  0.09530  0.35610  1.0000
  N   N11       1.0  0.22897  0.28552  0.35402  1.0000
  H   H282      1.0  0.37145  0.02513  0.33880  1.0000
  C   C174      1.0  0.05434  0.06020  0.38381  1.0000
  H   H283      1.0  0.00743  0.02582  0.41104  1.0000
  H   H284      1.0  0.39840  0.13223  0.23678  1.0000
  H   H285      1.0  0.19034  0.30656  0.37294  1.0000
  H   H286      1.0  0.00793  0.29668  0.39589  1.0000
  Fe  Fe27      1.0  0.45359  0.99402  0.43912  1.0000
  C   C175      1.0  0.04725  0.02614  0.37688  1.0000
  H   H287      1.0  0.12022  0.22441  0.30384  1.0000
  H   H288      1.0  0.11602  0.22314  0.28630  1.0000
  H   H289      1.0  0.00261  0.04357  0.38853  1.0000
  S   S55       1.0  0.06922  0.99955  0.46808  1.0000
  Fe  Fe28      1.0  0.08644  0.99614  0.41618  1.0000
  H   H290      1.0  0.26292  0.00564  0.35573  1.0000
  S   S56       1.0  0.47702  0.16273  0.40423  1.0000
  C   C176      1.0  0.07565  0.06277  0.37263  1.0000
  H   H291      1.0  0.26888  0.02419  0.38559  1.0000
  H   H292      1.0  0.08657  0.24267  0.27490  1.0000
  H   H293      1.0  0.03686  0.02181  0.40517  1.0000
  H   H294      1.0  0.09950  0.24951  0.37411  1.0000
  H   H295      1.0  0.02088  0.00558  0.38735  1.0000
  H   H296      1.0  0.24238  0.31600  0.31988  1.0000
  C   C177      1.0  0.07715  0.27161  0.25992  1.0000
  Fe  Fe29      1.0  0.13046  0.00236  0.42431  1.0000
  H   H297      1.0  0.05802  0.24763  0.29105  1.0000
  H   H298      1.0  0.48139  0.20942  0.40938  1.0000
  H   H299      1.0  0.25675  0.29774  0.35935  1.0000
  H   H300      1.0  0.04506  0.21477  0.39014  1.0000
  S   S57       1.0  0.99643  0.12910  0.39412  1.0000
  H   H301      1.0  0.21096  0.06722  0.37584  1.0000
  H   H302      1.0  0.03394  0.27916  0.35868  1.0000
  C   C178      1.0  0.25415  0.01544  0.34704  1.0000
  C   C179      1.0  0.03055  0.01030  0.37661  1.0000
  C   C180      1.0  0.25903  0.03792  0.37905  1.0000
  H   H303      1.0  0.48184  0.98388  0.46836  1.0000
  H   H304      1.0  0.27086  0.04217  0.36921  1.0000
  H   H305      1.0  0.01340  0.27849  0.41187  1.0000
  H   H306      1.0  0.12852  0.25804  0.28648  1.0000
  H   H307      1.0  0.17494  0.02255  0.37337  1.0000
  H   H308      1.0  0.02836  0.23853  0.36960  1.0000
  H   H309      1.0  0.09226  0.22829  0.30018  1.0000
  H   H310      1.0  0.00614  0.09118  0.37490  1.0000
  H   H311      1.0  0.26243  0.26854  0.34676  1.0000
  H   H312      1.0  0.22572  0.03113  0.38641  1.0000
  C   C181      1.0  0.02050  0.08784  0.36631  1.0000
  C   C182      1.0  0.11082  0.25714  0.29163  1.0000
  H   H313      1.0  0.00850  0.09137  0.41509  1.0000
  N   N12       1.0  0.03688  0.04942  0.37968  1.0000
  H   H314      1.0  0.47784  0.13151  0.36605  1.0000
  H   H315      1.0  0.25413  0.05245  0.38486  1.0000
  H   H316      1.0  0.06672  0.23482  0.37039  1.0000
  H   H317      1.0  0.07870  0.11953  0.38992  1.0000
  H   H318      1.0  0.03415  0.09704  0.36698  1.0000
  H   H319      1.0  0.06188  0.25204  0.30829  1.0000
  H   H320      1.0  0.26693  0.01647  0.33721  1.0000
  H   H321      1.0  0.21378  0.01094  0.36373  1.0000
  H   H322      1.0  0.20659  0.23671  0.24729  1.0000
  C   C183      1.0  0.01364  0.27895  0.40032  1.0000
  C   C184      1.0  0.20938  0.21385  0.29809  1.0000
  H   H323      1.0  0.16341  0.98322  0.39751  1.0000
  H   H324      1.0  0.21618  0.98486  0.42069  1.0000
  H   H325      1.0  0.05839  0.01765  0.38475  1.0000
  H   H326      1.0  0.20910  0.20555  0.30935  1.0000
  H   H327      1.0  0.19078  0.98810  0.44818  1.0000
  C   C185      1.0  0.47031  0.09755  0.41733  1.0000
  S   S58       1.0  0.00717  0.16863  0.35639  1.0000
  H   H328      1.0  0.06014  0.05058  0.39375  1.0000
  H   H329      1.0  0.00712  0.24880  0.38250  1.0000
  H   H330      1.0  0.20274  0.23170  0.29837  1.0000
  H   H331      1.0  0.33881  0.15609  0.23270  1.0000
  H   H332      1.0  0.45581  0.24032  0.40359  1.0000
  H   H333      1.0  0.17184  0.28968  0.36956  1.0000
  Fe  Fe30      1.0  0.13768  0.29151  0.31969  1.0000
  H   H334      1.0  0.24020  0.25495  0.34492  1.0000
  H   H335      1.0  0.25861  0.04811  0.34927  1.0000
  H   H336      1.0  0.10952  0.25422  0.26429  1.0000
  H   H337      1.0  0.22649  0.09912  0.36200  1.0000
  H   H338      1.0  0.24006  0.08477  0.34763  1.0000
  C   C186      1.0  0.08462  0.24885  0.38270  1.0000
  H   H339      1.0  0.02290  0.20910  0.41336  1.0000
  C   C187      1.0  0.46723  0.24610  0.30769  1.0000
  H   H340      1.0  0.01854  0.23776  0.41528  1.0000
  H   H341      1.0  0.20890  0.26830  0.37232  1.0000
  H   H342      1.0  0.04018  0.99448  0.37330  1.0000
  C   C188      1.0  0.24968  0.24780  0.36572  1.0000
  C   C189      1.0  0.07238  0.27855  0.29094  1.0000
  H   H343      1.0  0.24220  0.01113  0.37683  1.0000
  C   C190      1.0  0.10467  0.29216  0.27499  1.0000
  H   H344      1.0  0.45776  0.26324  0.30814  1.0000
  C   C191      1.0  0.10940  0.23189  0.29561  1.0000
  C   C192      1.0  0.04166  0.22934  0.39598  1.0000
  C   C193      1.0  0.09265  0.25889  0.27059  1.0000
  H   H345      1.0  0.19782  0.20614  0.29360  1.0000
  H   H346      1.0  0.02410  0.04571  0.41342  1.0000
  H   H347      1.0  0.05563  0.22715  0.40217  1.0000
  C   C194      1.0  0.40712  0.11521  0.23520  1.0000
  H   H348      1.0  0.40330  0.10416  0.24557  1.0000
  H   H349      1.0  0.04172  0.13944  0.38401  1.0000
  C   C195      1.0  0.33463  0.12451  0.22764  1.0000
  S   S59       1.0  0.00940  0.19144  0.38416  1.0000
  H   H350      1.0  0.07178  0.07339  0.36255  1.0000
  H   H351      1.0  0.23522  0.23860  0.37005  1.0000
  H   H352      1.0  0.26438  0.23492  0.36300  1.0000
  H   H353      1.0  0.16173  0.29224  0.22592  1.0000
  H   H354      1.0  0.44885  0.17692  0.44479  1.0000
  H   H355      1.0  0.20472  0.07145  0.35823  1.0000
  S   S60       1.0  0.20019  0.30200  0.30780  1.0000
  N   N13       1.0  0.23861  0.22268  0.27514  1.0000
  C   C196      1.0  0.25954  0.21002  0.26753  1.0000
  C   C197      1.0  0.21965  0.22330  0.26704  1.0000
  C   C198      1.0  0.23368  0.20989  0.29005  1.0000
  C   C199      1.0  0.24343  0.24573  0.27548  1.0000
  C   C200      1.0  0.28057  0.20517  0.27496  1.0000
  C   C201      1.0  0.22186  0.23696  0.25188  1.0000
  C   C202      1.0  0.22355  0.26278  0.28103  1.0000
  H   H356      1.0  0.25621  0.19354  0.26588  1.0000
  H   H357      1.0  0.26481  0.21925  0.25673  1.0000
  H   H358      1.0  0.20313  0.23033  0.27268  1.0000
  H   H359      1.0  0.21765  0.20595  0.26623  1.0000
  H   H360      1.0  0.24482  0.21341  0.29691  1.0000
  H   H361      1.0  0.25633  0.24469  0.28235  1.0000
  H   H362      1.0  0.25148  0.25356  0.26486  1.0000
  H   H363      1.0  0.28666  0.22071  0.27579  1.0000
  H   H364      1.0  0.27780  0.19488  0.28567  1.0000
  H   H365      1.0  0.29456  0.19540  0.26852  1.0000
  H   H366      1.0  0.44362  0.21738  0.44232  1.0000
  S   S61       1.0  0.40894  0.04807  0.47053  1.0000
  H   H367      1.0  0.22151  0.26150  0.29274  1.0000
  H   H368      1.0  0.20740  0.26137  0.27808  1.0000
  H   H369      1.0  0.22670  0.28000  0.27609  1.0000
  N   N14       1.0  0.43022  0.13155  0.37856  1.0000
  C   C203      1.0  0.45049  0.11336  0.37852  1.0000
  C   C204      1.0  0.41552  0.12733  0.39287  1.0000
  C   C205      1.0  0.43845  0.15384  0.37660  1.0000
  C   C206      1.0  0.41857  0.13023  0.36642  1.0000
  C   C207      1.0  0.47003  0.11662  0.36599  1.0000
  C   C208      1.0  0.40648  0.10473  0.39653  1.0000
  C   C209      1.0  0.42158  0.17356  0.38189  1.0000
  C   C210      1.0  0.39627  0.14606  0.36487  1.0000
  H   H370      1.0  0.45768  0.11141  0.38847  1.0000
  H   H371      1.0  0.44573  0.09678  0.37842  1.0000
  H   H372      1.0  0.40062  0.14049  0.39406  1.0000
  H   H373      1.0  0.42494  0.12820  0.40151  1.0000
  H   H374      1.0  0.45295  0.15227  0.38236  1.0000
  H   H375      1.0  0.44496  0.15946  0.36520  1.0000
  H   H376      1.0  0.42970  0.13404  0.35611  1.0000
  H   H377      1.0  0.41574  0.11287  0.36643  1.0000
  C   C211      1.0  0.18761  0.03243  0.37481  1.0000
  H   H378      1.0  0.08826  0.23292  0.39000  1.0000
  C   C212      1.0  0.36695  0.02217  0.35057  1.0000
  H   H379      1.0  0.39641  0.10270  0.38861  1.0000
  H   H380      1.0  0.42014  0.09027  0.39778  1.0000
  H   H381      1.0  0.39516  0.10408  0.40698  1.0000
  H   H382      1.0  0.41857  0.17147  0.39371  1.0000
  H   H383      1.0  0.40539  0.17622  0.37794  1.0000
  H   H384      1.0  0.42896  0.18924  0.37797  1.0000
  H   H385      1.0  0.39945  0.16268  0.35874  1.0000
  H   H386      1.0  0.38529  0.14817  0.37512  1.0000
  H   H387      1.0  0.38628  0.13874  0.35896  1.0000
  H   H388      1.0  0.45986  0.08805  0.42571  1.0000
  C   C213      1.0  0.06364  0.24980  0.37580  1.0000
  Fe  Fe31      1.0  0.17422  0.30099  0.29423  1.0000
  H   H389      1.0  0.25363  0.25597  0.37401  1.0000
  N   N15       1.0  0.22778  0.04104  0.36359  1.0000
  C   C214      1.0  0.20835  0.02934  0.36304  1.0000
  C   C215      1.0  0.24411  0.03934  0.34991  1.0000
  C   C216      1.0  0.21860  0.06533  0.36465  1.0000
  C   C217      1.0  0.23812  0.02954  0.37654  1.0000
  H   H390      1.0  0.45743  0.23471  0.31574  1.0000
  H   H391      1.0  0.45587  0.04667  0.47332  1.0000
  H   H392      1.0  0.00653  0.27288  0.35948  1.0000
  H   H393      1.0  0.04208  0.06099  0.35683  1.0000
  C   C218      1.0  0.02875  0.06253  0.36631  1.0000
  C   C219      1.0  0.46352  0.24741  0.42351  1.0000
  H   H394      1.0  0.19173  0.02603  0.38564  1.0000
  H   H395      1.0  0.43159  0.24338  0.41753  1.0000
  H   H396      1.0  0.11954  0.28810  0.26680  1.0000
  C   C220      1.0  0.23814  0.29899  0.36251  1.0000
  S   S62       1.0  0.16790  0.99276  0.42512  1.0000
  S   S63       1.0  0.49016  0.26654  0.38447  1.0000
  S   S64       1.0  0.29956  0.98585  0.37175  1.0000
  H   H397      1.0  0.12612  0.29556  0.29022  1.0000
  H   H398      1.0  0.15868  0.04231  0.46465  1.0000
  C   C221      1.0  0.45660  0.20959  0.43422  1.0000
  H   H399      1.0  0.06202  0.29246  0.28482  1.0000
  H   H400      1.0  0.13952  0.01056  0.46938  1.0000
  C   C222      1.0  0.38512  0.98637  0.41130  1.0000
  H   H401      1.0  0.47383  0.23236  0.44956  1.0000
  N   N16       1.0  0.16801  0.98360  0.46830  1.0000
  S   S65       1.0  0.18114  0.30682  0.26997  1.0000
  H   H402      1.0  0.48637  0.30442  0.39854  1.0000
  H   H403      1.0  0.48116  0.20310  0.31560  1.0000
  C   C223      1.0  0.48639  0.22590  0.44077  1.0000
  C   C224      1.0  0.46406  0.18519  0.44086  1.0000
  H   H404      1.0  0.29857  0.99621  0.29628  1.0000
  H   H405      1.0  0.18323  0.30905  0.35524  1.0000
  H   H406      1.0  0.47261  0.18381  0.45014  1.0000
  H   H407      1.0  0.47459  0.17546  0.43280  1.0000
  H   H408      1.0  0.20251  0.99054  0.46307  1.0000
  N   N17       1.0  0.47481  0.22406  0.42870  1.0000
  H   H409      1.0  0.47625  0.25848  0.41839  1.0000
  H   H410      1.0  0.21321  0.31310  0.33959  1.0000
  H   H411      1.0  0.12252  0.98789  0.46030  1.0000
  Fe  Fe32      1.0  0.49019  0.18443  0.38394  1.0000
  H   H412      1.0  0.40771  0.08870  0.22361  1.0000
  C   C225      1.0  0.39874  0.10614  0.22363  1.0000
  H   H413      1.0  0.01543  0.26197  0.58943  1.0000
  Fe  Fe33      1.0  0.07772  0.02266  0.57161  1.0000
  S   S66       1.0  0.07761  0.05225  0.55413  1.0000
  S   S67       1.0  0.09378  0.02087  0.59105  1.0000
  Fe  Fe34      1.0  0.04602  0.00145  0.55933  1.0000
  S   S68       1.0  0.04269  0.02967  0.54105  1.0000
  Fe  Fe35      1.0  0.07999  0.02761  0.53934  1.0000
  S   S69       1.0  0.10200  0.03240  0.51778  1.0000
  Fe  Fe36      1.0  0.04045  0.05227  0.55721  1.0000
  S   S70       1.0  0.02026  0.08704  0.55550  1.0000
  H   H414      1.0  0.47334  0.00361  0.48922  1.0000
  S   S71       1.0  0.04009  0.02419  0.57578  1.0000
  Fe  Fe37      1.0  0.18918  0.13939  0.67169  1.0000
  S   S72       1.0  0.15547  0.13253  0.68372  1.0000
  S   S73       1.0  0.20692  0.12022  0.65390  1.0000
  Fe  Fe38      1.0  0.18864  0.18004  0.68533  1.0000
  S   S74       1.0  0.15431  0.17657  0.69797  1.0000
  S   S75       1.0  0.20302  0.20902  0.69005  1.0000
  Fe  Fe39      1.0  0.16741  0.14004  0.70259  1.0000
  H   H415      1.0  0.44557  0.10521  0.55310  1.0000
  Fe  Fe40      1.0  0.14487  0.16948  0.67821  1.0000
  S   S76       1.0  0.10901  0.18175  0.67431  1.0000
  S   S77       1.0  0.20251  0.14357  0.69112  1.0000
  S   S78       1.0  0.17793  0.17632  0.66498  1.0000
  Fe  Fe41      1.0  0.21137  0.00021  0.63806  1.0000
  S   S79       1.0  0.19404  0.01966  0.65583  1.0000
  S   S80       1.0  0.22949  0.01526  0.61705  1.0000
  H   H416      1.0  0.25104  0.30870  0.67352  1.0000
  H   H417      1.0  0.43230  0.09512  0.52966  1.0000
  H   H418      1.0  0.04630  0.10463  0.48636  1.0000
  S   S81       1.0  0.02358  0.18793  0.59697  1.0000
  S   S82       1.0  0.48026  0.21010  0.60056  1.0000
  Fe  Fe42      1.0  0.03544  0.19382  0.61645  1.0000
  S   S83       1.0  0.07309  0.19093  0.61578  1.0000
  H   H419      1.0  0.01716  0.13239  0.56018  1.0000
  C   C226      1.0  0.33190  0.00707  0.60709  1.0000
  S   S84       1.0  0.01569  0.16937  0.63146  1.0000
  C   C227      1.0  0.21914  0.25451  0.65659  1.0000
  Fe  Fe43      1.0  0.31369  0.26230  0.67026  1.0000
  S   S85       1.0  0.32126  0.28486  0.64947  1.0000
  S   S86       1.0  0.30293  0.22966  0.66837  1.0000
  Fe  Fe44      1.0  0.32865  0.29308  0.68651  1.0000
  H   H420      1.0  0.11383  0.04204  0.48741  1.0000
  H   H421      1.0  0.03750  0.28135  0.53164  1.0000
  Fe  Fe45      1.0  0.35305  0.28789  0.65668  1.0000
  S   S87       1.0  0.38435  0.28917  0.63997  1.0000
  S   S88       1.0  0.29472  0.29038  0.68168  1.0000
  S   S89       1.0  0.34706  0.26306  0.67671  1.0000
  H   H422      1.0  0.36179  0.02183  0.59740  1.0000
  S   S90       1.0  0.45654  0.04755  0.56345  1.0000
  Fe  Fe46      1.0  0.39365  0.04025  0.56726  1.0000
  S   S91       1.0  0.40719  0.07115  0.55489  1.0000
  C   C228      1.0  0.47135  0.30947  0.60426  1.0000
  Fe  Fe47      1.0  0.43665  0.04736  0.54612  1.0000
  S   S92       1.0  0.45566  0.05011  0.52348  1.0000
  Fe  Fe48      1.0  0.42585  0.06893  0.57318  1.0000
  S   S93       1.0  0.42375  0.10000  0.58327  1.0000
  S   S94       1.0  0.41006  0.03964  0.58615  1.0000
  N   N18       1.0  0.45494  0.11781  0.53062  1.0000
  C   C229      1.0  0.44661  0.11358  0.58402  1.0000
  H   H423      1.0  0.10570  0.05831  0.60225  1.0000
  C   C230      1.0  0.09417  0.02380  0.47867  1.0000
  H   H424      1.0  0.11645  0.07114  0.58460  1.0000
  C   C231      1.0  0.44238  0.13294  0.59043  1.0000
  H   H425      1.0  0.45649  0.15967  0.59563  1.0000
  H   H426      1.0  0.42538  0.13894  0.59512  1.0000
  C   C232      1.0  0.45997  0.14472  0.59075  1.0000
  C   C233      1.0  0.22319  0.29377  0.66918  1.0000
  C   C234      1.0  0.45552  0.04843  0.49545  1.0000
  C   C235      1.0  0.44230  0.04996  0.50887  1.0000
  C   C236      1.0  0.41896  0.05132  0.51033  1.0000
  C   C237      1.0  0.40895  0.05107  0.49842  1.0000
  C   C238      1.0  0.10134  0.03091  0.48981  1.0000
  H   H427      1.0  0.47358  0.04754  0.49424  1.0000
  H   H428      1.0  0.40859  0.05260  0.52060  1.0000
  H   H429      1.0  0.03612  0.04687  0.48130  1.0000
  C   C239      1.0  0.42219  0.04915  0.48505  1.0000
  H   H430      1.0  0.31569  0.26102  0.71484  1.0000
  H   H431      1.0  0.45496  0.16920  0.50831  1.0000
  C   C240      1.0  0.46865  0.10595  0.57803  1.0000
  H   H432      1.0  0.05913  0.05934  0.51496  1.0000
  C   C241      1.0  0.40614  0.26623  0.64093  1.0000
  C   C242      1.0  0.40776  0.25123  0.65359  1.0000
  C   C243      1.0  0.42498  0.23271  0.65401  1.0000
  C   C244      1.0  0.44053  0.22897  0.64174  1.0000
  C   C245      1.0  0.43915  0.24418  0.62912  1.0000
  C   C246      1.0  0.42202  0.26282  0.62873  1.0000
  H   H433      1.0  0.39583  0.25397  0.66309  1.0000
  H   H434      1.0  0.45639  0.13088  0.54974  1.0000
  H   H435      1.0  0.45104  0.24140  0.61961  1.0000
  H   H436      1.0  0.42081  0.27440  0.61890  1.0000
  C   C247      1.0  0.06898  0.00235  0.49592  1.0000
  H   H437      1.0  0.08297  0.08448  0.51868  1.0000
  C   C248      1.0  0.00305  0.11868  0.59614  1.0000
  Fe  Fe49      1.0  0.21364  0.99171  0.60818  1.0000
  C   C249      1.0  0.03231  0.10526  0.49557  1.0000
  C   C250      1.0  0.23134  0.21333  0.68469  1.0000
  C   C251      1.0  0.24649  0.20051  0.67555  1.0000
  C   C252      1.0  0.26852  0.20548  0.67083  1.0000
  C   C253      1.0  0.27550  0.22331  0.67515  1.0000
  C   C254      1.0  0.26048  0.23580  0.68456  1.0000
  C   C255      1.0  0.23850  0.23079  0.68931  1.0000
  H   H438      1.0  0.24112  0.18703  0.67193  1.0000
  H   H439      1.0  0.28007  0.19567  0.66361  1.0000
  H   H440      1.0  0.26578  0.24937  0.68811  1.0000
  H   H441      1.0  0.22689  0.24069  0.69645  1.0000
  C   C256      1.0  0.09962  0.18488  0.65780  1.0000
  C   C257      1.0  0.07640  0.18730  0.65767  1.0000
  C   C258      1.0  0.06812  0.18936  0.64483  1.0000
  C   C259      1.0  0.08301  0.18922  0.63198  1.0000
  C   C260      1.0  0.10625  0.18711  0.63206  1.0000
  C   C261      1.0  0.11457  0.18490  0.64494  1.0000
  H   H442      1.0  0.06476  0.18745  0.66757  1.0000
  H   H443      1.0  0.05019  0.19107  0.64490  1.0000
  H   H444      1.0  0.11784  0.18717  0.62213  1.0000
  H   H445      1.0  0.13245  0.18339  0.64493  1.0000
  C   C262      1.0  0.20207  0.09269  0.65454  1.0000
  C   C263      1.0  0.20611  0.08367  0.64187  1.0000
  C   C264      1.0  0.20349  0.06136  0.64210  1.0000
  C   C265      1.0  0.19712  0.04783  0.65505  1.0000
  C   C266      1.0  0.19263  0.05702  0.66768  1.0000
  C   C267      1.0  0.19507  0.07940  0.66744  1.0000
  H   H446      1.0  0.21131  0.09400  0.63184  1.0000
  H   H447      1.0  0.20645  0.05461  0.63227  1.0000
  H   H448      1.0  0.18746  0.04672  0.67773  1.0000
  H   H449      1.0  0.19195  0.08621  0.67726  1.0000
  C   C268      1.0  0.12326  0.01564  0.58969  1.0000
  C   C269      1.0  0.13724  0.01333  0.57670  1.0000
  C   C270      1.0  0.16075  0.00905  0.57607  1.0000
  C   C271      1.0  0.17032  0.00692  0.58842  1.0000
  C   C272      1.0  0.15629  0.00953  0.60136  1.0000
  C   C273      1.0  0.13284  0.01385  0.60199  1.0000
  H   H450      1.0  0.12997  0.01481  0.56715  1.0000
  C   C274      1.0  0.01282  0.29669  0.51773  1.0000
  H   H451      1.0  0.40434  0.99751  0.49441  1.0000
  H   H452      1.0  0.13067  0.07060  0.59912  1.0000
  C   C275      1.0  0.01386  0.09898  0.57122  1.0000
  H   H453      1.0  0.39086  0.05214  0.49961  1.0000
  H   H454      1.0  0.25349  0.09878  0.64008  1.0000
  H   H455      1.0  0.06573  0.10886  0.51131  1.0000
  Fe  Fe50      1.0  0.30485  0.31317  0.66123  1.0000
  Fe  Fe51      1.0  0.99555  0.21613  0.60176  1.0000
  H   H456      1.0  0.19541  0.21648  0.72188  1.0000
  C   C276      1.0  0.47163  0.29168  0.61774  1.0000
  H   H457      1.0  0.48848  0.10554  0.54889  1.0000
  C   C277      1.0  0.04069  0.06172  0.48445  1.0000
  C   C278      1.0  0.07605  0.00951  0.50706  1.0000
  C   C279      1.0  0.09243  0.02363  0.50402  1.0000
  H   H458      1.0  0.37916  0.24155  0.72129  1.0000
  H   H459      1.0  0.07017  0.06565  0.61497  1.0000
  H   H460      1.0  0.06921  0.00368  0.51800  1.0000
  H   H461      1.0  0.47645  0.14306  0.52788  1.0000
  H   H462      1.0  0.33710  0.00214  0.61745  1.0000
  H   H463      1.0  0.40883  0.12295  0.54844  1.0000
  H   H464      1.0  0.03540  0.11879  0.50079  1.0000
  C   C280      1.0  0.23252  0.30995  0.67618  1.0000
  H   H465      1.0  0.22247  0.14666  0.71777  1.0000
  H   H466      1.0  0.42955  0.10434  0.50428  1.0000
  S   S95       1.0  0.35738  0.03648  0.56740  1.0000
  H   H467      1.0  0.44088  0.00525  0.47936  1.0000
  C   C281      1.0  0.00884  0.08577  0.58449  1.0000
  H   H468      1.0  0.47546  0.13394  0.51200  1.0000
  H   H469      1.0  0.17156  0.00715  0.56601  1.0000
  H   H470      1.0  0.45467  0.29510  0.62414  1.0000
  H   H471      1.0  0.04171  0.07848  0.61280  1.0000
  H   H472      1.0  0.22639  0.27699  0.67580  1.0000
  C   C282      1.0  0.01343  0.12208  0.57044  1.0000
  C   C283      1.0  0.31115  0.00241  0.60513  1.0000
  S   S96       1.0  0.46084  0.20473  0.64238  1.0000
  C   C284      1.0  0.00723  0.98726  0.51999  1.0000
  C   C285      1.0  0.05708  0.07654  0.50875  1.0000
  C   C286      1.0  0.00832  0.13188  0.58289  1.0000
  C   C287      1.0  0.25735  0.28311  0.65249  1.0000
  C   C288      1.0  0.44554  0.04790  0.48360  1.0000
  H   H473      1.0  0.41807  0.14979  0.54135  1.0000
  H   H474      1.0  0.00133  0.10105  0.48801  1.0000
  H   H475      1.0  0.28539  0.27580  0.63565  1.0000
  C   C289      1.0  0.42125  0.13391  0.54866  1.0000
  H   H476      1.0  0.03081  0.04843  0.50664  1.0000
  C   C290      1.0  0.99297  0.08394  0.52083  1.0000
  H   H477      1.0  0.16349  0.00828  0.61088  1.0000
  H   H478      1.0  0.46413  0.28990  0.65506  1.0000
  H   H479      1.0  0.23059  0.30946  0.62375  1.0000
  H   H480      1.0  0.44123  0.99501  0.52948  1.0000
  C   C291      1.0  0.48803  0.31228  0.63214  1.0000
  H   H481      1.0  0.21165  0.24469  0.65068  1.0000
  C   C292      1.0  0.46463  0.13798  0.52208  1.0000
  H   H482      1.0  0.48731  0.30782  0.59668  1.0000
  H   H483      1.0  0.45808  0.30708  0.59853  1.0000
  S   S97       1.0  0.99684  0.13009  0.61206  1.0000
  H   H484      1.0  0.38774  0.99452  0.58259  1.0000
  H   H485      1.0  0.25936  0.27674  0.63004  1.0000
  H   H486      1.0  0.26035  0.09754  0.65722  1.0000
  C   C293      1.0  0.48686  0.27182  0.63883  1.0000
  H   H487      1.0  0.20452  0.29856  0.67071  1.0000
  H   H488      1.0  0.99914  0.08536  0.60711  1.0000
  H   H489      1.0  0.01248  0.28097  0.51368  1.0000
  H   H490      1.0  0.01851  0.10247  0.52283  1.0000
  Fe  Fe52      1.0  0.43942  0.01839  0.57491  1.0000
  H   H491      1.0  0.24559  0.06394  0.65502  1.0000
  C   C294      1.0  0.01798  0.08607  0.51970  1.0000
  C   C295      1.0  0.44395  0.10909  0.50791  1.0000
  H   H492      1.0  0.44761  0.12510  0.50117  1.0000
  H   H493      1.0  0.44482  0.16994  0.52697  1.0000
  C   C296      1.0  0.00321  0.09565  0.59689  1.0000
  H   H494      1.0  0.02401  0.07318  0.52841  1.0000
  H   H495      1.0  0.46693  0.98750  0.55663  1.0000
  H   H496      1.0  0.01862  0.30424  0.53819  1.0000
  H   H497      1.0  0.22444  0.18646  0.71442  1.0000
  H   H498      1.0  0.26041  0.27023  0.66192  1.0000
  C   C297      1.0  0.48194  0.13738  0.58445  1.0000
  Fe  Fe53      1.0  0.25713  0.98607  0.62056  1.0000
  C   C298      1.0  0.21887  0.27871  0.64859  1.0000
  H   H499      1.0  0.18538  0.18325  0.71642  1.0000
  Fe  Fe54      1.0  0.00189  0.16551  0.61237  1.0000
  H   H500      1.0  0.45830  0.09566  0.50588  1.0000
  H   H501      1.0  0.99849  0.12510  0.49682  1.0000
  S   S98       1.0  0.19972  0.00029  0.58749  1.0000
  C   C299      1.0  0.26239  0.01622  0.65817  1.0000
  C   C300      1.0  0.01973  0.28976  0.53268  1.0000
  C   C301      1.0  0.01070  0.29559  0.57762  1.0000
  C   C302      1.0  0.07816  0.00931  0.48171  1.0000
  H   H502      1.0  0.05912  0.05855  0.48407  1.0000
  H   H503      1.0  0.00895  0.06799  0.58519  1.0000
  C   C303      1.0  0.30446  0.00903  0.59176  1.0000
  S   S99       1.0  0.45737  0.98740  0.58709  1.0000
  H   H504      1.0  0.05544  0.09192  0.52795  1.0000
  N   N19       1.0  0.23263  0.29273  0.65368  1.0000
  H   H505      1.0  0.42613  0.22110  0.66383  1.0000
  H   H506      1.0  0.02546  0.30007  0.58036  1.0000
  H   H507      1.0  0.37998  0.99389  0.56094  1.0000
  H   H508      1.0  0.46525  0.00071  0.51673  1.0000
  H   H509      1.0  0.13702  0.99671  0.49145  1.0000
  H   H510      1.0  0.00949  0.27747  0.53957  1.0000
  H   H511      1.0  0.43157  0.15608  0.51663  1.0000
  H   H512      1.0  0.20870  0.25404  0.66732  1.0000
  H   H513      1.0  0.42147  0.12335  0.52458  1.0000
  H   H514      1.0  0.27989  0.00850  0.65938  1.0000
  S   S100      1.0  0.29430  0.98817  0.61965  1.0000
  N   N20       1.0  0.03324  0.08339  0.50570  1.0000
  H   H515      1.0  0.24983  0.14968  0.72009  1.0000
  N   N21       1.0  0.37646  0.20172  0.64250  1.0000
  C   C304      1.0  0.39836  0.18717  0.64543  1.0000
  C   C305      1.0  0.36548  0.21075  0.65601  1.0000
  C   C306      1.0  0.38199  0.22071  0.63065  1.0000
  C   C307      1.0  0.36232  0.18736  0.63809  1.0000
  C   C308      1.0  0.41469  0.17968  0.63235  1.0000
  C   C309      1.0  0.35842  0.19318  0.66893  1.0000
  C   C310      1.0  0.36435  0.24207  0.62935  1.0000
  C   C311      1.0  0.33799  0.19787  0.63613  1.0000
  H   H516      1.0  0.40800  0.19587  0.65078  1.0000
  H   H517      1.0  0.39525  0.17155  0.65294  1.0000
  H   H518      1.0  0.35013  0.22303  0.65456  1.0000
  H   H519      1.0  0.37688  0.22039  0.65923  1.0000
  H   H520      1.0  0.39757  0.22653  0.63189  1.0000
  H   H521      1.0  0.38577  0.21493  0.62012  1.0000
  H   H522      1.0  0.37041  0.18196  0.62776  1.0000
  H   H523      1.0  0.36159  0.17123  0.64554  1.0000
  H   H524      1.0  0.40709  0.16999  0.62646  1.0000
  H   H525      1.0  0.42130  0.19402  0.62499  1.0000
  H   H526      1.0  0.42962  0.16855  0.63606  1.0000
  H   H527      1.0  0.34591  0.18379  0.66679  1.0000
  H   H528      1.0  0.37304  0.18150  0.67251  1.0000
  H   H529      1.0  0.35006  0.20202  0.67798  1.0000
  H   H530      1.0  0.36266  0.25107  0.63848  1.0000
  H   H531      1.0  0.34766  0.23890  0.62822  1.0000
  H   H532      1.0  0.37026  0.25381  0.61972  1.0000
  H   H533      1.0  0.33730  0.20609  0.62495  1.0000
  H   H534      1.0  0.32995  0.20993  0.64337  1.0000
  H   H535      1.0  0.32717  0.18450  0.63875  1.0000
  N   N22       1.0  0.07787  0.10257  0.59400  1.0000
  C   C312      1.0  0.06224  0.11691  0.60394  1.0000
  C   C313      1.0  0.06635  0.08325  0.59319  1.0000
  C   C314      1.0  0.08095  0.11681  0.57947  1.0000
  C   C315      1.0  0.10005  0.09515  0.59948  1.0000
  C   C316      1.0  0.07014  0.13871  0.60537  1.0000
  C   C317      1.0  0.05767  0.06954  0.60761  1.0000
  C   C318      1.0  0.09571  0.10540  0.56734  1.0000
  H   H536      1.0  0.04539  0.12172  0.60059  1.0000
  H   H537      1.0  0.05933  0.10749  0.61495  1.0000
  H   H538      1.0  0.07737  0.07121  0.58672  1.0000
  H   H539      1.0  0.05167  0.08937  0.58753  1.0000
  H   H540      1.0  0.06424  0.12359  0.57609  1.0000
  H   H541      1.0  0.08884  0.13165  0.57966  1.0000
  H   H542      1.0  0.11129  0.10811  0.59551  1.0000
  H   H543      1.0  0.09756  0.09352  0.61130  1.0000
  H   H544      1.0  0.08763  0.13598  0.60758  1.0000
  H   H545      1.0  0.06838  0.15171  0.59584  1.0000
  H   H546      1.0  0.05911  0.14583  0.61445  1.0000
  H   H547      1.0  0.05389  0.05342  0.60575  1.0000
  H   H548      1.0  0.09471  0.11704  0.55713  1.0000
  H   H549      1.0  0.08997  0.08994  0.56609  1.0000
  H   H550      1.0  0.11367  0.10207  0.56866  1.0000
  H   H551      1.0  0.27039  0.25313  0.64240  1.0000
  H   H552      1.0  0.47218  0.09085  0.57331  1.0000
  C   C319      1.0  0.44555  0.12152  0.54575  1.0000
  H   H553      1.0  0.12207  0.01571  0.61206  1.0000
  H   H554      1.0  0.41799  0.13814  0.55960  1.0000
  C   C320      1.0  0.11376  0.07260  0.59601  1.0000
  H   H555      1.0  0.46725  0.08280  0.53740  1.0000
  C   C321      1.0  0.02775  0.06473  0.49943  1.0000
  N   N23       1.0  0.27263  0.05055  0.63946  1.0000
  C   C322      1.0  0.26095  0.03008  0.64322  1.0000
  C   C323      1.0  0.26663  0.06303  0.62536  1.0000
  C   C324      1.0  0.26382  0.06473  0.65108  1.0000
  C   C325      1.0  0.29756  0.04262  0.63872  1.0000
  C   C326      1.0  0.44784  0.15937  0.51848  1.0000
  C   C327      1.0  0.27636  0.05126  0.61233  1.0000
  C   C328      1.0  0.26548  0.08995  0.64734  1.0000
  C   C329      1.0  0.31325  0.06049  0.63337  1.0000
  H   H556      1.0  0.24281  0.03471  0.64243  1.0000
  H   H557      1.0  0.26765  0.01828  0.63559  1.0000
  H   H558      1.0  0.27220  0.07967  0.62256  1.0000
  H   H559      1.0  0.24803  0.06668  0.62593  1.0000
  S   S101      1.0  0.00897  0.22385  0.62009  1.0000
  H   H560      1.0  0.27236  0.05805  0.66053  1.0000
  H   H561      1.0  0.30154  0.03454  0.64941  1.0000
  H   H562      1.0  0.30335  0.02889  0.63221  1.0000
  H   H563      1.0  0.40360  0.99479  0.60375  1.0000
  H   H564      1.0  0.06946  0.07580  0.49878  1.0000
  H   H565      1.0  0.25254  0.00223  0.65967  1.0000
  H   H566      1.0  0.29502  0.04888  0.61026  1.0000
  H   H567      1.0  0.27048  0.03501  0.61331  1.0000
  H   H568      1.0  0.27056  0.06190  0.60270  1.0000
  H   H569      1.0  0.22397  0.27762  0.63715  1.0000
  H   H570      1.0  0.01378  0.12443  0.47901  1.0000
  H   H571      1.0  0.28267  0.09337  0.64272  1.0000
  H   H572      1.0  0.31616  0.06784  0.64236  1.0000
  H   H573      1.0  0.30721  0.07405  0.62511  1.0000
  H   H574      1.0  0.32970  0.05250  0.62810  1.0000
  H   H575      1.0  0.14719  0.04771  0.64733  1.0000
  H   H576      1.0  0.26750  0.29626  0.65275  1.0000
  H   H577      1.0  0.03618  0.07633  0.47631  1.0000
  H   H578      1.0  0.31353  0.02458  0.56999  1.0000
  H   H579      1.0  0.02699  0.30390  0.51061  1.0000
  S   S102      1.0  0.42180  0.01661  0.55694  1.0000
  C   C330      1.0  0.26812  0.27166  0.63936  1.0000
  H   H580      1.0  0.48125  0.09412  0.52057  1.0000
  C   C331      1.0  0.06539  0.09158  0.51714  1.0000
  C   C332      1.0  0.47380  0.09819  0.53132  1.0000
  H   H581      1.0  0.22821  0.30586  0.68795  1.0000
  C   C333      1.0  0.43731  0.11132  0.52383  1.0000
  S   S103      1.0  0.33503  0.30222  0.70679  1.0000
  H   H582      1.0  0.23639  0.24584  0.65762  1.0000
  H   H583      1.0  0.00818  0.14966  0.58222  1.0000
  C   C334      1.0  0.34596  0.01813  0.59575  1.0000
  H   H584      1.0  0.25687  0.31553  0.62743  1.0000
  C   C335      1.0  0.47485  0.98500  0.49133  1.0000
  C   C336      1.0  0.33955  0.02420  0.58227  1.0000
  C   C337      1.0  0.31867  0.01981  0.58037  1.0000
  N   N24       1.0  0.12715  0.10254  0.65195  1.0000
  C   C338      1.0  0.13976  0.12136  0.65222  1.0000
  C   C339      1.0  0.11627  0.09486  0.66701  1.0000
  C   C340      1.0  0.10916  0.11005  0.64266  1.0000
  C   C341      1.0  0.14362  0.08398  0.64597  1.0000
  C   C342      1.0  0.14946  0.13388  0.63764  1.0000
  C   C343      1.0  0.13230  0.08096  0.67705  1.0000
  C   C344      1.0  0.09106  0.12952  0.64702  1.0000
  C   C345      1.0  0.13409  0.06258  0.64545  1.0000
  H   H585      1.0  0.12910  0.13418  0.65834  1.0000
  H   H586      1.0  0.15433  0.11494  0.65794  1.0000
  H   H587      1.0  0.10268  0.08493  0.66724  1.0000
  H   H588      1.0  0.10752  0.10951  0.67218  1.0000
  H   H589      1.0  0.11666  0.11485  0.63134  1.0000
  H   H590      1.0  0.09998  0.09601  0.64266  1.0000
  H   H591      1.0  0.15130  0.08980  0.63484  1.0000
  H   H592      1.0  0.15827  0.07913  0.65169  1.0000
  H   H593      1.0  0.16208  0.12278  0.63131  1.0000
  H   H594      1.0  0.13612  0.14271  0.63141  1.0000
  H   H595      1.0  0.15848  0.14693  0.63951  1.0000
  H   H596      1.0  0.13904  0.06418  0.67406  1.0000
  H   H597      1.0  0.14645  0.08965  0.67738  1.0000
  H   H598      1.0  0.12286  0.07822  0.68806  1.0000
  H   H599      1.0  0.09852  0.14433  0.64747  1.0000
  H   H600      1.0  0.08060  0.12462  0.65744  1.0000
  H   H601      1.0  0.07959  0.13476  0.63897  1.0000
  H   H602      1.0  0.12917  0.06328  0.63490  1.0000
  H   H603      1.0  0.11943  0.05952  0.65379  1.0000
  H   H604      1.0  0.28849  0.00561  0.59014  1.0000
  H   H605      1.0  0.25479  0.02605  0.66684  1.0000
  H   H606      1.0  0.18354  0.98677  0.48616  1.0000
  H   H607      1.0  0.20089  0.28674  0.64949  1.0000
  C   C346      1.0  0.00508  0.27400  0.58275  1.0000
  H   H608      1.0  0.15391  0.98610  0.50459  1.0000
  H   H609      1.0  0.44968  0.27625  0.64529  1.0000
  H   H610      1.0  0.16936  0.02374  0.47918  1.0000
  H   H611      1.0  0.43236  0.00613  0.50522  1.0000
  C   C347      1.0  0.43890  0.98744  0.48343  1.0000
  C   C348      1.0  0.99721  0.31145  0.56913  1.0000
  S   S104      1.0  0.08383  0.99779  0.55656  1.0000
  C   C349      1.0  0.01008  0.11428  0.48973  1.0000
  H   H612      1.0  0.00971  0.06688  0.49848  1.0000
  C   C350      1.0  0.48616  0.11795  0.57810  1.0000
  H   H613      1.0  0.01356  0.00157  0.51243  1.0000
  C   C351      1.0  0.46516  0.27510  0.64984  1.0000
  C   C352      1.0  0.45296  0.98875  0.52035  1.0000
  H   H614      1.0  0.99257  0.00179  0.56057  1.0000
  H   H615      1.0  0.05657  0.99115  0.49833  1.0000
  C   C353      1.0  0.43939  0.98830  0.50853  1.0000
  H   H616      1.0  0.46526  0.26019  0.65836  1.0000
  H   H617      1.0  0.01754  0.98318  0.52866  1.0000
  H   H618      1.0  0.99084  0.06631  0.52111  1.0000
  H   H619      1.0  0.40618  0.99314  0.47664  1.0000
  Fe  Fe55      1.0  0.48765  0.20186  0.62297  1.0000
  C   C354      1.0  0.41333  0.98656  0.48659  1.0000
  C   C355      1.0  0.32438  0.28755  0.72340  1.0000
  H   H620      1.0  0.47258  0.27516  0.61431  1.0000
  N   N25       1.0  0.48991  0.29069  0.62645  1.0000
  H   H621      1.0  0.48732  0.25576  0.63495  1.0000
  N   N26       1.0  0.99068  0.31204  0.51707  1.0000
  Fe  Fe56      1.0  0.14265  0.12574  0.82193  1.0000
  S   S105      1.0  0.16233  0.09308  0.81600  1.0000
  S   S106      1.0  0.10453  0.13452  0.82493  1.0000
  Fe  Fe57      1.0  0.18453  0.14647  0.82047  1.0000
  S   S107      1.0  0.20784  0.11582  0.81486  1.0000
  S   S108      1.0  0.19161  0.18130  0.82025  1.0000
  Fe  Fe58      1.0  0.18447  0.11445  0.79988  1.0000
  S   S109      1.0  0.20335  0.10660  0.77847  1.0000
  Fe  Fe59      1.0  0.18447  0.09629  0.83130  1.0000
  S   S110      1.0  0.20040  0.06712  0.84621  1.0000
  S   S111      1.0  0.16278  0.14659  0.80424  1.0000
  S   S112      1.0  0.16315  0.12741  0.83848  1.0000
  H   H622      1.0  0.40055  0.22628  0.73116  1.0000
  H   H623      1.0  0.37947  0.26403  0.73829  1.0000
  C   C356      1.0  0.31777  0.28374  0.74934  1.0000
  Fe  Fe60      1.0  0.45307  0.21320  0.86932  1.0000
  H   H624      1.0  0.33995  0.23065  0.86348  1.0000
  S   S113      1.0  0.41632  0.22396  0.86669  1.0000
  H   H625      1.0  0.42279  0.30462  0.92927  1.0000
  H   H626      1.0  0.36724  0.29072  0.77070  1.0000
  H   H627      1.0  0.34386  0.22009  0.84157  1.0000
  S   S114      1.0  0.46013  0.21651  0.89075  1.0000
  Fe  Fe61      1.0  0.29573  0.28467  0.81107  1.0000
  S   S115      1.0  0.32474  0.28111  0.79305  1.0000
  C   C357      1.0  0.15948  0.18120  0.73492  1.0000
  Fe  Fe62      1.0  0.29535  0.23453  0.81903  1.0000
  S   S116      1.0  0.32444  0.22725  0.80194  1.0000
  S   S117      1.0  0.28263  0.20371  0.83258  1.0000
  Fe  Fe63      1.0  0.33988  0.25308  0.80863  1.0000
  S   S118      1.0  0.37766  0.24506  0.80836  1.0000
  Fe  Fe64      1.0  0.30703  0.25548  0.78783  1.0000
  S   S119      1.0  0.30424  0.24604  0.76684  1.0000
  S   S120      1.0  0.31211  0.25835  0.82708  1.0000
  S   S121      1.0  0.27671  0.26119  0.80454  1.0000
  Fe  Fe65      1.0  0.01680  0.20766  0.87505  1.0000
  S   S122      1.0  0.00019  0.21086  0.89750  1.0000
  S   S123      1.0  0.05266  0.18932  0.87383  1.0000
  C   C358      1.0  0.24890  0.00139  0.80675  1.0000
  S   S124      1.0  0.48124  0.23124  0.85719  1.0000
  H   H628      1.0  0.13727  0.03821  0.89718  1.0000
  S   S125      1.0  0.46703  0.31296  0.93585  1.0000
  S   S126      1.0  0.00728  0.24429  0.86687  1.0000
  H   H629      1.0  0.11623  0.14029  0.85160  1.0000
  H   H630      1.0  0.44276  0.27294  0.88619  1.0000
  H   H631      1.0  0.47685  0.24976  0.90967  1.0000
  C   C359      1.0  0.01026  0.28933  0.90147  1.0000
  C   C360      1.0  0.03083  0.28526  0.89253  1.0000
  H   H632      1.0  0.26192  0.01115  0.80769  1.0000
  H   H633      1.0  0.22947  0.21774  0.73329  1.0000
  H   H634      1.0  0.23322  0.18184  0.75193  1.0000
  H   H635      1.0  0.09951  0.22631  0.84597  1.0000
  C   C361      1.0  0.36969  0.18411  0.85322  1.0000
  H   H636      1.0  0.21406  0.01622  0.78322  1.0000
  H   H637      1.0  0.18572  0.18133  0.75656  1.0000
  C   C362      1.0  0.37045  0.21790  0.76343  1.0000
  C   C363      1.0  0.40671  0.23104  0.85010  1.0000
  C   C364      1.0  0.41988  0.22467  0.83764  1.0000
  C   C365      1.0  0.41090  0.22932  0.82484  1.0000
  C   C366      1.0  0.38875  0.24035  0.82444  1.0000
  C   C367      1.0  0.37582  0.24718  0.83682  1.0000
  C   C368      1.0  0.38474  0.24243  0.84960  1.0000
  H   H638      1.0  0.43684  0.21588  0.83791  1.0000
  H   H639      1.0  0.42109  0.22415  0.81528  1.0000
  H   H640      1.0  0.35895  0.25618  0.83656  1.0000
  H   H641      1.0  0.37461  0.24766  0.85917  1.0000
  H   H642      1.0  0.13955  0.25818  0.82734  1.0000
  H   H643      1.0  0.07184  0.25599  0.90750  1.0000
  C   C369      1.0  0.37358  0.18511  0.86834  1.0000
  H   H644      1.0  0.41900  0.25406  0.76980  1.0000
  H   H645      1.0  0.22070  0.01887  0.81935  1.0000
  H   H646      1.0  0.07458  0.24618  0.83178  1.0000
  H   H647      1.0  0.35970  0.18119  0.81446  1.0000
  C   C370      1.0  0.21754  0.18661  0.82326  1.0000
  C   C371      1.0  0.23290  0.16981  0.82964  1.0000
  C   C372      1.0  0.25287  0.17516  0.83249  1.0000
  C   C373      1.0  0.25776  0.19716  0.82868  1.0000
  C   C374      1.0  0.24246  0.21381  0.82218  1.0000
  C   C375      1.0  0.22236  0.20859  0.81960  1.0000
  H   H648      1.0  0.22923  0.15284  0.83258  1.0000
  H   H649      1.0  0.26457  0.16221  0.83759  1.0000
  H   H650      1.0  0.24585  0.23084  0.81940  1.0000
  H   H651      1.0  0.21053  0.22167  0.81471  1.0000
  C   C376      1.0  0.18949  0.11135  0.76359  1.0000
  C   C377      1.0  0.16626  0.11816  0.76480  1.0000
  C   C378      1.0  0.15573  0.12164  0.75270  1.0000
  H   H652      1.0  0.03280  0.27385  0.88498  1.0000
  H   H653      1.0  0.36467  0.20052  0.87235  1.0000
  C   C379      1.0  0.20218  0.10832  0.75023  1.0000
  H   H654      1.0  0.15635  0.12045  0.77507  1.0000
  H   H655      1.0  0.13767  0.12649  0.75372  1.0000
  H   H656      1.0  0.22979  0.14192  0.73546  1.0000
  H   H657      1.0  0.22016  0.10294  0.74927  1.0000
  C   C380      1.0  0.19911  0.03899  0.84530  1.0000
  C   C381      1.0  0.18147  0.03315  0.84017  1.0000
  C   C382      1.0  0.18047  0.01050  0.84012  1.0000
  C   C383      1.0  0.04129  0.21410  0.94220  1.0000
  C   C384      1.0  0.40481  0.23642  0.75659  1.0000
  C   C385      1.0  0.21578  0.02200  0.85029  1.0000
  H   H658      1.0  0.16839  0.04607  0.83647  1.0000
  H   H659      1.0  0.16658  0.00610  0.83632  1.0000
  N   N27       1.0  0.16575  0.98508  0.89320  1.0000
  H   H660      1.0  0.22950  0.02641  0.85426  1.0000
  C   C386      1.0  0.09020  0.14976  0.83854  1.0000
  C   C387      1.0  0.06862  0.16185  0.83744  1.0000
  C   C388      1.0  0.05682  0.17409  0.84816  1.0000
  C   C389      1.0  0.06646  0.17404  0.86015  1.0000
  C   C390      1.0  0.08787  0.16170  0.86134  1.0000
  C   C391      1.0  0.09977  0.14975  0.85054  1.0000
  H   H661      1.0  0.06112  0.16191  0.82817  1.0000
  H   H662      1.0  0.04037  0.18366  0.84711  1.0000
  H   H663      1.0  0.09540  0.16153  0.87062  1.0000
  H   H664      1.0  0.36943  0.17006  0.87602  1.0000
  C   C392      1.0  0.15331  0.02804  0.89310  1.0000
  H   H665      1.0  0.06149  0.21704  0.95826  1.0000
  H   H666      1.0  0.30135  0.15824  0.87114  1.0000
  C   C393      1.0  0.18430  0.17596  0.72790  1.0000
  H   H667      1.0  0.37287  0.21773  0.73396  1.0000
  C   C394      1.0  0.41441  0.23729  0.77015  1.0000
  S   S127      1.0  0.15444  0.12243  0.72454  1.0000
  H   H668      1.0  0.10918  0.26022  0.83103  1.0000
  H   H669      1.0  0.09626  0.20004  0.84236  1.0000
  H   H670      1.0  0.03580  0.26902  0.92521  1.0000
  H   H671      1.0  0.31296  0.30563  0.83219  1.0000
  C   C395      1.0  0.46194  0.08483  0.90649  1.0000
  H   H672      1.0  0.47010  0.08311  0.91598  1.0000
  H   H673      1.0  0.34258  0.15219  0.86294  1.0000
  H   H674      1.0  0.09793  0.24922  0.91360  1.0000
  H   H675      1.0  0.15326  0.19252  0.85629  1.0000
  C   C396      1.0  0.04908  0.29551  0.89360  1.0000
  C   C397      1.0  0.20013  0.17247  0.74983  1.0000
  H   H676      1.0  0.15016  0.17613  0.84378  1.0000
  H   H677      1.0  0.14908  0.17216  0.73038  1.0000
  H   H678      1.0  0.31808  0.21060  0.84486  1.0000
  H   H679      1.0  0.08201  0.22859  0.81807  1.0000
  H   H680      1.0  0.47762  0.00755  0.90313  1.0000
  H   H681      1.0  0.37076  0.25197  0.77813  1.0000
  C   C398      1.0  0.45496  0.06266  0.90480  1.0000
  C   C399      1.0  0.46420  0.02237  0.90328  1.0000
  H   H682      1.0  0.12307  0.27192  0.81398  1.0000
  H   H683      1.0  0.43810  0.29935  0.87508  1.0000
  H   H684      1.0  0.45013  0.00720  0.92484  1.0000
  H   H685      1.0  0.31083  0.23142  0.86254  1.0000
  C   C400      1.0  0.46493  0.04063  0.93337  1.0000
  H   H686      1.0  0.21709  0.00528  0.88100  1.0000
  H   H687      1.0  0.12965  0.98860  0.86833  1.0000
  H   H688      1.0  0.43968  0.06024  0.91273  1.0000
  H   H689      1.0  0.44891  0.06556  0.89436  1.0000
  H   H690      1.0  0.22766  0.98637  0.85417  1.0000
  C   C401      1.0  0.21185  0.22056  0.73880  1.0000
  H   H691      1.0  0.09472  0.19236  0.81572  1.0000
  H   H692      1.0  0.11228  0.20817  0.80135  1.0000
  C   C402      1.0  0.48213  0.03761  0.91963  1.0000
  H   H693      1.0  0.11814  0.17852  0.80532  1.0000
  H   H694      1.0  0.06489  0.22017  0.83445  1.0000
  Fe  Fe66      1.0  0.48330  0.18368  0.88963  1.0000
  S   S128      1.0  0.48334  0.15663  0.90911  1.0000
  C   C403      1.0  0.43098  0.28899  0.88498  1.0000
  N   N28       1.0  0.34572  0.18521  0.85097  1.0000
  H   H695      1.0  0.46883  0.02632  0.94188  1.0000
  H   H696      1.0  0.40357  0.23262  0.78037  1.0000
  N   N29       1.0  0.20156  0.18357  0.73444  1.0000
  H   H697      1.0  0.44711  0.04121  0.93254  1.0000
  H   H698      1.0  0.08208  0.21917  0.92781  1.0000
  H   H699      1.0  0.35252  0.15840  0.83827  1.0000
  C   C404      1.0  0.33359  0.16970  0.86266  1.0000
  C   C405      1.0  0.36763  0.25682  0.76701  1.0000
  H   H700      1.0  0.43947  0.99987  0.91086  1.0000
  H   H701      1.0  0.38011  0.16825  0.85037  1.0000
  C   C406      1.0  0.34657  0.17679  0.83715  1.0000
  C   C407      1.0  0.48670  0.31096  0.90791  1.0000
  C   C408      1.0  0.21479  0.99933  0.85024  1.0000
  H   H702      1.0  0.39350  0.19914  0.77792  1.0000
  C   C409      1.0  0.19172  0.11230  0.73808  1.0000
  H   H703      1.0  0.43043  0.22545  0.77034  1.0000
  H   H704      1.0  0.36970  0.21671  0.78656  1.0000
  H   H705      1.0  0.18761  0.15758  0.72821  1.0000
  C   C410      1.0  0.00711  0.25557  0.93785  1.0000
  C   C411      1.0  0.31024  0.26328  0.75034  1.0000
  C   C412      1.0  0.36165  0.18776  0.82400  1.0000
  H   H706      1.0  0.41463  0.28481  0.88378  1.0000
  H   H707      1.0  0.07369  0.21556  0.90577  1.0000
  H   H708      1.0  0.37762  0.19789  0.84601  1.0000
  H   H709      1.0  0.37976  0.18381  0.82499  1.0000
  H   H710      1.0  0.39162  0.28107  0.75876  1.0000
  C   C413      1.0  0.44469  0.01407  0.91438  1.0000
  H   H711      1.0  0.15403  0.02992  0.88147  1.0000
  H   H712      1.0  0.32467  0.20857  0.87311  1.0000
  H   H713      1.0  0.19635  0.15516  0.75091  1.0000
  C   C414      1.0  0.32502  0.29573  0.73588  1.0000
  C   C415      1.0  0.30925  0.25529  0.73786  1.0000
  H   H714      1.0  0.42960  0.02701  0.91552  1.0000
  H   H715      1.0  0.24936  0.98683  0.81553  1.0000
  N   N30       1.0  0.02273  0.11864  0.87395  1.0000
  C   C416      1.0  0.04261  0.11302  0.86265  1.0000
  H   H716      1.0  0.46680  0.05580  0.93743  1.0000
  C   C417      1.0  0.02065  0.09813  0.88529  1.0000
  C   C418      1.0  0.02693  0.13796  0.88013  1.0000
  C   C419      1.0  0.06539  0.10377  0.86785  1.0000
  C   C420      1.0  0.04058  0.22914  0.91707  1.0000
  C   C421      1.0  0.03282  0.25523  0.93426  1.0000
  C   C422      1.0  0.00910  0.14591  0.89232  1.0000
  H   H717      1.0  0.03909  0.10050  0.85672  1.0000
  H   H718      1.0  0.04573  0.12805  0.85459  1.0000
  H   H719      1.0  0.01407  0.16058  0.89541  1.0000
  C   C423      1.0  0.07960  0.25388  0.91716  1.0000
  H   H720      1.0  0.02674  0.08250  0.88057  1.0000
  H   H721      1.0  0.03163  0.09752  0.89335  1.0000
  H   H722      1.0  0.04298  0.13387  0.88447  1.0000
  H   H723      1.0  0.02892  0.15271  0.87171  1.0000
  H   H724      1.0  0.07804  0.09912  0.85861  1.0000
  H   H725      1.0  0.07198  0.11658  0.87188  1.0000
  H   H726      1.0  0.06467  0.08850  0.87599  1.0000
  H   H727      1.0  0.36603  0.19146  0.78156  1.0000
  H   H728      1.0  0.15276  0.19926  0.73253  1.0000
  C   C424      1.0  0.19601  0.20871  0.73322  1.0000
  H   H729      1.0  0.35181  0.22054  0.76382  1.0000
  H   H730      1.0  0.21097  0.21593  0.75050  1.0000
  H   H731      1.0  0.23018  0.15265  0.75783  1.0000
  C   C425      1.0  0.18633  0.99108  0.88290  1.0000
  H   H732      1.0  0.33122  0.31137  0.73512  1.0000
  C   C426      1.0  0.19690  0.99349  0.84535  1.0000
  H   H733      1.0  0.41242  0.22019  0.75294  1.0000
  H   H734      1.0  0.35477  0.25140  0.74369  1.0000
  H   H735      1.0  0.03840  0.26044  0.94326  1.0000
  C   C427      1.0  0.37331  0.28077  0.76190  1.0000
  H   H736      1.0  0.17901  0.21370  0.73921  1.0000
  C   C428      1.0  0.38222  0.23217  0.73192  1.0000
  H   H737      1.0  0.00815  0.15831  0.85515  1.0000
  H   H738      1.0  0.37745  0.20532  0.75628  1.0000
  H   H739      1.0  0.25336  0.99451  0.79663  1.0000
  N   N31       1.0  0.22144  0.03600  0.79759  1.0000
  H   H740      1.0  0.03925  0.24460  0.90903  1.0000
  C   C429      1.0  0.19814  0.04827  0.80170  1.0000
  C   C430      1.0  0.23825  0.05127  0.79735  1.0000
  C   C431      1.0  0.22426  0.02956  0.78303  1.0000
  C   C432      1.0  0.02625  0.31462  0.91221  1.0000
  C   C433      1.0  0.17841  0.03621  0.80107  1.0000
  C   C434      1.0  0.23999  0.05708  0.81188  1.0000
  C   C435      1.0  0.21830  0.04882  0.77093  1.0000
  H   H741      1.0  0.02351  0.22420  0.91900  1.0000
  H   H742      1.0  0.16681  0.03611  0.89533  1.0000
  H   H743      1.0  0.19561  0.06504  0.79504  1.0000
  H   H744      1.0  0.19582  0.05173  0.81275  1.0000
  H   H745      1.0  0.25542  0.04423  0.79247  1.0000
  H   H746      1.0  0.23409  0.06763  0.79048  1.0000
  H   H747      1.0  0.24200  0.02217  0.77960  1.0000
  H   H748      1.0  0.00217  0.24395  0.94771  1.0000
  C   C436      1.0  0.22122  0.17016  0.75696  1.0000
  C   C437      1.0  0.04381  0.21652  0.95738  1.0000
  H   H749      1.0  0.38569  0.30353  0.90563  1.0000
  H   H750      1.0  0.17822  0.03309  0.79021  1.0000
  C   C438      1.0  0.00792  0.30443  0.91110  1.0000
  H   H751      1.0  0.05247  0.19842  0.93981  1.0000
  H   H752      1.0  0.22395  0.06618  0.81674  1.0000
  H   H753      1.0  0.25271  0.06849  0.81025  1.0000
  H   H754      1.0  0.24550  0.04220  0.81954  1.0000
  H   H755      1.0  0.20029  0.05633  0.77262  1.0000
  H   H756      1.0  0.22149  0.04215  0.76074  1.0000
  H   H757      1.0  0.22879  0.06225  0.76946  1.0000
  H   H758      1.0  0.16273  0.00339  0.91054  1.0000
  Fe  Fe67      1.0  0.48953  0.23257  0.87863  1.0000
  H   H759      1.0  0.39180  0.18528  0.86800  1.0000
  C   C439      1.0  0.99184  0.99673  0.93507  1.0000
  H   H760      1.0  0.16234  0.04715  0.80420  1.0000
  H   H761      1.0  0.02390  0.21064  0.94268  1.0000
  H   H762      1.0  0.99946  0.01076  0.92800  1.0000
  S   S129      1.0  0.47382  0.17897  0.86924  1.0000
  C   C440      1.0  0.00294  0.14286  0.85347  1.0000
  H   H763      1.0  0.33359  0.17356  0.87336  1.0000
  H   H764      1.0  0.12717  0.00924  0.87941  1.0000
  H   H765      1.0  0.42334  0.28770  0.90762  1.0000
  H   H766      1.0  0.36448  0.28942  0.75291  1.0000
  N   N32       1.0  0.47306  0.04242  0.90575  1.0000
  C   C441      1.0  0.22502  0.01500  0.80833  1.0000
  H   H767      1.0  0.34905  0.25796  0.76795  1.0000
  H   H768      1.0  0.30347  0.23944  0.73860  1.0000
  H   H769      1.0  0.21574  0.17318  0.76814  1.0000
  H   H770      1.0  0.21347  0.00322  0.80787  1.0000
  H   H771      1.0  0.14331  0.23293  0.81035  1.0000
  H   H772      1.0  0.20618  0.23892  0.73671  1.0000
  C   C442      1.0  0.30876  0.16940  0.86170  1.0000
  H   H773      1.0  0.29850  0.18624  0.86175  1.0000
  H   H774      1.0  0.06507  0.29189  0.88682  1.0000
  H   H775      1.0  0.12557  0.18811  0.85520  1.0000
  H   H776      1.0  0.35668  0.20611  0.82185  1.0000
  H   H777      1.0  0.45870  0.02569  0.89265  1.0000
  C   C443      1.0  0.99674  0.09512  0.89342  1.0000
  C   C444      1.0  0.22423  0.17759  0.72558  1.0000
  N   N33       1.0  0.37951  0.23965  0.75777  1.0000
  H   H778      1.0  0.11446  0.23860  0.80930  1.0000
  H   H779      1.0  0.15198  0.00438  0.86599  1.0000
  H   H780      1.0  0.12629  0.17915  0.82871  1.0000
  H   H781      1.0  0.31843  0.29007  0.75891  1.0000
  H   H782      1.0  0.41174  0.24968  0.74827  1.0000
  H   H783      1.0  0.30700  0.16265  0.85220  1.0000
  N   N34       1.0  0.04646  0.23349  0.93064  1.0000
  H   H784      1.0  0.18215  0.00556  0.87465  1.0000
  C   C445      1.0  0.33364  0.20898  0.84952  1.0000
  H   H785      1.0  0.15689  0.17528  0.74656  1.0000
  H   H786      1.0  0.46506  0.26850  0.93111  1.0000
  H   H787      1.0  0.13649  0.00110  0.90593  1.0000
  H   H788      1.0  0.14528  0.19270  0.81502  1.0000
  H   H789      1.0  0.32948  0.17930  0.83416  1.0000
  C   C446      1.0  0.16842  0.11889  0.73930  1.0000
  C   C447      1.0  0.32721  0.22021  0.86299  1.0000
  N   N35       1.0  0.12298  0.21510  0.82808  1.0000
  C   C448      1.0  0.14042  0.21253  0.83767  1.0000
  C   C449      1.0  0.12633  0.23554  0.81700  1.0000
  C   C450      1.0  0.12766  0.19470  0.82082  1.0000
  C   C451      1.0  0.09992  0.21694  0.83712  1.0000
  C   C452      1.0  0.14213  0.19099  0.84882  1.0000
  C   C453      1.0  0.12431  0.25759  0.82286  1.0000
  C   C454      1.0  0.11211  0.19390  0.81022  1.0000
  C   C455      1.0  0.07969  0.22872  0.82963  1.0000
  H   H790      1.0  0.15750  0.21336  0.83128  1.0000
  H   H791      1.0  0.13714  0.22662  0.84386  1.0000
  H   H792      1.0  0.19903  0.00757  0.89765  1.0000
  H   H793      1.0  0.99234  0.15159  0.88912  1.0000
  C   C456      1.0  0.37538  0.20595  0.77823  1.0000
  C   C457      1.0  0.15410  0.00376  0.90132  1.0000
  H   H794      1.0  0.17828  0.02033  0.80869  1.0000
  C   C458      1.0  0.07103  0.23542  0.92907  1.0000
  H   H795      1.0  0.99203  0.30770  0.91804  1.0000
  H   H796      1.0  0.22518  0.30752  0.86174  1.0000
  C   C459      1.0  0.42900  0.30010  0.89826  1.0000
  C   C460      1.0  0.47628  0.29965  0.92066  1.0000
  H   H797      1.0  0.07481  0.23942  0.93901  1.0000
  H   H798      1.0  0.39450  0.30751  0.92578  1.0000
  H   H799      1.0  0.48565  0.05277  0.88335  1.0000
  H   H800      1.0  0.20154  0.10977  0.72782  1.0000
  C   C461      1.0  0.05674  0.21079  0.90980  1.0000
  C   C462      1.0  0.00199  0.12471  0.86689  1.0000
  H   H801      1.0  0.03874  0.20157  0.96489  1.0000
  C   C463      1.0  0.47299  0.27743  0.92127  1.0000
  C   C464      1.0  0.37332  0.24789  0.74308  1.0000
  H   H802      1.0  0.05005  0.20855  0.90036  1.0000
  C   C465      1.0  0.47968  0.26678  0.90915  1.0000
  H   H803      1.0  0.44619  0.30176  0.89952  1.0000
  H   H804      1.0  0.01420  0.13648  0.84422  1.0000
  C   C466      1.0  0.20535  0.99652  0.88951  1.0000
  H   H805      1.0  0.00809  0.13294  0.90195  1.0000
  H   H806      1.0  0.05812  0.19436  0.91687  1.0000
  C   C467      1.0  0.13934  0.99644  0.87415  1.0000
  C   C468      1.0  0.31621  0.26743  0.72441  1.0000
  H   H807      1.0  0.99808  0.08148  0.90268  1.0000
  H   H808      1.0  0.23791  0.18337  0.72923  1.0000
  H   H809      1.0  0.07661  0.27029  0.92097  1.0000
  C   C469      1.0  0.04704  0.30992  0.90358  1.0000
  H   H810      1.0  0.99574  0.00820  0.95362  1.0000
  H   H811      1.0  0.99810  0.10958  0.86362  1.0000
  H   H812      1.0  0.44673  0.09772  0.90773  1.0000
  H   H813      1.0  0.99891  0.27268  0.93965  1.0000
  H   H814      1.0  0.47329  0.09160  0.89691  1.0000
  H   H815      1.0  0.00015  0.25177  0.92897  1.0000
  C   C470      1.0  0.23174  0.15245  0.72483  1.0000
  H   H816      1.0  0.03272  0.23131  0.96114  1.0000
  H   H817      1.0  0.38834  0.31561  0.88757  1.0000
  C   C471      1.0  0.49000  0.27823  0.89640  1.0000
  H   H818      1.0  0.19548  0.62508  0.20851  1.0000
  Fe  Fe68      1.0  0.18335  0.58452  0.17189  1.0000
  S   S130      1.0  0.19554  0.60670  0.15181  1.0000
  S   S131      1.0  0.18354  0.54680  0.17572  1.0000
  Fe  Fe69      1.0  0.16484  0.62453  0.18769  1.0000
  C   C472      1.0  0.00439  0.34389  0.03991  1.0000
  H   H819      1.0  0.15122  0.43076  0.04586  1.0000
  H   H820      1.0  0.47367  0.47757  0.04010  1.0000
  H   H821      1.0  0.18975  0.37628  0.06402  1.0000
  Fe  Fe70      1.0  0.20702  0.62618  0.16594  1.0000
  H   H822      1.0  0.19260  0.40319  0.03392  1.0000
  S   S132      1.0  0.14919  0.60537  0.17550  1.0000
  S   S133      1.0  0.19790  0.60182  0.18569  1.0000
  H   H823      1.0  0.17199  0.40288  0.06041  1.0000
  Fe  Fe71      1.0  0.42692  0.35206  0.07893  1.0000
  S   S134      1.0  0.40601  0.36103  0.06130  1.0000
  H   H824      1.0  0.03588  0.54223  0.08929  1.0000
  Fe  Fe72      1.0  0.44714  0.39570  0.07074  1.0000
  S   S135      1.0  0.42799  0.40829  0.05250  1.0000
  H   H825      1.0  0.13889  0.39683  0.05226  1.0000
  Fe  Fe73      1.0  0.39840  0.39541  0.06756  1.0000
  S   S136      1.0  0.36463  0.41827  0.06958  1.0000
  Fe  Fe74      1.0  0.43714  0.37302  0.04777  1.0000
  S   S137      1.0  0.45397  0.36308  0.02642  1.0000
  S   S138      1.0  0.41700  0.38558  0.08611  1.0000
  S   S139      1.0  0.45857  0.36129  0.06508  1.0000
  Fe  Fe75      1.0  0.08056  0.37076  0.04128  1.0000
  S   S140      1.0  0.04319  0.37997  0.04703  1.0000
  S   S141      1.0  0.10126  0.36078  0.02088  1.0000
  Fe  Fe76      1.0  0.08954  0.37531  0.07048  1.0000
  S   S142      1.0  0.05286  0.38549  0.07875  1.0000
  S   S143      1.0  0.11865  0.36556  0.08289  1.0000
  Fe  Fe77      1.0  0.04723  0.35795  0.06805  1.0000
  Fe  Fe78      1.0  0.05152  0.40681  0.05718  1.0000
  S   S144      1.0  0.03596  0.44274  0.05057  1.0000
  S   S145      1.0  0.08378  0.34631  0.06137  1.0000
  S   S146      1.0  0.08883  0.39901  0.04991  1.0000
  Fe  Fe79      1.0  0.21946  0.45153  0.12646  1.0000
  S   S147      1.0  0.23072  0.44169  0.10465  1.0000
  S   S148      1.0  0.22608  0.48633  0.12785  1.0000
  Fe  Fe80      1.0  0.20305  0.40651  0.13878  1.0000
  S   S149      1.0  0.21255  0.39364  0.11796  1.0000
  S   S150      1.0  0.18605  0.38690  0.15892  1.0000
  Fe  Fe81      1.0  0.24454  0.40814  0.11595  1.0000
  S   S151      1.0  0.27826  0.38630  0.11073  1.0000
  Fe  Fe82      1.0  0.19793  0.42817  0.10847  1.0000
  S   S152      1.0  0.17440  0.43745  0.09212  1.0000
  S   S153      1.0  0.23588  0.41881  0.13755  1.0000
  S   S154      1.0  0.18579  0.44023  0.12949  1.0000
  C   C473      1.0  0.02752  0.54701  0.07964  1.0000
  C   C474      1.0  0.01127  0.45603  0.06010  1.0000
  C   C475      1.0  0.05363  0.32084  0.03571  1.0000
  C   C476      1.0  0.16311  0.35998  0.04892  1.0000
  H   H826      1.0  0.17858  0.34720  0.04839  1.0000
  S   S155      1.0  0.02252  0.33460  0.07930  1.0000
  C   C477      1.0  0.02760  0.57231  0.07466  1.0000
  H   H827      1.0  0.99858  0.54791  0.10375  1.0000
  C   C478      1.0  0.13423  0.38583  0.08491  1.0000
  C   C479      1.0  0.12740  0.40868  0.08067  1.0000
  C   C480      1.0  0.13998  0.42439  0.08282  1.0000
  C   C481      1.0  0.15923  0.41734  0.08937  1.0000
  C   C482      1.0  0.16621  0.39446  0.09340  1.0000
  C   C483      1.0  0.15384  0.37876  0.09107  1.0000
  H   H828      1.0  0.11232  0.41428  0.07588  1.0000
  H   H829      1.0  0.13460  0.44209  0.07960  1.0000
  H   H830      1.0  0.18124  0.38888  0.09821  1.0000
  H   H831      1.0  0.15937  0.36107  0.09419  1.0000
  C   C484      1.0  0.06556  0.37431  0.00597  1.0000
  C   C485      1.0  0.08811  0.36454  0.00570  1.0000
  C   C486      1.0  0.10010  0.35643  0.99339  1.0000
  H   H832      1.0  0.05631  0.38099  0.01529  1.0000
  H   H833      1.0  0.01401  0.34497  0.04827  1.0000
  C   C487      1.0  0.20385  0.34604  0.15041  1.0000
  C   C488      1.0  0.19018  0.35735  0.16091  1.0000
  C   C489      1.0  0.17869  0.34501  0.17293  1.0000
  N   N36       1.0  0.16704  0.38113  0.03855  1.0000
  H   H834      1.0  0.16816  0.35364  0.18114  1.0000
  C   C490      1.0  0.20670  0.55055  0.21148  1.0000
  C   C491      1.0  0.34066  0.40903  0.08087  1.0000
  C   C492      1.0  0.34191  0.38783  0.08926  1.0000
  C   C493      1.0  0.32256  0.38103  0.09820  1.0000
  C   C494      1.0  0.30183  0.39536  0.09889  1.0000
  C   C495      1.0  0.30056  0.41659  0.09051  1.0000
  C   C496      1.0  0.31993  0.42341  0.08157  1.0000
  H   H835      1.0  0.35777  0.37660  0.08881  1.0000
  H   H836      1.0  0.32369  0.36457  0.10464  1.0000
  H   H837      1.0  0.28463  0.42766  0.09086  1.0000
  H   H838      1.0  0.31879  0.43978  0.07504  1.0000
  H   H839      1.0  0.01234  0.43289  0.07971  1.0000
  C   C497      1.0  0.40880  0.32573  0.01177  1.0000
  C   C498      1.0  0.41641  0.39730  0.99654  1.0000
  C   C499      1.0  0.42374  0.38897  0.00974  1.0000
  C   C500      1.0  0.44509  0.37630  0.01018  1.0000
  C   C501      1.0  0.45929  0.37266  0.99737  1.0000
  S   S156      1.0  0.14372  0.64046  0.13715  1.0000
  H   H840      1.0  0.39965  0.40659  0.99627  1.0000
  H   H841      1.0  0.41266  0.39182  0.01956  1.0000
  H   H842      1.0  0.47587  0.36296  0.99766  1.0000
  C   C502      1.0  0.17078  0.37541  0.02372  1.0000
  N   N37       1.0  0.13245  0.36267  0.14222  1.0000
  H   H843      1.0  0.22439  0.55314  0.21080  1.0000
  H   H844      1.0  0.16408  0.42690  0.02782  1.0000
  C   C503      1.0  0.19638  0.52972  0.16271  1.0000
  C   C504      1.0  0.19141  0.50784  0.16437  1.0000
  C   C505      1.0  0.20047  0.49419  0.15386  1.0000
  C   C506      1.0  0.21480  0.50228  0.14167  1.0000
  C   C507      1.0  0.22017  0.52396  0.14018  1.0000
  C   C508      1.0  0.21095  0.53766  0.15061  1.0000
  H   H845      1.0  0.18020  0.50152  0.17372  1.0000
  H   H846      1.0  0.19626  0.47751  0.15514  1.0000
  H   H847      1.0  0.23133  0.53031  0.13082  1.0000
  H   H848      1.0  0.21507  0.55439  0.14927  1.0000
  C   C509      1.0  0.02615  0.49943  0.07852  1.0000
  H   H849      1.0  0.20193  0.40099  0.05664  1.0000
  H   H850      1.0  0.14355  0.37319  0.15956  1.0000
  H   H851      1.0  0.11052  0.34046  0.12313  1.0000
  H   H852      1.0  0.11758  0.34899  0.99306  1.0000
  H   H853      1.0  0.40631  0.33961  0.01806  1.0000
  S   S157      1.0  0.14717  0.63428  0.20890  1.0000
  H   H854      1.0  0.02754  0.35410  0.02111  1.0000
  H   H855      1.0  0.01486  0.51085  0.09876  1.0000
  C   C510      1.0  0.47340  0.44830  0.05640  1.0000
  C   C511      1.0  0.39183  0.35216  0.97767  1.0000
  H   H856      1.0  0.21298  0.35529  0.14120  1.0000
  H   H857      1.0  0.01646  0.58281  0.08208  1.0000
  H   H858      1.0  0.46289  0.44050  0.05162  1.0000
  N   N38       1.0  0.03701  0.31831  0.02665  1.0000
  H   H859      1.0  0.12440  0.40538  0.12384  1.0000
  H   H860      1.0  0.42381  0.34978  0.99534  1.0000
  H   H861      1.0  0.13446  0.43331  0.03254  1.0000
  C   C512      1.0  0.05477  0.37484  0.99429  1.0000
  C   C513      1.0  0.06660  0.36616  0.98212  1.0000
  N   N39       1.0  0.40506  0.47531  0.07373  1.0000
  C   C514      1.0  0.42019  0.45688  0.08161  1.0000
  C   C515      1.0  0.42005  0.48792  0.06192  1.0000
  C   C516      1.0  0.38966  0.46426  0.06767  1.0000
  C   C517      1.0  0.39171  0.48994  0.08419  1.0000
  C   C518      1.0  0.40824  0.44113  0.09391  1.0000
  C   C519      1.0  0.43561  0.50126  0.06666  1.0000
  C   C520      1.0  0.37968  0.47736  0.05449  1.0000
  C   C521      1.0  0.37684  0.51131  0.07811  1.0000
  H   H862      1.0  0.43084  0.44608  0.07411  1.0000
  H   H863      1.0  0.43211  0.46370  0.08638  1.0000
  H   H864      1.0  0.41032  0.50021  0.05458  1.0000
  H   H865      1.0  0.43074  0.47617  0.05503  1.0000
  H   H866      1.0  0.39863  0.44814  0.06435  1.0000
  H   H867      1.0  0.37520  0.45968  0.07593  1.0000
  H   H868      1.0  0.37998  0.48040  0.09225  1.0000
  H   H869      1.0  0.40273  0.49470  0.09071  1.0000
  H   H870      1.0  0.39593  0.43301  0.09041  1.0000
  H   H871      1.0  0.42114  0.42750  0.09802  1.0000
  H   H872      1.0  0.20272  0.55562  0.20053  1.0000
  H   H873      1.0  0.42601  0.51425  0.07292  1.0000
  H   H874      1.0  0.44826  0.49034  0.07270  1.0000
  H   H875      1.0  0.44529  0.51016  0.05704  1.0000
  H   H876      1.0  0.36691  0.46816  0.05240  1.0000
  H   H877      1.0  0.39280  0.47812  0.04484  1.0000
  H   H878      1.0  0.37115  0.49439  0.05592  1.0000
  H   H879      1.0  0.35993  0.50770  0.07753  1.0000
  H   H880      1.0  0.38432  0.51951  0.06757  1.0000
  H   H881      1.0  0.37478  0.52404  0.08519  1.0000
  N   N40       1.0  0.29769  0.44584  0.13218  1.0000
  C   C522      1.0  0.30547  0.42536  0.12503  1.0000
  C   C523      1.0  0.28125  0.46136  0.12364  1.0000
  C   C524      1.0  0.28617  0.43834  0.14715  1.0000
  C   C525      1.0  0.31809  0.45615  0.13242  1.0000
  C   C526      1.0  0.32048  0.40579  0.13289  1.0000
  C   C527      1.0  0.29089  0.47095  0.10826  1.0000
  C   C528      1.0  0.26840  0.45573  0.15434  1.0000
  C   C529      1.0  0.31387  0.47864  0.13803  1.0000
  H   H882      1.0  0.29067  0.41850  0.12346  1.0000
  H   H883      1.0  0.31527  0.42955  0.11424  1.0000
  H   H884      1.0  0.27319  0.47609  0.12876  1.0000
  H   H885      1.0  0.26704  0.45269  0.12307  1.0000
  H   H886      1.0  0.27709  0.42407  0.14743  1.0000
  H   H887      1.0  0.29878  0.43176  0.15442  1.0000
  H   H888      1.0  0.32934  0.44463  0.13929  1.0000
  H   H889      1.0  0.32893  0.45809  0.12177  1.0000
  H   H890      1.0  0.32423  0.39170  0.12669  1.0000
  H   H891      1.0  0.33690  0.41034  0.13357  1.0000
  H   H892      1.0  0.31196  0.39921  0.14362  1.0000
  H   H893      1.0  0.30443  0.48088  0.10790  1.0000
  H   H894      1.0  0.29688  0.45780  0.10146  1.0000
  H   H895      1.0  0.27716  0.48247  0.10340  1.0000
  H   H896      1.0  0.26348  0.44874  0.16573  1.0000
  H   H897      1.0  0.25280  0.45915  0.14951  1.0000
  H   H898      1.0  0.27450  0.47168  0.15400  1.0000
  H   H899      1.0  0.31246  0.47590  0.14981  1.0000
  H   H900      1.0  0.29890  0.49007  0.13482  1.0000
  H   H901      1.0  0.32818  0.48793  0.13330  1.0000
  N   N41       1.0  0.00503  0.53885  0.08265  1.0000
  C   C530      1.0  0.00908  0.51402  0.08822  1.0000
  C   C531      1.0  0.17567  0.39447  0.01131  1.0000
  C   C532      1.0  0.42538  0.33132  0.99798  1.0000
  H   H902      1.0  0.02358  0.57752  0.06371  1.0000
  Fe  Fe83      1.0  0.16203  0.62864  0.15614  1.0000
  H   H903      1.0  0.12904  0.54847  0.21532  1.0000
  C   C533      1.0  0.11545  0.35613  0.16910  1.0000
  H   H904      1.0  0.46796  0.33898  0.10335  1.0000
  H   H905      1.0  0.03714  0.38175  0.99473  1.0000
  H   H906      1.0  0.19076  0.40170  0.01176  1.0000
  H   H907      1.0  0.19257  0.58282  0.21768  1.0000
  H   H908      1.0  0.15567  0.36962  0.02164  1.0000
  H   H909      1.0  0.16002  0.58452  0.20670  1.0000
  C   C534      1.0  0.13226  0.56604  0.21295  1.0000
  H   H910      1.0  0.02231  0.50224  0.06754  1.0000
  H   H911      1.0  0.03905  0.53890  0.07110  1.0000
  C   C535      1.0  0.18746  0.62939  0.21874  1.0000
  H   H912      1.0  0.04372  0.50192  0.07830  1.0000
  H   H913      1.0  0.16077  0.40769  0.01058  1.0000
  C   C536      1.0  0.18817  0.38793  0.04121  1.0000
  H   H914      1.0  0.46305  0.37805  0.97443  1.0000
  H   H915      1.0  0.10050  0.38199  0.13729  1.0000
  H   H916      1.0  0.15272  0.41042  0.12148  1.0000
  H   H917      1.0  0.11723  0.38788  0.15563  1.0000
  H   H918      1.0  0.16900  0.60296  0.10768  1.0000
  H   H919      1.0  0.06066  0.33043  0.00832  1.0000
  H   H920      1.0  0.06049  0.33686  0.03169  1.0000
  C   C537      1.0  0.13957  0.40208  0.12905  1.0000
  H   H921      1.0  0.20291  0.37479  0.03891  1.0000
  H   H922      1.0  0.00743  0.33814  0.01875  1.0000
  H   H923      1.0  0.38785  0.31970  0.98932  1.0000
  S   S158      1.0  0.24176  0.63611  0.16242  1.0000
  C   C538      1.0  0.18766  0.39222  0.05646  1.0000
  H   H924      1.0  0.17906  0.38761  0.00116  1.0000
  H   H925      1.0  0.02535  0.48149  0.08288  1.0000
  H   H926      1.0  0.46619  0.64783  0.06444  1.0000
  C   C539      1.0  0.14651  0.39868  0.04077  1.0000
  C   C540      1.0  0.47963  0.46922  0.04986  1.0000
  H   H927      1.0  0.18488  0.36125  0.02252  1.0000
  C   C541      1.0  0.14989  0.42354  0.03642  1.0000
  H   H928      1.0  0.09616  0.36823  0.11763  1.0000
  C   C542      1.0  0.99473  0.54237  0.06926  1.0000
  C   C543      1.0  0.45205  0.38115  0.98420  1.0000
  H   H929      1.0  0.16438  0.37505  0.13660  1.0000
  H   H930      1.0  0.15932  0.36337  0.06008  1.0000
  H   H931      1.0  0.13339  0.39610  0.03496  1.0000
  C   C544      1.0  0.19133  0.56490  0.22206  1.0000
  H   H932      1.0  0.99377  0.36049  0.03788  1.0000
  S   S159      1.0  0.47090  0.41288  0.07877  1.0000
  H   H933      1.0  0.19738  0.59713  0.11068  1.0000
  C   C545      1.0  0.16415  0.63570  0.22146  1.0000
  C   C546      1.0  0.14841  0.37683  0.13226  1.0000
  C   C547      1.0  0.14343  0.33845  0.14454  1.0000
  H   H934      1.0  0.14962  0.33113  0.12238  1.0000
  H   H935      1.0  0.15372  0.37116  0.12180  1.0000
  C   C548      1.0  0.08943  0.35738  0.98158  1.0000
  H   H936      1.0  0.14803  0.33962  0.03782  1.0000
  C   C549      1.0  0.40081  0.32695  0.98103  1.0000
  H   H937      1.0  0.13636  0.41019  0.13868  1.0000
  N   N42       1.0  0.15647  0.56392  0.12891  1.0000
  C   C550      1.0  0.15950  0.53870  0.13294  1.0000
  C   C551      1.0  0.15163  0.57356  0.14258  1.0000
  C   C552      1.0  0.17844  0.57009  0.12043  1.0000
  C   C553      1.0  0.13763  0.57113  0.12016  1.0000
  C   C554      1.0  0.16806  0.52507  0.12062  1.0000
  C   C555      1.0  0.13133  0.56610  0.15335  1.0000
  C   C556      1.0  0.17985  0.59520  0.11581  1.0000
  C   C557      1.0  0.12520  0.59544  0.12001  1.0000
  H   H938      1.0  0.17138  0.53300  0.14070  1.0000
  H   H939      1.0  0.14341  0.53294  0.13849  1.0000
  H   H940      1.0  0.14875  0.59207  0.14069  1.0000
  H   H941      1.0  0.16656  0.56905  0.14815  1.0000
  H   H942      1.0  0.19247  0.56282  0.12654  1.0000
  H   H943      1.0  0.18268  0.56293  0.11037  1.0000
  H   H944      1.0  0.14388  0.56870  0.10891  1.0000
  H   H945      1.0  0.12430  0.56030  0.12420  1.0000
  H   H946      1.0  0.18624  0.52551  0.11658  1.0000
  H   H947      1.0  0.16655  0.50716  0.12469  1.0000
  H   H948      1.0  0.15818  0.53068  0.11178  1.0000
  H   H949      1.0  0.12664  0.57724  0.16156  1.0000
  H   H950      1.0  0.11635  0.56708  0.14828  1.0000
  H   H951      1.0  0.13575  0.54885  0.15904  1.0000
  H   H952      1.0  0.17611  0.60457  0.12487  1.0000
  H   H953      1.0  0.11927  0.60152  0.10961  1.0000
  H   H954      1.0  0.13542  0.60770  0.12132  1.0000
  H   H955      1.0  0.10971  0.59605  0.12813  1.0000
  H   H956      1.0  0.16622  0.55600  0.20425  1.0000
  C   C558      1.0  0.14357  0.34859  0.04712  1.0000
  H   H957      1.0  0.13981  0.33588  0.05669  1.0000
  H   H958      1.0  0.12792  0.36063  0.04615  1.0000
  H   H959      1.0  0.12555  0.36332  0.11458  1.0000
  H   H960      1.0  0.39997  0.44985  0.10298  1.0000
  C   C559      1.0  0.11093  0.35863  0.12235  1.0000
  H   H961      1.0  0.09912  0.35398  0.14457  1.0000
  H   H962      1.0  0.00570  0.48205  0.04227  1.0000
  H   H963      1.0  0.12571  0.33955  0.17184  1.0000
  H   H964      1.0  0.39175  0.32477  0.00997  1.0000
  H   H965      1.0  0.99319  0.50677  0.09013  1.0000
  C   C560      1.0  0.43039  0.39311  0.98375  1.0000
  C   C561      1.0  0.48342  0.64267  0.06705  1.0000
  C   C562      1.0  0.99980  0.47583  0.05331  1.0000
  H   H966      1.0  0.17408  0.33657  0.12841  1.0000
  H   H967      1.0  0.44241  0.32633  0.00107  1.0000
  H   H968      1.0  0.04568  0.32232  0.04679  1.0000
  H   H969      1.0  0.02721  0.33584  0.99700  1.0000
  H   H970      1.0  0.04490  0.57596  0.07411  1.0000
  H   H971      1.0  0.99265  0.33151  0.04393  1.0000
  H   H972      1.0  0.99651  0.48798  0.98826  1.0000
  C   C563      1.0  0.04992  0.31704  0.01179  1.0000
  H   H973      1.0  0.00786  0.53874  0.05999  1.0000
  H   H974      1.0  0.15478  0.33580  0.15259  1.0000
  H   H975      1.0  0.12730  0.57297  0.20234  1.0000
  C   C564      1.0  0.12767  0.37101  0.15637  1.0000
  H   H976      1.0  0.39154  0.36116  0.98661  1.0000
  C   C565      1.0  0.11026  0.36488  0.13709  1.0000
  C   C566      1.0  0.01943  0.33899  0.02585  1.0000
  H   H977      1.0  0.37421  0.35429  0.97571  1.0000
  S   S160      1.0  0.42499  0.32199  0.09645  1.0000
  C   C567      1.0  0.48612  0.33638  0.10428  1.0000
  H   H978      1.0  0.13059  0.32718  0.14903  1.0000
  C   C568      1.0  0.48032  0.43784  0.06933  1.0000
  C   C569      1.0  0.20571  0.32266  0.15177  1.0000
  H   H979      1.0  0.11264  0.36445  0.17865  1.0000
  C   C570      1.0  0.15741  0.56722  0.21195  1.0000
  H   H980      1.0  0.12126  0.57631  0.22054  1.0000
  C   C571      1.0  0.18039  0.32158  0.17424  1.0000
  N   N43       1.0  0.42391  0.32110  0.98528  1.0000
  C   C572      1.0  0.46552  0.32384  0.97407  1.0000
  C   C573      1.0  0.00356  0.44809  0.07438  1.0000
  H   H981      1.0  0.46997  0.33059  0.98283  1.0000
  C   C574      1.0  0.03581  0.31850  0.99994  1.0000
  H   H982      1.0  0.20612  0.53239  0.21488  1.0000
  C   C575      1.0  0.15835  0.32903  0.13163  1.0000
  H   H983      1.0  0.09871  0.35386  0.16735  1.0000
  H   H984      1.0  0.48814  0.34871  0.11075  1.0000
  H   H985      1.0  0.48300  0.63673  0.07864  1.0000
  H   H986      1.0  0.01346  0.45461  0.98112  1.0000
  H   H987      1.0  0.10998  0.64811  0.16202  1.0000
  C   C576      1.0  0.11419  0.64797  0.13948  1.0000
  S   S161      1.0  0.23425  0.59932  0.31800  1.0000
  Fe  Fe84      1.0  0.03174  0.52348  0.45643  1.0000
  S   S162      1.0  0.05673  0.49546  0.44817  1.0000
  Fe  Fe85      1.0  0.01985  0.54375  0.42707  1.0000
  S   S163      1.0  0.04298  0.51664  0.41674  1.0000
  H   H988      1.0  0.28265  0.52964  0.39970  1.0000
  Fe  Fe86      1.0  0.03008  0.49280  0.43573  1.0000
  Fe  Fe87      1.0  0.06743  0.52176  0.42989  1.0000
  S   S164      1.0  0.10122  0.52761  0.41701  1.0000
  S   S165      1.0  0.04492  0.55032  0.43930  1.0000
  Fe  Fe88      1.0  0.21363  0.48441  0.36323  1.0000
  S   S166      1.0  0.24752  0.46563  0.35595  1.0000
  S   S167      1.0  0.19294  0.51310  0.35093  1.0000
  Fe  Fe89      1.0  0.20755  0.45330  0.39117  1.0000
  S   S168      1.0  0.24121  0.43167  0.38627  1.0000
  S   S169      1.0  0.18180  0.44725  0.41097  1.0000
  Fe  Fe90      1.0  0.25445  0.46457  0.37825  1.0000
  S   S170      1.0  0.28903  0.47336  0.37946  1.0000
  Fe  Fe91      1.0  0.23172  0.43425  0.36449  1.0000
  S   S171      1.0  0.23913  0.40588  0.35104  1.0000
  S   S172      1.0  0.22134  0.48578  0.38474  1.0000
  S   S173      1.0  0.19737  0.45339  0.37014  1.0000
  Fe  Fe92      1.0  0.36655  0.51200  0.42865  1.0000
  S   S174      1.0  0.39223  0.52518  0.41058  1.0000
  S   S175      1.0  0.33251  0.50215  0.42734  1.0000
  Fe  Fe93      1.0  0.39607  0.51329  0.45128  1.0000
  S   S176      1.0  0.42355  0.52627  0.43471  1.0000
  Fe  Fe94      1.0  0.39580  0.54902  0.42481  1.0000
  S   S177      1.0  0.39650  0.58639  0.41819  1.0000
  Fe  Fe95      1.0  0.41789  0.50133  0.42221  1.0000
  S   S178      1.0  0.44828  0.48106  0.41090  1.0000
  S   S179      1.0  0.36825  0.53767  0.44225  1.0000
  S   S180      1.0  0.39213  0.48654  0.43934  1.0000
  H   H989      1.0  0.38435  0.48015  0.39837  1.0000
  N   N44       1.0  0.07678  0.58707  0.38477  1.0000
  H   H990      1.0  0.37036  0.46439  0.42215  1.0000
  S   S181      1.0  0.17211  0.35046  0.33360  1.0000
  H   H991      1.0  0.47689  0.52424  0.45830  1.0000
  S   S182      1.0  0.02465  0.45746  0.43557  1.0000
  C   C577      1.0  0.41866  0.60162  0.36938  1.0000
  H   H992      1.0  0.47902  0.58104  0.40760  1.0000
  H   H993      1.0  0.41868  0.55501  0.46066  1.0000
  H   H994      1.0  0.14369  0.53790  0.25288  1.0000
  H   H995      1.0  0.47885  0.56288  0.45623  1.0000
  C   C578      1.0  0.40702  0.45092  0.40749  1.0000
  H   H996      1.0  0.11756  0.58730  0.35365  1.0000
  C   C579      1.0  0.45914  0.45544  0.42068  1.0000
  C   C580      1.0  0.08168  0.59387  0.40946  1.0000
  C   C581      1.0  0.42263  0.57135  0.45450  1.0000
  S   S183      1.0  0.20814  0.63412  0.25512  1.0000
  C   C582      1.0  0.45636  0.42667  0.44162  1.0000
  C   C583      1.0  0.44861  0.44789  0.43442  1.0000
  H   H997      1.0  0.40597  0.41367  0.39846  1.0000
  C   C584      1.0  0.11131  0.59138  0.36454  1.0000
  H   H998      1.0  0.44773  0.42072  0.45210  1.0000
  H   H999      1.0  0.43434  0.45825  0.43948  1.0000
  C   C585      1.0  0.32862  0.64136  0.26250  1.0000
  C   C586      1.0  0.42228  0.59690  0.41502  1.0000
  C   C587      1.0  0.44290  0.58290  0.41264  1.0000
  N   N45       1.0  0.39064  0.43492  0.41443  1.0000
  H   H1000     1.0  0.02288  0.59407  0.42717  1.0000
  H   H1001     1.0  0.44325  0.56519  0.41288  1.0000
  H   H1002     1.0  0.12888  0.53869  0.23837  1.0000
  H   H1003     1.0  0.38138  0.43132  0.39462  1.0000
  C   C588      1.0  0.22017  0.39086  0.34617  1.0000
  C   C589      1.0  0.19741  0.39266  0.35224  1.0000
  C   C590      1.0  0.18305  0.38031  0.34815  1.0000
  C   C591      1.0  0.19118  0.36589  0.33800  1.0000
  C   C592      1.0  0.21391  0.36422  0.33183  1.0000
  C   C593      1.0  0.22828  0.37660  0.33592  1.0000
  H   H1004     1.0  0.19090  0.40342  0.36018  1.0000
  H   H1005     1.0  0.16552  0.38178  0.35299  1.0000
  H   H1006     1.0  0.22038  0.35351  0.32387  1.0000
  H   H1007     1.0  0.24583  0.37511  0.33110  1.0000
  C   C594      1.0  0.30083  0.48089  0.39308  1.0000
  C   C595      1.0  0.28951  0.48065  0.40707  1.0000
  C   C596      1.0  0.29949  0.48719  0.41736  1.0000
  C   C597      1.0  0.32078  0.49427  0.41382  1.0000
  C   C598      1.0  0.33194  0.49480  0.39978  1.0000
  C   C599      1.0  0.32215  0.48791  0.38955  1.0000
  H   H1008     1.0  0.27312  0.47533  0.41000  1.0000
  H   H1009     1.0  0.29061  0.48676  0.42816  1.0000
  H   H1010     1.0  0.34805  0.50063  0.39677  1.0000
  H   H1011     1.0  0.33104  0.48831  0.37875  1.0000
  C   C600      1.0  0.12353  0.50514  0.41575  1.0000
  C   C601      1.0  0.14097  0.50677  0.40409  1.0000
  C   C602      1.0  0.15886  0.48908  0.40259  1.0000
  C   C603      1.0  0.15967  0.46977  0.41288  1.0000
  C   C604      1.0  0.14227  0.46816  0.42460  1.0000
  C   C605      1.0  0.12415  0.48577  0.42600  1.0000
  H   H1012     1.0  0.14060  0.52170  0.39613  1.0000
  H   H1013     1.0  0.17200  0.49040  0.39343  1.0000
  H   H1014     1.0  0.14283  0.45326  0.43259  1.0000
  H   H1015     1.0  0.11085  0.48447  0.43509  1.0000
  C   C606      1.0  0.44806  0.59943  0.44951  1.0000
  H   H1016     1.0  0.40621  0.63076  0.41660  1.0000
  H   H1017     1.0  0.48037  0.43219  0.47248  1.0000
  C   C607      1.0  0.39986  0.46876  0.39500  1.0000
  H   H1018     1.0  0.09543  0.56236  0.37192  1.0000
  C   C608      1.0  0.22266  0.57525  0.32681  1.0000
  C   C609      1.0  0.23697  0.55583  0.33152  1.0000
  C   C610      1.0  0.22808  0.53669  0.33916  1.0000
  C   C611      1.0  0.20479  0.53690  0.34191  1.0000
  C   C612      1.0  0.19052  0.55613  0.33690  1.0000
  C   C613      1.0  0.19940  0.57531  0.32944  1.0000
  H   H1019     1.0  0.25496  0.55569  0.32915  1.0000
  H   H1020     1.0  0.23919  0.52174  0.34273  1.0000
  H   H1021     1.0  0.17249  0.55631  0.33889  1.0000
  H   H1022     1.0  0.18823  0.59023  0.32585  1.0000
  H   H1023     1.0  0.24291  0.52559  0.37595  1.0000
  H   H1024     1.0  0.03328  0.57822  0.38041  1.0000
  H   H1025     1.0  0.27921  0.64435  0.28006  1.0000
  H   H1026     1.0  0.24080  0.54356  0.40383  1.0000
  H   H1027     1.0  0.38768  0.58233  0.45228  1.0000
  S   S184      1.0  0.48279  0.38580  0.44418  1.0000
  H   H1028     1.0  0.25411  0.59238  0.34716  1.0000
  S   S185      1.0  0.00448  0.51931  0.44492  1.0000
  H   H1029     1.0  0.26046  0.57192  0.38977  1.0000
  H   H1030     1.0  0.07372  0.55283  0.39482  1.0000
  H   H1031     1.0  0.42367  0.44190  0.40325  1.0000
  H   H1032     1.0  0.40340  0.63200  0.38852  1.0000
  H   H1033     1.0  0.24159  0.33427  0.35419  1.0000
  H   H1034     1.0  0.13698  0.57488  0.23933  1.0000
  C   C614      1.0  0.47109  0.60600  0.44981  1.0000
  N   N46       1.0  0.21033  0.46962  0.31855  1.0000
  C   C615      1.0  0.22548  0.44935  0.32476  1.0000
  C   C616      1.0  0.18858  0.47162  0.32892  1.0000
  C   C617      1.0  0.22157  0.48987  0.31763  1.0000
  C   C618      1.0  0.20729  0.46641  0.30400  1.0000
  C   C619      1.0  0.24994  0.44543  0.31692  1.0000
  C   C620      1.0  0.17595  0.45126  0.33196  1.0000
  C   C621      1.0  0.20889  0.51273  0.31176  1.0000
  C   C622      1.0  0.18601  0.47975  0.29818  1.0000
  H   H1035     1.0  0.22636  0.45013  0.33602  1.0000
  H   H1036     1.0  0.21856  0.43369  0.32512  1.0000
  H   H1037     1.0  0.17655  0.48659  0.32564  1.0000
  H   H1038     1.0  0.19182  0.47421  0.33938  1.0000
  H   H1039     1.0  0.22508  0.49109  0.32832  1.0000
  H   H1040     1.0  0.23817  0.48842  0.31058  1.0000
  H   H1041     1.0  0.22221  0.47042  0.29597  1.0000
  H   H1042     1.0  0.20653  0.44843  0.30399  1.0000
  H   H1043     1.0  0.25806  0.42843  0.32120  1.0000
  H   H1044     1.0  0.25087  0.44612  0.30532  1.0000
  H   H1045     1.0  0.26007  0.45737  0.31898  1.0000
  H   H1046     1.0  0.18429  0.43723  0.33909  1.0000
  H   H1047     1.0  0.15868  0.45595  0.33766  1.0000
  H   H1048     1.0  0.17442  0.44532  0.32213  1.0000
  H   H1049     1.0  0.19210  0.51689  0.31814  1.0000
  H   H1050     1.0  0.20769  0.51395  0.30037  1.0000
  H   H1051     1.0  0.21868  0.52601  0.31230  1.0000
  H   H1052     1.0  0.19054  0.48552  0.28657  1.0000
  H   H1053     1.0  0.17822  0.49483  0.30294  1.0000
  H   H1054     1.0  0.17315  0.46868  0.29919  1.0000
  C   C623      1.0  0.38901  0.42077  0.40366  1.0000
  N   N47       1.0  0.09059  0.45815  0.39784  1.0000
  C   C624      1.0  0.08173  0.47747  0.38719  1.0000
  C   C625      1.0  0.08229  0.43749  0.39582  1.0000
  C   C626      1.0  0.11608  0.45518  0.39476  1.0000
  C   C627      1.0  0.08184  0.46402  0.41251  1.0000
  C   C628      1.0  0.09079  0.49973  0.38615  1.0000
  C   C629      1.0  0.05650  0.43841  0.39807  1.0000
  C   C630      1.0  0.12909  0.43137  0.39837  1.0000
  C   C631      1.0  0.08710  0.44577  0.42516  1.0000
  H   H1055     1.0  0.08552  0.47288  0.37629  1.0000
  H   H1056     1.0  0.06308  0.48162  0.38967  1.0000
  H   H1057     1.0  0.08862  0.42249  0.40315  1.0000
  H   H1058     1.0  0.08904  0.43363  0.38489  1.0000
  H   H1059     1.0  0.12217  0.46022  0.38319  1.0000
  H   H1060     1.0  0.12251  0.46646  0.40021  1.0000
  H   H1061     1.0  0.08853  0.47890  0.41394  1.0000
  H   H1062     1.0  0.06326  0.46896  0.41395  1.0000
  H   H1063     1.0  0.10936  0.49810  0.38324  1.0000
  H   H1064     1.0  0.08359  0.51226  0.37769  1.0000
  H   H1065     1.0  0.08553  0.50689  0.39613  1.0000
  H   H1066     1.0  0.04849  0.45109  0.39005  1.0000
  H   H1067     1.0  0.05271  0.42196  0.39682  1.0000
  H   H1068     1.0  0.04842  0.44125  0.40895  1.0000
  H   H1069     1.0  0.14731  0.43245  0.39718  1.0000
  H   H1070     1.0  0.12746  0.42049  0.39081  1.0000
  H   H1071     1.0  0.12395  0.42310  0.40936  1.0000
  H   H1072     1.0  0.08018  0.43032  0.42522  1.0000
  H   H1073     1.0  0.07890  0.45210  0.43518  1.0000
  H   H1074     1.0  0.10534  0.44203  0.42558  1.0000
  H   H1075     1.0  0.40436  0.60211  0.37832  1.0000
  H   H1076     1.0  0.22229  0.55539  0.39081  1.0000
  H   H1077     1.0  0.48080  0.61969  0.37359  1.0000
  C   C632      1.0  0.40476  0.64677  0.37993  1.0000
  H   H1078     1.0  0.27634  0.53579  0.34618  1.0000
  H   H1079     1.0  0.28590  0.57253  0.37804  1.0000
  H   H1080     1.0  0.22269  0.52707  0.39956  1.0000
  H   H1081     1.0  0.17995  0.58632  0.24609  1.0000
  C   C633      1.0  0.15408  0.64167  0.23478  1.0000
  H   H1082     1.0  0.17080  0.55973  0.25410  1.0000
  H   H1083     1.0  0.28562  0.55453  0.40517  1.0000
  H   H1084     1.0  0.35890  0.45438  0.40953  1.0000
  C   C634      1.0  0.46293  0.61497  0.40889  1.0000
  H   H1085     1.0  0.46613  0.61055  0.36205  1.0000
  H   H1086     1.0  0.12503  0.58420  0.37087  1.0000
  C   C635      1.0  0.47497  0.41302  0.43525  1.0000
  H   H1087     1.0  0.42557  0.56929  0.44309  1.0000
  H   H1088     1.0  0.29830  0.51377  0.35081  1.0000
  C   C636      1.0  0.42211  0.40529  0.42428  1.0000
  S   S186      1.0  0.48861  0.62573  0.40445  1.0000
  Fe  Fe96      1.0  0.21055  0.62644  0.30668  1.0000
  C   C637      1.0  0.28815  0.54614  0.39567  1.0000
  H   H1089     1.0  0.07213  0.58082  0.41604  1.0000
  S   S187      1.0  0.14761  0.32351  0.30655  1.0000
  C   C638      1.0  0.04662  0.56378  0.38258  1.0000
  H   H1090     1.0  0.15348  0.59484  0.22980  1.0000
  H   H1091     1.0  0.26184  0.51616  0.38811  1.0000
  H   H1092     1.0  0.41523  0.59078  0.36233  1.0000
  H   H1093     1.0  0.19947  0.56106  0.23176  1.0000
  N   N48       1.0  0.44345  0.57723  0.45824  1.0000
  H   H1094     1.0  0.31648  0.63089  0.26916  1.0000
  C   C639      1.0  0.25182  0.53161  0.38315  1.0000
  H   H1095     1.0  0.39784  0.46126  0.38588  1.0000
  H   H1096     1.0  0.29605  0.52279  0.37405  1.0000
  C   C640      1.0  0.00130  0.63515  0.39521  1.0000
  C   C641      1.0  0.28703  0.53584  0.36665  1.0000
  C   C642      1.0  0.06098  0.60881  0.38232  1.0000
  H   H1097     1.0  0.44914  0.64649  0.38153  1.0000
  H   H1098     1.0  0.21851  0.62320  0.22715  1.0000
  C   C643      1.0  0.46281  0.55953  0.45386  1.0000
  C   C644      1.0  0.36810  0.44872  0.41877  1.0000
  H   H1099     1.0  0.40223  0.43239  0.43453  1.0000
  H   H1100     1.0  0.29958  0.54712  0.36150  1.0000
  H   H1101     1.0  0.46542  0.55977  0.44211  1.0000
  H   H1102     1.0  0.43622  0.41437  0.41886  1.0000
  H   H1103     1.0  0.22681  0.32968  0.37173  1.0000
  C   C645      1.0  0.42209  0.61988  0.41462  1.0000
  H   H1104     1.0  0.18027  0.53012  0.23814  1.0000
  N   N49       1.0  0.26665  0.54827  0.37477  1.0000
  S   S188      1.0  0.22546  0.64755  0.28691  1.0000
  H   H1105     1.0  0.37621  0.39323  0.41989  1.0000
  H   H1106     1.0  0.35760  0.43639  0.44147  1.0000
  H   H1107     1.0  0.23899  0.57501  0.37102  1.0000
  C   C646      1.0  0.26597  0.58172  0.35398  1.0000
  H   H1108     1.0  0.35681  0.40783  0.40802  1.0000
  H   H1109     1.0  0.30641  0.54331  0.39134  1.0000
  H   H1110     1.0  0.00931  0.41635  0.43532  1.0000
  H   H1111     1.0  0.02188  0.45964  0.46763  1.0000
  C   C647      1.0  0.16601  0.53708  0.23216  1.0000
  C   C648      1.0  0.35167  0.43787  0.43114  1.0000
  H   H1112     1.0  0.40228  0.60514  0.45117  1.0000
  H   H1113     1.0  0.24472  0.55610  0.35878  1.0000
  H   H1114     1.0  0.09512  0.59504  0.41544  1.0000
  H   H1115     1.0  0.14521  0.51334  0.24530  1.0000
  H   H1116     1.0  0.41028  0.46018  0.41551  1.0000
  H   H1117     1.0  0.40519  0.63092  0.35612  1.0000
  C   C649      1.0  0.23345  0.54024  0.39496  1.0000
  H   H1118     1.0  0.05560  0.55825  0.37249  1.0000
  C   C650      1.0  0.46314  0.59191  0.40963  1.0000
  C   C651      1.0  0.39974  0.42117  0.42734  1.0000
  H   H1119     1.0  0.13602  0.64647  0.23699  1.0000
  C   C652      1.0  0.01693  0.60539  0.41823  1.0000
  C   C653      1.0  0.37480  0.40167  0.40891  1.0000
  C   C654      1.0  0.02079  0.62776  0.41552  1.0000
  C   C655      1.0  0.48611  0.42086  0.42173  1.0000
  C   C656      1.0  0.46743  0.62521  0.36680  1.0000
  C   C657      1.0  0.22904  0.32438  0.36114  1.0000
  C   C658      1.0  0.27459  0.56074  0.38438  1.0000
  H   H1120     1.0  0.33515  0.44901  0.43194  1.0000
  H   H1121     1.0  0.08865  0.64753  0.33766  1.0000
  H   H1122     1.0  0.42053  0.39247  0.41803  1.0000
  H   H1123     1.0  0.43454  0.62312  0.35133  1.0000
  H   H1124     1.0  0.38111  0.38829  0.40223  1.0000
  H   H1125     1.0  0.27253  0.59317  0.35920  1.0000
  C   C659      1.0  0.08980  0.58082  0.37082  1.0000
  H   H1126     1.0  0.05930  0.64473  0.38101  1.0000
  S   S189      1.0  0.00040  0.56980  0.41236  1.0000
  H   H1127     1.0  0.27978  0.57342  0.34670  1.0000
  N   N50       1.0  0.42517  0.64218  0.36881  1.0000
  C   C660      1.0  0.16536  0.57700  0.24887  1.0000
  C   C661      1.0  0.00518  0.59784  0.40947  1.0000
  S   S190      1.0  0.18311  0.61954  0.29654  1.0000
  C   C662      1.0  0.01311  0.64263  0.40396  1.0000
  H   H1128     1.0  0.10851  0.60982  0.36351  1.0000
  H   H1129     1.0  0.38773  0.41045  0.43398  1.0000
  H   H1130     1.0  0.34556  0.63101  0.26208  1.0000
  H   H1131     1.0  0.34859  0.42141  0.42962  1.0000
  H   H1132     1.0  0.42699  0.39616  0.43455  1.0000
  H   H1133     1.0  0.44764  0.52838  0.45763  1.0000
  C   C663      1.0  0.28236  0.52380  0.35518  1.0000
  H   H1134     1.0  0.05187  0.57309  0.40166  1.0000
  H   H1135     1.0  0.41333  0.47940  0.39106  1.0000
  C   C664      1.0  0.25306  0.56486  0.36488  1.0000
  H   H1136     1.0  0.27022  0.51191  0.35954  1.0000
  C   C665      1.0  0.19056  0.63467  0.24257  1.0000
  S   S191      1.0  0.12786  0.64693  0.31632  1.0000
  H   H1137     1.0  0.15944  0.64609  0.25549  1.0000
  C   C666      1.0  0.07143  0.63051  0.37717  1.0000
  H   H1138     1.0  0.06498  0.53674  0.47236  1.0000
  H   H1139     1.0  0.10349  0.57093  0.39667  1.0000
  C   C667      1.0  0.99655  0.42990  0.43191  1.0000
  C   C668      1.0  0.44234  0.62890  0.41160  1.0000
  H   H1140     1.0  0.44167  0.61932  0.38487  1.0000
  C   C669      1.0  0.40071  0.58794  0.45680  1.0000
  H   H1141     1.0  0.47076  0.62418  0.44570  1.0000
  H   H1142     1.0  0.04833  0.61123  0.39195  1.0000
  C   C670      1.0  0.47806  0.44196  0.41441  1.0000
  H   H1143     1.0  0.99168  0.48508  0.47059  1.0000
  H   H1144     1.0  0.29887  0.63321  0.29239  1.0000
  H   H1145     1.0  0.15287  0.58576  0.25670  1.0000
  H   H1146     1.0  0.44711  0.59955  0.43817  1.0000
  C   C671      1.0  0.99977  0.45217  0.43097  1.0000
  H   H1147     1.0  0.32505  0.64539  0.25140  1.0000
  H   H1148     1.0  0.11892  0.32037  0.27824  1.0000
  H   H1149     1.0  0.43425  0.59323  0.37355  1.0000
  C   C672      1.0  0.42103  0.62513  0.36067  1.0000
  C   C673      1.0  0.09274  0.58758  0.39478  1.0000
  C   C674      1.0  0.06272  0.56888  0.39165  1.0000
  H   H1150     1.0  0.05047  0.60829  0.37423  1.0000
  H   H1151     1.0  0.47331  0.63861  0.35830  1.0000
  C   C675      1.0  0.46076  0.53520  0.46123  1.0000
  H   H1152     1.0  0.43501  0.61343  0.45268  1.0000
  H   H1153     1.0  0.02993  0.63347  0.42232  1.0000
  H   H1154     1.0  0.03778  0.54987  0.38872  1.0000
  C   C676      1.0  0.14461  0.53180  0.24270  1.0000
  Fe  Fe97      1.0  0.17241  0.32160  0.32145  1.0000
  H   H1155     1.0  0.07072  0.61037  0.40855  1.0000
  H   H1156     1.0  0.08680  0.63063  0.38152  1.0000
  H   H1157     1.0  0.47542  0.60267  0.46070  1.0000
  H   H1158     1.0  0.10483  0.59941  0.39018  1.0000
  H   H1159     1.0  0.44205  0.64663  0.41129  1.0000
  H   H1160     1.0  0.07885  0.58498  0.36242  1.0000
  C   C677      1.0  0.20052  0.62850  0.22932  1.0000
  H   H1161     1.0  0.21266  0.32965  0.35740  1.0000
  C   C678      1.0  0.15474  0.57740  0.23557  1.0000
  H   H1162     1.0  0.48463  0.59706  0.44262  1.0000
  H   H1163     1.0  0.39408  0.58775  0.46826  1.0000
  C   C679      1.0  0.16727  0.64133  0.24529  1.0000
  C   C680      1.0  0.99727  0.61283  0.39801  1.0000
  C   C681      1.0  0.44530  0.63346  0.37622  1.0000
  Fe  Fe98      1.0  0.19633  0.64296  0.27732  1.0000
  H   H1164     1.0  0.07493  0.63413  0.36536  1.0000
  H   H1165     1.0  0.99458  0.43856  0.46194  1.0000
  N   N51       1.0  0.16698  0.56131  0.22568  1.0000
  H   H1166     1.0  0.48633  0.44772  0.40379  1.0000
  H   H1167     1.0  0.99526  0.64653  0.38629  1.0000
  H   H1168     1.0  0.03022  0.43017  0.47080  1.0000
  C   C682      1.0  0.28590  0.64749  0.28920  1.0000
  H   H1169     1.0  0.27124  0.64786  0.29795  1.0000
  H   H1170     1.0  0.45745  0.53355  0.47301  1.0000
  C   C683      1.0  0.99390  0.43963  0.47333  1.0000
  H   H1171     1.0  0.16825  0.52660  0.22363  1.0000
  H   H1172     1.0  0.38895  0.64936  0.37535  1.0000
  C   C684      1.0  0.36583  0.50987  0.52908  1.0000
  Fe  Fe99      1.0  0.07772  0.54282  0.54058  1.0000
  S   S192      1.0  0.04496  0.53630  0.55404  1.0000
  S   S193      1.0  0.08426  0.55018  0.51653  1.0000
  Fe  Fe100     1.0  0.10202  0.53676  0.56647  1.0000
  S   S194      1.0  0.07089  0.52948  0.58213  1.0000
  S   S195      1.0  0.13732  0.54013  0.56905  1.0000
  Fe  Fe101     1.0  0.06571  0.50843  0.56657  1.0000
  S   S196      1.0  0.05919  0.47240  0.57159  1.0000
  Fe  Fe102     1.0  0.05267  0.55802  0.56828  1.0000
  S   S197      1.0  0.02484  0.58584  0.57465  1.0000
  S   S198      1.0  0.09823  0.51358  0.55206  1.0000
  S   S199      1.0  0.08405  0.56667  0.55371  1.0000
  H   H1173     1.0  0.16997  0.49218  0.55657  1.0000
  C   C685      1.0  0.03118  0.47674  0.52513  1.0000
  H   H1174     1.0  0.39388  0.64443  0.63674  1.0000
  S   S200      1.0  0.28071  0.33987  0.64988  1.0000
  H   H1175     1.0  0.33661  0.54189  0.51944  1.0000
  Fe  Fe103     1.0  0.42322  0.55237  0.53778  1.0000
  S   S201      1.0  0.42962  0.51657  0.54849  1.0000
  S   S202      1.0  0.40338  0.56479  0.51939  1.0000
  Fe  Fe104     1.0  0.44757  0.56951  0.55801  1.0000
  S   S203      1.0  0.45621  0.53491  0.57001  1.0000
  Fe  Fe105     1.0  0.42076  0.53075  0.56896  1.0000
  S   S204      1.0  0.39933  0.51744  0.58941  1.0000
  S   S205      1.0  0.41154  0.56612  0.55834  1.0000
  C   C686      1.0  0.31223  0.51831  0.54396  1.0000
  S   S206      1.0  0.34786  0.61759  0.68727  1.0000
  C   C687      1.0  0.04952  0.44102  0.51667  1.0000
  S   S207      1.0  0.29437  0.61262  0.69628  1.0000
  Fe  Fe106     1.0  0.31966  0.62636  0.70500  1.0000
  Fe  Fe107     1.0  0.32146  0.60687  0.67782  1.0000
  S   S208      1.0  0.32906  0.57637  0.66684  1.0000
  H   H1176     1.0  0.23857  0.52116  0.67987  1.0000
  Fe  Fe108     1.0  0.27769  0.49517  0.60680  1.0000
  S   S209      1.0  0.28712  0.49642  0.62784  1.0000
  S   S210      1.0  0.30414  0.49277  0.58710  1.0000
  Fe  Fe109     1.0  0.22843  0.49261  0.61923  1.0000
  S   S211      1.0  0.23444  0.49337  0.64133  1.0000
  S   S212      1.0  0.19301  0.48797  0.61753  1.0000
  Fe  Fe110     1.0  0.25510  0.52047  0.63102  1.0000
  S   S213      1.0  0.25006  0.55098  0.64193  1.0000
  Fe  Fe111     1.0  0.26590  0.46928  0.63641  1.0000
  S   S214      1.0  0.28072  0.44214  0.65280  1.0000
  S   S215      1.0  0.24694  0.52155  0.60913  1.0000
  S   S216      1.0  0.25856  0.46615  0.61514  1.0000
  C   C688      1.0  0.46897  0.60730  0.57535  1.0000
  C   C689      1.0  0.12646  0.44088  0.56019  1.0000
  C   C690      1.0  0.11898  0.45236  0.57352  1.0000
  H   H1177     1.0  0.02380  0.33938  0.50941  1.0000
  H   H1178     1.0  0.05554  0.60918  0.50180  1.0000
  H   H1179     1.0  0.16931  0.46390  0.55616  1.0000
  C   C691      1.0  0.30710  0.56986  0.65967  1.0000
  C   C692      1.0  0.31201  0.55430  0.65021  1.0000
  C   C693      1.0  0.29471  0.54844  0.64459  1.0000
  C   C694      1.0  0.27238  0.55810  0.64845  1.0000
  C   C695      1.0  0.26748  0.57358  0.65796  1.0000
  C   C696      1.0  0.28478  0.57952  0.66353  1.0000
  H   H1180     1.0  0.32927  0.54683  0.64716  1.0000
  H   H1181     1.0  0.29869  0.53660  0.63721  1.0000
  H   H1182     1.0  0.25019  0.58077  0.66117  1.0000
  H   H1183     1.0  0.28082  0.59131  0.67097  1.0000
  C   C697      1.0  0.37310  0.51025  0.58869  1.0000
  C   C698      1.0  0.37040  0.49882  0.57809  1.0000
  C   C699      1.0  0.34922  0.49326  0.57780  1.0000
  C   C700      1.0  0.33065  0.49921  0.58803  1.0000
  C   C701      1.0  0.33346  0.51043  0.59869  1.0000
  C   C702      1.0  0.35468  0.51566  0.59912  1.0000
  H   H1184     1.0  0.38471  0.49417  0.57020  1.0000
  H   H1185     1.0  0.34719  0.48436  0.56962  1.0000
  H   H1186     1.0  0.31923  0.51561  0.60642  1.0000
  H   H1187     1.0  0.35671  0.52446  0.60737  1.0000
  C   C703      1.0  0.40381  0.52042  0.48613  1.0000
  H   H1188     1.0  0.47847  0.36596  0.49588  1.0000
  C   C704      1.0  0.39062  0.55503  0.49584  1.0000
  C   C705      1.0  0.40394  0.54752  0.50664  1.0000
  C   C706      1.0  0.41713  0.52639  0.50717  1.0000
  C   C707      1.0  0.41693  0.51286  0.49701  1.0000
  H   H1189     1.0  0.45984  0.62720  0.65818  1.0000
  H   H1190     1.0  0.42742  0.52039  0.51545  1.0000
  H   H1191     1.0  0.42706  0.49645  0.49757  1.0000
  C   C708      1.0  0.28075  0.36823  0.65086  1.0000
  C   C709      1.0  0.26806  0.38508  0.64243  1.0000
  C   C710      1.0  0.26777  0.40783  0.64298  1.0000
  C   C711      1.0  0.28005  0.41384  0.65209  1.0000
  C   C712      1.0  0.29269  0.39700  0.66055  1.0000
  C   C713      1.0  0.29313  0.37427  0.65990  1.0000
  H   H1192     1.0  0.25840  0.38053  0.63544  1.0000
  H   H1193     1.0  0.25792  0.42068  0.63646  1.0000
  H   H1194     1.0  0.30221  0.40151  0.66763  1.0000
  H   H1195     1.0  0.30283  0.36143  0.66652  1.0000
  C   C714      1.0  0.03406  0.46672  0.56750  1.0000
  C   C715      1.0  0.03155  0.44453  0.56731  1.0000
  C   C716      1.0  0.01198  0.43973  0.56359  1.0000
  H   H1196     1.0  0.01005  0.62409  0.53152  1.0000
  C   C717      1.0  0.38492  0.61531  0.65133  1.0000
  C   C718      1.0  0.01668  0.48403  0.56420  1.0000
  H   H1197     1.0  0.04483  0.43102  0.56998  1.0000
  C   C719      1.0  0.03851  0.42650  0.53005  1.0000
  C   C720      1.0  0.15596  0.43717  0.58126  1.0000
  H   H1198     1.0  0.01818  0.50110  0.56458  1.0000
  C   C721      1.0  0.15201  0.52752  0.58331  1.0000
  C   C722      1.0  0.14125  0.51685  0.59618  1.0000
  C   C723      1.0  0.15400  0.50510  0.60668  1.0000
  C   C724      1.0  0.17747  0.50443  0.60457  1.0000
  C   C725      1.0  0.18808  0.51582  0.59193  1.0000
  C   C726      1.0  0.17539  0.52723  0.58133  1.0000
  H   H1199     1.0  0.12320  0.51755  0.59799  1.0000
  H   H1200     1.0  0.14566  0.49654  0.61653  1.0000
  H   H1201     1.0  0.20613  0.51542  0.59019  1.0000
  H   H1202     1.0  0.18382  0.53556  0.57143  1.0000
  C   C727      1.0  0.02997  0.60404  0.58533  1.0000
  C   C728      1.0  0.01636  0.62501  0.58561  1.0000
  C   C729      1.0  0.39056  0.54155  0.48560  1.0000
  H   H1203     1.0  0.02915  0.62688  0.54995  1.0000
  C   C730      1.0  0.04914  0.61174  0.60323  1.0000
  C   C731      1.0  0.04665  0.59761  0.59397  1.0000
  H   H1204     1.0  0.43141  0.56378  0.48011  1.0000
  H   H1205     1.0  0.17013  0.44102  0.59997  1.0000
  H   H1206     1.0  0.06174  0.60642  0.61014  1.0000
  H   H1207     1.0  0.05726  0.58150  0.59380  1.0000
  H   H1208     1.0  0.48710  0.35406  0.47994  1.0000
  H   H1209     1.0  0.03743  0.41003  0.52731  1.0000
  C   C732      1.0  0.07307  0.54325  0.49183  1.0000
  C   C733      1.0  0.06585  0.54378  0.50642  1.0000
  C   C734      1.0  0.04426  0.53922  0.51261  1.0000
  C   C735      1.0  0.03006  0.53406  0.50425  1.0000
  C   C736      1.0  0.47214  0.62921  0.57580  1.0000
  C   C737      1.0  0.03756  0.53287  0.48975  1.0000
  H   H1210     1.0  0.03848  0.53964  0.52381  1.0000
  H   H1211     1.0  0.01339  0.53052  0.50909  1.0000
  N   N52       1.0  0.05277  0.46396  0.51852  1.0000
  S   S217      1.0  0.40385  0.50247  0.47385  1.0000
  C   C738      1.0  0.06987  0.46134  0.52828  1.0000
  C   C739      1.0  0.07621  0.48327  0.53086  1.0000
  H   H1212     1.0  0.06596  0.43105  0.51301  1.0000
  H   H1213     1.0  0.06348  0.45275  0.53908  1.0000
  H   H1214     1.0  0.08553  0.45001  0.52484  1.0000
  H   H1215     1.0  0.02385  0.61837  0.51462  1.0000
  N   N53       1.0  0.34291  0.54404  0.54054  1.0000
  H   H1216     1.0  0.08111  0.62305  0.54538  1.0000
  H   H1217     1.0  0.07738  0.49633  0.52131  1.0000
  H   H1218     1.0  0.09327  0.47973  0.53389  1.0000
  H   H1219     1.0  0.46817  0.40556  0.49715  1.0000
  C   C740      1.0  0.39855  0.62595  0.63735  1.0000
  S   S218      1.0  0.33723  0.31805  0.66684  1.0000
  H   H1220     1.0  0.01153  0.58481  0.52747  1.0000
  C   C741      1.0  0.06796  0.61248  0.52140  1.0000
  H   H1221     1.0  0.99636  0.60503  0.61407  1.0000
  H   H1222     1.0  0.06146  0.62675  0.56112  1.0000
  H   H1223     1.0  0.08781  0.47883  0.48618  1.0000
  C   C742      1.0  0.07080  0.61199  0.50531  1.0000
  C   C743      1.0  0.22928  0.31627  0.64560  1.0000
  H   H1224     1.0  0.47726  0.39463  0.47365  1.0000
  H   H1225     1.0  0.42122  0.63743  0.65309  1.0000
  H   H1226     1.0  0.47424  0.44292  0.49832  1.0000
  C   C744      1.0  0.02587  0.61522  0.52599  1.0000
  N   N54       1.0  0.04596  0.62431  0.52832  1.0000
  H   H1227     1.0  0.48917  0.34773  0.62419  1.0000
  H   H1228     1.0  0.07192  0.59497  0.52689  1.0000
  C   C745      1.0  0.43385  0.63451  0.62269  1.0000
  C   C746      1.0  0.12171  0.64830  0.64139  1.0000
  C   C747      1.0  0.05905  0.53764  0.48352  1.0000
  H   H1229     1.0  0.08974  0.54682  0.48697  1.0000
  H   H1230     1.0  0.00356  0.63016  0.57884  1.0000
  H   H1231     1.0  0.45868  0.64341  0.64104  1.0000
  C   C748      1.0  0.04595  0.62040  0.54418  1.0000
  C   C749      1.0  0.01148  0.34497  0.51839  1.0000
  H   H1232     1.0  0.23597  0.62148  0.66444  1.0000
  S   S219      1.0  0.45579  0.60255  0.56160  1.0000
  H   H1233     1.0  0.22726  0.63044  0.62592  1.0000
  C   C750      1.0  0.43167  0.62266  0.64882  1.0000
  N   N55       1.0  0.33683  0.42105  0.61842  1.0000
  C   C751      1.0  0.32974  0.39817  0.62338  1.0000
  C   C752      1.0  0.31715  0.43640  0.61280  1.0000
  C   C753      1.0  0.34140  0.42906  0.63124  1.0000
  C   C754      1.0  0.35774  0.41897  0.60732  1.0000
  C   C755      1.0  0.34591  0.38034  0.63154  1.0000
  C   C756      1.0  0.30885  0.42902  0.60059  1.0000
  C   C757      1.0  0.34767  0.45276  0.62889  1.0000
  C   C758      1.0  0.36264  0.44045  0.59677  1.0000
  H   H1234     1.0  0.31309  0.39942  0.63039  1.0000
  H   H1235     1.0  0.32737  0.39078  0.61423  1.0000
  H   H1236     1.0  0.32063  0.45373  0.60897  1.0000
  H   H1237     1.0  0.30253  0.43811  0.62156  1.0000
  H   H1238     1.0  0.32654  0.42840  0.63987  1.0000
  H   H1239     1.0  0.35563  0.41786  0.63576  1.0000
  H   H1240     1.0  0.37290  0.41229  0.61250  1.0000
  H   H1241     1.0  0.35679  0.40647  0.60058  1.0000
  H   H1242     1.0  0.34034  0.36374  0.63281  1.0000
  H   H1243     1.0  0.36346  0.37886  0.62581  1.0000
  H   H1244     1.0  0.34529  0.38366  0.64249  1.0000
  H   H1245     1.0  0.32282  0.42405  0.59216  1.0000
  H   H1246     1.0  0.29885  0.41513  0.60469  1.0000
  H   H1247     1.0  0.36438  0.45372  0.62216  1.0000
  H   H1248     1.0  0.34924  0.45671  0.63933  1.0000
  H   H1249     1.0  0.33467  0.46594  0.62459  1.0000
  H   H1250     1.0  0.38114  0.44037  0.59421  1.0000
  H   H1251     1.0  0.35542  0.45638  0.60064  1.0000
  H   H1252     1.0  0.35713  0.44061  0.58646  1.0000
  H   H1253     1.0  0.38033  0.57135  0.49538  1.0000
  H   H1254     1.0  0.46492  0.59680  0.62425  1.0000
  H   H1255     1.0  0.30498  0.61284  0.63888  1.0000
  H   H1256     1.0  0.09980  0.47725  0.60946  1.0000
  H   H1257     1.0  0.30864  0.54945  0.55211  1.0000
  H   H1258     1.0  0.03354  0.49400  0.52583  1.0000
  H   H1259     1.0  0.27336  0.63081  0.65475  1.0000
  H   H1260     1.0  0.02105  0.43398  0.53392  1.0000
  H   H1261     1.0  0.10788  0.44131  0.58101  1.0000
  H   H1262     1.0  0.09737  0.47149  0.50294  1.0000
  C   C759      1.0  0.35549  0.55468  0.56217  1.0000
  C   C760      1.0  0.22555  0.62949  0.65608  1.0000
  C   C761      1.0  0.34826  0.56220  0.54736  1.0000
  H   H1263     1.0  0.38687  0.59683  0.65245  1.0000
  H   H1264     1.0  0.43597  0.64447  0.59981  1.0000
  H   H1265     1.0  0.07681  0.62739  0.49896  1.0000
  C   C762      1.0  0.06369  0.63059  0.54929  1.0000
  H   H1266     1.0  0.41426  0.60633  0.47650  1.0000
  C   C763      1.0  0.42912  0.59504  0.63371  1.0000
  C   C764      1.0  0.01909  0.63928  0.59471  1.0000
  H   H1267     1.0  0.36673  0.62165  0.65123  1.0000
  C   C765      1.0  0.45619  0.62680  0.64743  1.0000
  H   H1268     1.0  0.12973  0.64899  0.65063  1.0000
  N   N56       1.0  0.28504  0.49868  0.68109  1.0000
  C   C766      1.0  0.28094  0.52165  0.68539  1.0000
  C   C767      1.0  0.26857  0.49889  0.67127  1.0000
  C   C768      1.0  0.30889  0.49484  0.67330  1.0000
  C   C769      1.0  0.28171  0.48178  0.69451  1.0000
  C   C770      1.0  0.29882  0.52702  0.69305  1.0000
  C   C771      1.0  0.24348  0.50369  0.67774  1.0000
  C   C772      1.0  0.31474  0.47670  0.66364  1.0000
  C   C773      1.0  0.28185  0.45727  0.69286  1.0000
  H   H1269     1.0  0.27972  0.53484  0.67591  1.0000
  H   H1270     1.0  0.26454  0.52451  0.69255  1.0000
  H   H1271     1.0  0.27093  0.48299  0.66703  1.0000
  H   H1272     1.0  0.27157  0.51165  0.66157  1.0000
  H   H1273     1.0  0.31313  0.51050  0.66618  1.0000
  H   H1274     1.0  0.32111  0.49065  0.68094  1.0000
  H   H1275     1.0  0.29504  0.48115  0.70099  1.0000
  H   H1276     1.0  0.26593  0.48705  0.70170  1.0000
  H   H1277     1.0  0.30113  0.51501  0.70292  1.0000
  H   H1278     1.0  0.31524  0.52796  0.68593  1.0000
  H   H1279     1.0  0.29317  0.54391  0.69615  1.0000
  H   H1280     1.0  0.46076  0.57817  0.64096  1.0000
  C   C774      1.0  0.43069  0.59901  0.47979  1.0000
  C   C775      1.0  0.00163  0.32951  0.49059  1.0000
  H   H1281     1.0  0.31064  0.46018  0.66912  1.0000
  H   H1282     1.0  0.33314  0.47453  0.65978  1.0000
  H   H1283     1.0  0.30644  0.48191  0.65407  1.0000
  H   H1284     1.0  0.29905  0.44756  0.69270  1.0000
  H   H1285     1.0  0.27513  0.45530  0.68344  1.0000
  H   H1286     1.0  0.27061  0.44928  0.70207  1.0000
  H   H1287     1.0  0.12421  0.44255  0.60246  1.0000
  H   H1288     1.0  0.29750  0.44324  0.59551  1.0000
  H   H1289     1.0  0.42067  0.59170  0.62526  1.0000
  H   H1290     1.0  0.04853  0.42298  0.53884  1.0000
  H   H1291     1.0  0.13851  0.46568  0.60127  1.0000
  H   H1292     1.0  0.45250  0.63190  0.62111  1.0000
  H   H1293     1.0  0.05931  0.49475  0.50441  1.0000
  S   S220      1.0  0.45852  0.55875  0.53648  1.0000
  H   H1294     1.0  0.04135  0.57975  0.52635  1.0000
  C   C776      1.0  0.06047  0.47670  0.50403  1.0000
  C   C777      1.0  0.14562  0.47837  0.57376  1.0000
  C   C778      1.0  0.32233  0.53549  0.54955  1.0000
  C   C779      1.0  0.03519  0.63247  0.60378  1.0000
  H   H1295     1.0  0.11132  0.44084  0.55542  1.0000
  H   H1296     1.0  0.01934  0.32117  0.48967  1.0000
  H   H1297     1.0  0.42182  0.58431  0.64343  1.0000
  C   C780      1.0  0.47653  0.58985  0.58566  1.0000
  C   C781      1.0  0.27140  0.63139  0.64347  1.0000
  H   H1298     1.0  0.99635  0.33059  0.48008  1.0000
  H   H1299     1.0  0.13825  0.44962  0.55187  1.0000
  C   C782      1.0  0.08463  0.46873  0.49696  1.0000
  H   H1300     1.0  0.22638  0.61765  0.64865  1.0000
  H   H1301     1.0  0.02625  0.46899  0.53632  1.0000
  C   C783      1.0  0.36304  0.52568  0.54011  1.0000
  C   C784      1.0  0.99479  0.45715  0.56007  1.0000
  C   C785      1.0  0.45416  0.58492  0.63083  1.0000
  H   H1302     1.0  0.33350  0.57556  0.54879  1.0000
  C   C786      1.0  0.33914  0.55440  0.52561  1.0000
  H   H1303     1.0  0.47396  0.42614  0.51545  1.0000
  H   H1304     1.0  0.26484  0.61584  0.64333  1.0000
  H   H1305     1.0  0.03926  0.44220  0.50814  1.0000
  H   H1306     1.0  0.46879  0.61366  0.64289  1.0000
  H   H1307     1.0  0.04916  0.47615  0.49639  1.0000
  H   H1308     1.0  0.35110  0.50135  0.53006  1.0000
  H   H1309     1.0  0.30294  0.56795  0.53000  1.0000
  H   H1310     1.0  0.01381  0.48849  0.50645  1.0000
  C   C787      1.0  0.02582  0.58989  0.53101  1.0000
  H   H1311     1.0  0.32605  0.52713  0.56022  1.0000
  H   H1312     1.0  0.24292  0.63585  0.60851  1.0000
  H   H1313     1.0  0.02326  0.58558  0.54279  1.0000
  H   H1314     1.0  0.32167  0.58851  0.52816  1.0000
  H   H1315     1.0  0.99611  0.48894  0.52333  1.0000
  H   H1316     1.0  0.31995  0.50096  0.54784  1.0000
  H   H1317     1.0  0.36312  0.51491  0.55064  1.0000
  C   C788      1.0  0.48768  0.59422  0.59608  1.0000
  S   S221      1.0  0.31170  0.64058  0.66544  1.0000
  H   H1318     1.0  0.18417  0.45396  0.58303  1.0000
  H   H1319     1.0  0.38048  0.49660  0.53074  1.0000
  Fe  Fe112     1.0  0.46439  0.52377  0.54856  1.0000
  H   H1320     1.0  0.31355  0.52090  0.53227  1.0000
  H   H1321     1.0  0.13391  0.42310  0.56303  1.0000
  C   C789      1.0  0.12693  0.45916  0.59601  1.0000
  H   H1322     1.0  0.13145  0.49248  0.57338  1.0000
  H   H1323     1.0  0.18840  0.42430  0.58812  1.0000
  H   H1324     1.0  0.06398  0.49034  0.53951  1.0000
  H   H1325     1.0  0.15652  0.48333  0.58021  1.0000
  H   H1326     1.0  0.10453  0.49145  0.59159  1.0000
  H   H1327     1.0  0.01028  0.42261  0.56333  1.0000
  H   H1328     1.0  0.36976  0.51872  0.51803  1.0000
  H   H1329     1.0  0.09018  0.46732  0.59587  1.0000
  C   C790      1.0  0.10410  0.47472  0.59815  1.0000
  C   C791      1.0  0.17557  0.43957  0.58855  1.0000
  H   H1330     1.0  0.45613  0.57112  0.62456  1.0000
  H   H1331     1.0  0.14919  0.42162  0.58685  1.0000
  C   C792      1.0  0.15835  0.47960  0.55838  1.0000
  H   H1332     1.0  0.10776  0.46825  0.57043  1.0000
  H   H1333     1.0  0.08226  0.62033  0.52272  1.0000
  C   C793      1.0  0.31903  0.57342  0.52437  1.0000
  N   N57       1.0  0.13716  0.45677  0.58078  1.0000
  S   S222      1.0  0.00475  0.33835  0.56287  1.0000
  H   H1334     1.0  0.14649  0.48507  0.55059  1.0000
  H   H1335     1.0  0.08355  0.59739  0.50269  1.0000
  H   H1336     1.0  0.43399  0.61553  0.60545  1.0000
  H   H1337     1.0  0.23901  0.49164  0.68749  1.0000
  H   H1338     1.0  0.16366  0.43351  0.57049  1.0000
  N   N58       1.0  0.42386  0.61932  0.63556  1.0000
  H   H1339     1.0  0.08715  0.45094  0.49555  1.0000
  H   H1340     1.0  0.21109  0.32353  0.64707  1.0000
  C   C794      1.0  0.99711  0.47925  0.56056  1.0000
  H   H1341     1.0  0.23306  0.50193  0.66994  1.0000
  H   H1342     1.0  0.29387  0.51996  0.54807  1.0000
  H   H1343     1.0  0.36200  0.57062  0.54037  1.0000
  H   H1344     1.0  0.37125  0.54249  0.56182  1.0000
  C   C795      1.0  0.24421  0.63286  0.62003  1.0000
  H   H1345     1.0  0.31732  0.57861  0.51295  1.0000
  S   S223      1.0  0.02041  0.52358  0.48007  1.0000
  H   H1346     1.0  0.35449  0.56118  0.51957  1.0000
  H   H1347     1.0  0.35902  0.56947  0.56593  1.0000
  C   C796      1.0  0.42767  0.63243  0.60833  1.0000
  H   H1348     1.0  0.06169  0.64908  0.54642  1.0000
  H   H1349     1.0  0.42779  0.59549  0.49163  1.0000
  H   H1350     1.0  0.46631  0.64283  0.56788  1.0000
  H   H1351     1.0  0.29474  0.62800  0.62326  1.0000
  H   H1352     1.0  0.37900  0.53289  0.53791  1.0000
  H   H1353     1.0  0.34213  0.54774  0.57030  1.0000
  C   C797      1.0  0.01080  0.47916  0.51742  1.0000
  H   H1354     1.0  0.47367  0.57307  0.58559  1.0000
  H   H1355     1.0  0.42922  0.60818  0.65750  1.0000
  H   H1356     1.0  0.04893  0.60225  0.54832  1.0000
  H   H1357     1.0  0.38902  0.62017  0.66089  1.0000
  H   H1358     1.0  0.48585  0.48408  0.56969  1.0000
  H   H1359     1.0  0.25629  0.61724  0.62192  1.0000
  H   H1360     1.0  0.23382  0.33721  0.62493  1.0000
  H   H1361     1.0  0.08809  0.64426  0.63934  1.0000
  Fe  Fe113     1.0  0.28650  0.64743  0.68462  1.0000
  C   C798      1.0  0.29518  0.62889  0.63451  1.0000
  H   H1362     1.0  0.00650  0.36329  0.51531  1.0000
  H   H1363     1.0  0.01926  0.44433  0.48569  1.0000
  S   S224      1.0  0.03780  0.64894  0.61630  1.0000
  H   H1364     1.0  0.00585  0.46279  0.51724  1.0000
  H   H1365     1.0  0.44217  0.61174  0.47660  1.0000
  C   C799      1.0  0.04366  0.64929  0.52321  1.0000
  H   H1366     1.0  0.39161  0.62159  0.62859  1.0000
  H   H1367     1.0  0.02002  0.34307  0.52780  1.0000
  H   H1368     1.0  0.30474  0.64223  0.63512  1.0000
  H   H1369     1.0  0.99350  0.63511  0.64407  1.0000
  C   C800      1.0  0.23822  0.31930  0.62951  1.0000
  H   H1370     1.0  0.09138  0.64762  0.65625  1.0000
  H   H1371     1.0  0.40937  0.63682  0.60806  1.0000
  C   C801      1.0  0.48281  0.63368  0.58642  1.0000
  C   C802      1.0  0.48575  0.40684  0.49812  1.0000
  H   H1372     1.0  0.12580  0.63094  0.63893  1.0000
  H   H1373     1.0  0.23790  0.32748  0.64975  1.0000
  H   H1374     1.0  0.00017  0.34707  0.49235  1.0000
  H   H1375     1.0  0.99894  0.60911  0.63774  1.0000
  C   C803      1.0  0.44126  0.57702  0.47407  1.0000
  C   C804      1.0  0.01748  0.44401  0.47457  1.0000
  H   H1376     1.0  0.99203  0.42255  0.47931  1.0000
  H   H1377     1.0  0.20788  0.63239  0.66159  1.0000
  H   H1378     1.0  0.22479  0.32758  0.67310  1.0000
  C   C805      1.0  0.48374  0.42842  0.50451  1.0000
  H   H1379     1.0  0.45800  0.57231  0.47764  1.0000
  H   H1380     1.0  0.38008  0.54734  0.47741  1.0000
  H   H1381     1.0  0.46678  0.32663  0.60694  1.0000
  H   H1382     1.0  0.47000  0.31904  0.63546  1.0000
  Fe  Fe114     1.0  0.43355  0.39008  0.91652  1.0000
  S   S225      1.0  0.42597  0.36689  0.93696  1.0000
  S   S226      1.0  0.41430  0.39460  0.89825  1.0000
  H   H1383     1.0  0.45735  0.32705  0.88039  1.0000
  S   S227      1.0  0.47489  0.37298  0.94414  1.0000
  Fe  Fe115     1.0  0.46197  0.35095  0.93233  1.0000
  C   C806      1.0  0.44562  0.34249  0.88249  1.0000
  Fe  Fe116     1.0  0.43927  0.39078  0.94706  1.0000
  S   S228      1.0  0.46882  0.37274  0.91125  1.0000
  S   S229      1.0  0.44352  0.41577  0.92681  1.0000
  Fe  Fe117     1.0  0.29346  0.43022  0.88501  1.0000
  S   S230      1.0  0.31302  0.42562  0.86348  1.0000
  S   S231      1.0  0.31077  0.43242  0.90328  1.0000
  Fe  Fe118     1.0  0.24846  0.43001  0.87587  1.0000
  S   S232      1.0  0.26501  0.42509  0.85362  1.0000
  S   S233      1.0  0.21023  0.43452  0.87975  1.0000
  Fe  Fe119     1.0  0.29059  0.40020  0.86431  1.0000
  S   S234      1.0  0.30780  0.36639  0.85913  1.0000
  Fe  Fe120     1.0  0.28590  0.45110  0.85485  1.0000
  S   S235      1.0  0.29488  0.47708  0.83547  1.0000
  S   S236      1.0  0.27268  0.40305  0.88650  1.0000
  S   S237      1.0  0.26761  0.45790  0.87633  1.0000
  Fe  Fe121     1.0  0.34501  0.59023  0.82623  1.0000
  S   S238      1.0  0.37528  0.60726  0.81594  1.0000
  S   S239      1.0  0.34608  0.55597  0.84029  1.0000
  Fe  Fe122     1.0  0.35449  0.62268  0.79857  1.0000
  Fe  Fe123     1.0  0.47840  0.39647  0.92326  1.0000
  H   H1384     1.0  0.06227  0.38512  0.88139  1.0000
  C   C807      1.0  0.34386  0.38427  0.82362  1.0000
  S   S240      1.0  0.32589  0.60327  0.80794  1.0000
  S   S241      1.0  0.32882  0.61836  0.83829  1.0000
  H   H1385     1.0  0.02450  0.32553  0.92003  1.0000
  Fe  Fe124     1.0  0.06707  0.39743  0.91783  1.0000
  S   S242      1.0  0.04762  0.36997  0.92922  1.0000
  S   S243      1.0  0.05018  0.42983  0.90641  1.0000
  Fe  Fe125     1.0  0.11228  0.37024  0.92355  1.0000
  S   S244      1.0  0.09594  0.34055  0.93556  1.0000
  S   S245      1.0  0.15048  0.36664  0.92108  1.0000
  Fe  Fe126     1.0  0.07498  0.34695  0.91800  1.0000
  H   H1386     1.0  0.43183  0.62161  0.87427  1.0000
  Fe  Fe127     1.0  0.07000  0.36620  0.94576  1.0000
  C   C808      1.0  0.22323  0.34851  0.88267  1.0000
  S   S246      1.0  0.09323  0.37481  0.90534  1.0000
  S   S247      1.0  0.08764  0.39540  0.93505  1.0000
  H   H1387     1.0  0.04712  0.58625  0.93408  1.0000
  C   C809      1.0  0.02474  0.44239  0.91553  1.0000
  C   C810      1.0  0.01419  0.43122  0.92829  1.0000
  C   C811      1.0  0.44028  0.33056  0.97283  1.0000
  H   H1388     1.0  0.18193  0.33433  0.86827  1.0000
  H   H1389     1.0  0.48152  0.59208  0.86314  1.0000
  C   C812      1.0  0.01433  0.46344  0.90958  1.0000
  H   H1390     1.0  0.02217  0.41512  0.93304  1.0000
  N   N59       1.0  0.32923  0.39988  0.81390  1.0000
  H   H1391     1.0  0.39422  0.52008  0.85765  1.0000
  H   H1392     1.0  0.37413  0.35418  0.89425  1.0000
  H   H1393     1.0  0.43802  0.32549  0.96279  1.0000
  H   H1394     1.0  0.32578  0.47957  0.89780  1.0000
  C   C813      1.0  0.00518  0.56765  0.92434  1.0000
  H   H1395     1.0  0.27190  0.61625  0.78887  1.0000
  S   S248      1.0  0.36887  0.63200  0.77527  1.0000
  H   H1396     1.0  0.48973  0.32787  0.90736  1.0000
  H   H1397     1.0  0.02483  0.39985  0.87316  1.0000
  N   N60       1.0  0.00395  0.38822  0.89303  1.0000
  C   C814      1.0  0.31664  0.38668  0.80719  1.0000
  C   C815      1.0  0.35471  0.62670  0.76223  1.0000
  C   C816      1.0  0.33844  0.61247  0.76588  1.0000
  C   C817      1.0  0.46203  0.62991  0.88607  1.0000
  C   C818      1.0  0.33208  0.61892  0.74121  1.0000
  H   H1398     1.0  0.02460  0.53230  0.89291  1.0000
  H   H1399     1.0  0.34539  0.36545  0.79606  1.0000
  H   H1400     1.0  0.37230  0.64803  0.74509  1.0000
  H   H1401     1.0  0.41708  0.33432  0.87557  1.0000
  H   H1402     1.0  0.18233  0.33805  0.89968  1.0000
  H   H1403     1.0  0.33348  0.37337  0.83168  1.0000
  C   C819      1.0  0.19371  0.41647  0.89210  1.0000
  C   C820      1.0  0.20333  0.39869  0.90145  1.0000
  C   C821      1.0  0.18975  0.38388  0.91049  1.0000
  C   C822      1.0  0.16650  0.38666  0.91027  1.0000
  C   C823      1.0  0.15684  0.40462  0.90106  1.0000
  C   C824      1.0  0.17039  0.41947  0.89205  1.0000
  H   H1404     1.0  0.22120  0.39631  0.90170  1.0000
  H   H1405     1.0  0.19731  0.37011  0.91766  1.0000
  H   H1406     1.0  0.13895  0.40695  0.90080  1.0000
  H   H1407     1.0  0.16281  0.43320  0.88487  1.0000
  C   C825      1.0  0.30858  0.49930  0.83695  1.0000
  C   C826      1.0  0.31493  0.51466  0.82475  1.0000
  C   C827      1.0  0.32599  0.53243  0.82562  1.0000
  C   C828      1.0  0.33094  0.53485  0.83871  1.0000
  C   C829      1.0  0.32429  0.51969  0.85092  1.0000
  C   C830      1.0  0.31308  0.50206  0.85007  1.0000
  H   H1408     1.0  0.31143  0.51269  0.81455  1.0000
  H   H1409     1.0  0.33116  0.54391  0.81613  1.0000
  H   H1410     1.0  0.32769  0.52174  0.86111  1.0000
  H   H1411     1.0  0.30785  0.49058  0.85956  1.0000
  C   C831      1.0  0.22208  0.34460  0.85761  1.0000
  S   S249      1.0  0.07138  0.32027  0.90539  1.0000
  H   H1412     1.0  0.37288  0.50871  0.85211  1.0000
  C   C832      1.0  0.29823  0.35303  0.84741  1.0000
  C   C833      1.0  0.27984  0.36304  0.84063  1.0000
  H   H1413     1.0  0.19684  0.40860  0.85807  1.0000
  H   H1414     1.0  0.45020  0.34915  0.89123  1.0000
  H   H1415     1.0  0.39920  0.49171  0.85580  1.0000
  H   H1416     1.0  0.27068  0.37908  0.84289  1.0000
  H   H1417     1.0  0.03518  0.52533  0.90937  1.0000
  C   C834      1.0  0.38492  0.40190  0.90106  1.0000
  C   C835      1.0  0.37322  0.41001  0.91338  1.0000
  C   C836      1.0  0.35005  0.41829  0.91435  1.0000
  C   C837      1.0  0.33861  0.41837  0.90308  1.0000
  C   C838      1.0  0.35017  0.40897  0.89121  1.0000
  C   C839      1.0  0.37327  0.40109  0.89010  1.0000
  H   H1418     1.0  0.38215  0.41071  0.92188  1.0000
  H   H1419     1.0  0.34118  0.42541  0.92362  1.0000
  H   H1420     1.0  0.34150  0.40833  0.88267  1.0000
  H   H1421     1.0  0.38223  0.39480  0.88057  1.0000
  N   N61       1.0  0.26122  0.57445  0.84231  1.0000
  C   C840      1.0  0.25801  0.58200  0.82694  1.0000
  C   C841      1.0  0.24084  0.58527  0.85139  1.0000
  C   C842      1.0  0.26270  0.54924  0.84543  1.0000
  C   C843      1.0  0.28270  0.58161  0.84405  1.0000
  C   C844      1.0  0.27487  0.56980  0.81583  1.0000
  C   C845      1.0  0.23731  0.61110  0.84927  1.0000
  C   C846      1.0  0.25762  0.53816  0.86113  1.0000
  C   C847      1.0  0.28842  0.57785  0.85924  1.0000
  H   H1422     1.0  0.24085  0.58005  0.82552  1.0000
  H   H1423     1.0  0.25920  0.60014  0.82358  1.0000
  H   H1424     1.0  0.24107  0.57951  0.86291  1.0000
  H   H1425     1.0  0.22528  0.58014  0.84944  1.0000
  H   H1426     1.0  0.25070  0.54366  0.83997  1.0000
  H   H1427     1.0  0.27969  0.54115  0.84106  1.0000
  H   H1428     1.0  0.29740  0.57269  0.83768  1.0000
  H   H1429     1.0  0.28343  0.59949  0.83937  1.0000
  H   H1430     1.0  0.27334  0.55179  0.81716  1.0000
  H   H1431     1.0  0.27121  0.57745  0.80502  1.0000
  H   H1432     1.0  0.29249  0.57150  0.81599  1.0000
  H   H1433     1.0  0.25186  0.61758  0.85146  1.0000
  H   H1434     1.0  0.23951  0.54206  0.86556  1.0000
  H   H1435     1.0  0.26806  0.54252  0.86801  1.0000
  H   H1436     1.0  0.26139  0.51966  0.86166  1.0000
  H   H1437     1.0  0.29875  0.56120  0.86165  1.0000
  H   H1438     1.0  0.27364  0.57975  0.86766  1.0000
  H   H1439     1.0  0.29839  0.59082  0.86002  1.0000
  H   H1440     1.0  0.31842  0.35730  0.79733  1.0000
  H   H1441     1.0  0.45217  0.61788  0.89367  1.0000
  H   H1442     1.0  0.42906  0.61787  0.84989  1.0000
  C   C848      1.0  0.35965  0.63706  0.74801  1.0000
  H   H1443     1.0  0.40062  0.31946  0.97144  1.0000
  C   C849      1.0  0.32731  0.60850  0.75540  1.0000
  Fe  Fe128     1.0  0.31175  0.63250  0.81938  1.0000
  H   H1444     1.0  0.40170  0.32781  0.93407  1.0000
  H   H1445     1.0  0.01540  0.57217  0.89473  1.0000
  H   H1446     1.0  0.05070  0.59751  0.88955  1.0000
  N   N62       1.0  0.20861  0.35085  0.87142  1.0000
  C   C850      1.0  0.99612  0.58310  0.93565  1.0000
  H   H1447     1.0  0.02596  0.60502  0.91941  1.0000
  C   C851      1.0  0.19571  0.37433  0.86889  1.0000
  C   C852      1.0  0.00737  0.45967  0.97071  1.0000
  H   H1448     1.0  0.00556  0.53576  0.90888  1.0000
  H   H1449     1.0  0.20624  0.38826  0.84644  1.0000
  H   H1450     1.0  0.00831  0.58327  0.94267  1.0000
  C   C853      1.0  0.27122  0.63472  0.78689  1.0000
  H   H1451     1.0  0.23432  0.35624  0.85281  1.0000
  H   H1452     1.0  0.21313  0.35376  0.89261  1.0000
  H   H1453     1.0  0.17916  0.37416  0.86573  1.0000
  H   H1454     1.0  0.19143  0.38151  0.87892  1.0000
  H   H1455     1.0  0.01331  0.60419  0.90480  1.0000
  C   C854      1.0  0.31007  0.33228  0.84436  1.0000
  H   H1456     1.0  0.40641  0.34873  0.91148  1.0000
  C   C855      1.0  0.44582  0.62621  0.86560  1.0000
  H   H1457     1.0  0.16422  0.35696  0.88847  1.0000
  H   H1458     1.0  0.99106  0.60378  0.87223  1.0000
  H   H1459     1.0  0.21075  0.34624  0.84959  1.0000
  C   C856      1.0  0.17432  0.34004  0.89007  1.0000
  H   H1460     1.0  0.23038  0.33065  0.88574  1.0000
  N   N63       1.0  0.37133  0.47635  0.88102  1.0000
  C   C857      1.0  0.36278  0.47530  0.89680  1.0000
  C   C858      1.0  0.39285  0.45994  0.87939  1.0000
  C   C859      1.0  0.35376  0.46942  0.87438  1.0000
  C   C860      1.0  0.37484  0.50015  0.87499  1.0000
  C   C861      1.0  0.19166  0.33489  0.87680  1.0000
  C   C862      1.0  0.41200  0.46418  0.88637  1.0000
  C   C863      1.0  0.36161  0.46064  0.86008  1.0000
  C   C864      1.0  0.38576  0.50507  0.85925  1.0000
  H   H1461     1.0  0.36316  0.45761  0.90214  1.0000
  H   H1462     1.0  0.37387  0.48252  0.90202  1.0000
  H   H1463     1.0  0.39994  0.45898  0.86809  1.0000
  H   H1464     1.0  0.38940  0.44269  0.88399  1.0000
  H   H1465     1.0  0.34588  0.45568  0.88167  1.0000
  H   H1466     1.0  0.37110  0.47198  0.85190  1.0000
  H   H1467     1.0  0.35847  0.51153  0.87579  1.0000
  H   H1468     1.0  0.38453  0.50680  0.88147  1.0000
  H   H1469     1.0  0.25279  0.35796  0.88784  1.0000
  C   C865      1.0  0.44534  0.61248  0.85392  1.0000
  H   H1470     1.0  0.04858  0.36976  0.89713  1.0000
  H   H1471     1.0  0.40783  0.46145  0.89816  1.0000
  H   H1472     1.0  0.42720  0.45180  0.88370  1.0000
  H   H1473     1.0  0.41667  0.48109  0.88236  1.0000
  C   C866      1.0  0.48335  0.63836  0.86221  1.0000
  H   H1474     1.0  0.37175  0.44369  0.86161  1.0000
  H   H1475     1.0  0.41113  0.63383  0.79539  1.0000
  H   H1476     1.0  0.06470  0.59565  0.90483  1.0000
  H   H1477     1.0  0.30355  0.40397  0.83240  1.0000
  H   H1478     1.0  0.25671  0.63937  0.76805  1.0000
  H   H1479     1.0  0.01452  0.44588  0.96446  1.0000
  H   H1480     1.0  0.37457  0.41553  0.78848  1.0000
  C   C867      1.0  0.42072  0.33894  0.88538  1.0000
  H   H1481     1.0  0.37000  0.34141  0.91280  1.0000
  C   C868      1.0  0.33863  0.48738  0.90101  1.0000
  H   H1482     1.0  0.04759  0.36350  0.87975  1.0000
  H   H1483     1.0  0.27543  0.64174  0.74302  1.0000
  C   C869      1.0  0.24295  0.36200  0.87891  1.0000
  H   H1484     1.0  0.35635  0.39915  0.78369  1.0000
  H   H1485     1.0  0.31062  0.39690  0.79748  1.0000
  H   H1486     1.0  0.16218  0.32790  0.89253  1.0000
  H   H1487     1.0  0.28543  0.63817  0.79120  1.0000
  H   H1488     1.0  0.32022  0.42588  0.82734  1.0000
  H   H1489     1.0  0.32438  0.32452  0.84955  1.0000
  H   H1490     1.0  0.23691  0.38024  0.87773  1.0000
  C   C870      1.0  0.28534  0.33157  0.82770  1.0000
  C   C871      1.0  0.31207  0.41448  0.82296  1.0000
  H   H1491     1.0  0.25925  0.36011  0.82547  1.0000
  C   C872      1.0  0.37148  0.33851  0.90169  1.0000
  H   H1492     1.0  0.99139  0.56982  0.91795  1.0000
  H   H1493     1.0  0.28185  0.43940  0.82322  1.0000
  H   H1494     1.0  0.33478  0.48578  0.91280  1.0000
  C   C873      1.0  0.34827  0.63329  0.73751  1.0000
  C   C874      1.0  0.47807  0.59888  0.87327  1.0000
  H   H1495     1.0  0.41057  0.35573  0.88617  1.0000
  H   H1496     1.0  0.31494  0.59722  0.75830  1.0000
  H   H1497     1.0  0.34657  0.45890  0.85575  1.0000
  H   H1498     1.0  0.06946  0.56400  0.93530  1.0000
  S   S250      1.0  0.27422  0.64391  0.82157  1.0000
  C   C875      1.0  0.05119  0.56790  0.93464  1.0000
  C   C876      1.0  0.29339  0.42980  0.81543  1.0000
  C   C877      1.0  0.20669  0.39170  0.85721  1.0000
  H   H1499     1.0  0.28292  0.42021  0.81141  1.0000
  H   H1500     1.0  0.47759  0.62940  0.89054  1.0000
  N   N64       1.0  0.46761  0.62323  0.87143  1.0000
  H   H1501     1.0  0.33162  0.35141  0.81272  1.0000
  H   H1502     1.0  0.04803  0.62112  0.89819  1.0000
  H   H1503     1.0  0.01508  0.36738  0.91174  1.0000
  H   H1504     1.0  0.23373  0.61878  0.83846  1.0000
  H   H1505     1.0  0.36806  0.38221  0.83773  1.0000
  H   H1506     1.0  0.34549  0.40455  0.83981  1.0000
  S   S251      1.0  0.41960  0.40144  0.96758  1.0000
  H   H1507     1.0  0.44602  0.59437  0.85824  1.0000
  H   H1508     1.0  0.22420  0.39269  0.85806  1.0000
  H   H1509     1.0  0.34873  0.42751  0.80729  1.0000
  C   C878      1.0  0.34250  0.41501  0.80264  1.0000
  C   C879      1.0  0.30364  0.32156  0.83454  1.0000
  H   H1510     1.0  0.35209  0.64136  0.72659  1.0000
  H   H1511     1.0  0.30019  0.44247  0.80674  1.0000
  H   H1512     1.0  0.25510  0.64174  0.79303  1.0000
  C   C880      1.0  0.02778  0.56177  0.90130  1.0000
  C   C881      1.0  0.02788  0.59616  0.91021  1.0000
  C   C882      1.0  0.99303  0.44070  0.93480  1.0000
  C   C883      1.0  0.04696  0.55932  0.92157  1.0000
  C   C884      1.0  0.02301  0.53740  0.90351  1.0000
  C   C885      1.0  0.04923  0.60256  0.90013  1.0000
  H   H1513     1.0  0.04523  0.54137  0.92529  1.0000
  N   N65       1.0  0.02708  0.57141  0.91466  1.0000
  H   H1514     1.0  0.33666  0.50551  0.89670  1.0000
  H   H1515     1.0  0.04450  0.56201  0.89439  1.0000
  H   H1516     1.0  0.36780  0.40677  0.82449  1.0000
  C   C886      1.0  0.02589  0.39489  0.88472  1.0000
  S   S252      1.0  0.05180  0.36426  0.96855  1.0000
  H   H1517     1.0  0.04181  0.55958  0.94461  1.0000
  C   C887      1.0  0.23590  0.32089  0.85843  1.0000
  H   H1518     1.0  0.06285  0.55853  0.91374  1.0000
  H   H1519     1.0  0.45887  0.61500  0.84472  1.0000
  H   H1520     1.0  0.46604  0.58847  0.88043  1.0000
  C   C888      1.0  0.27342  0.35231  0.83078  1.0000
  H   H1521     1.0  0.30115  0.38246  0.81454  1.0000
  H   H1522     1.0  0.33972  0.48343  0.87288  1.0000
  C   C889      1.0  0.32909  0.36405  0.80310  1.0000
  H   H1523     1.0  0.33138  0.42568  0.79536  1.0000
  C   C890      1.0  0.04706  0.37708  0.88594  1.0000
  S   S253      1.0  0.31654  0.61397  0.72882  1.0000
  C   C891      1.0  0.35692  0.39547  0.83174  1.0000
  H   H1524     1.0  0.22243  0.61703  0.85689  1.0000
  H   H1525     1.0  0.37214  0.38879  0.79822  1.0000
  C   C892      1.0  0.36229  0.40368  0.79276  1.0000
  H   H1526     1.0  0.01510  0.39649  0.91097  1.0000
  H   H1527     1.0  0.24885  0.31844  0.86542  1.0000
  H   H1528     1.0  0.02969  0.40986  0.88816  1.0000
  C   C893      1.0  0.00079  0.36711  0.88833  1.0000
  H   H1529     1.0  0.35648  0.37232  0.81794  1.0000
  H   H1530     1.0  0.33468  0.60419  0.77673  1.0000
  H   H1531     1.0  0.02243  0.47214  0.89970  1.0000
  H   H1532     1.0  0.00634  0.55010  0.93009  1.0000
  H   H1533     1.0  0.25477  0.35773  0.86933  1.0000
  H   H1534     1.0  0.47565  0.33108  0.96408  1.0000
  H   H1535     1.0  0.44832  0.35525  0.87281  1.0000
  S   S254      1.0  0.27706  0.31875  0.81519  1.0000
  H   H1536     1.0  0.48924  0.42922  0.94012  1.0000
  H   H1537     1.0  0.24510  0.31865  0.84762  1.0000
  H   H1538     1.0  0.43326  0.33322  0.91152  1.0000
  H   H1539     1.0  0.00104  0.43772  0.88516  1.0000
  H   H1540     1.0  0.01430  0.47473  0.96479  1.0000
  H   H1541     1.0  0.48389  0.63936  0.83933  1.0000
  H   H1542     1.0  0.43713  0.34920  0.97098  1.0000
  C   C894      1.0  0.41555  0.33134  0.91144  1.0000
  C   C895      1.0  0.27237  0.64319  0.77077  1.0000
  H   H1543     1.0  0.99967  0.51215  0.96939  1.0000
  C   C896      1.0  0.00543  0.38423  0.90870  1.0000
  H   H1544     1.0  0.40149  0.36036  0.96783  1.0000
  H   H1545     1.0  0.09868  0.35064  0.97226  1.0000
  Fe  Fe129     1.0  0.35758  0.63631  0.82678  1.0000
  C   C897      1.0  0.99332  0.47314  0.91625  1.0000
  H   H1546     1.0  0.20015  0.31749  0.87976  1.0000
  N   N66       1.0  0.41382  0.32228  0.89834  1.0000
  C   C898      1.0  0.39007  0.31883  0.89822  1.0000
  H   H1547     1.0  0.00012  0.64105  0.87344  1.0000
  H   H1548     1.0  0.28645  0.63213  0.76530  1.0000
  H   H1549     1.0  0.01470  0.35328  0.89070  1.0000
  H   H1550     1.0  0.00142  0.36983  0.87656  1.0000
  H   H1551     1.0  0.44058  0.64413  0.86125  1.0000
  H   H1552     1.0  0.41477  0.64100  0.82309  1.0000
  H   H1553     1.0  0.35498  0.33452  0.90055  1.0000
  H   H1554     1.0  0.99695  0.50689  0.95209  1.0000
  C   C899      1.0  0.40827  0.31681  0.92588  1.0000
  Fe  Fe130     1.0  0.28699  0.73452  0.18161  1.0000
  S   S255      1.0  0.31580  0.74599  0.16551  1.0000
  S   S256      1.0  0.25360  0.72945  0.17702  1.0000
  H   H1555     1.0  0.21489  0.71221  0.17361  1.0000
  S   S257      1.0  0.34007  0.74847  0.19297  1.0000
  Fe  Fe131     1.0  0.31588  0.77087  0.17964  1.0000
  S   S258      1.0  0.32284  0.80586  0.17035  1.0000
  Fe  Fe132     1.0  0.33789  0.72270  0.17982  1.0000
  S   S259      1.0  0.36637  0.69986  0.16878  1.0000
  S   S260      1.0  0.28509  0.76176  0.19448  1.0000
  H   H1556     1.0  0.09910  0.77435  0.09567  1.0000
  S   S261      1.0  0.46830  0.71639  0.15612  1.0000
  Fe  Fe133     1.0  0.46766  0.87226  0.06568  1.0000
  Fe  Fe134     1.0  0.42975  0.90709  0.05550  1.0000
  S   S262      1.0  0.45031  0.91657  0.03412  1.0000
  S   S263      1.0  0.39479  0.92688  0.05889  1.0000
  Fe  Fe135     1.0  0.46138  0.87978  0.03471  1.0000
  S   S264      1.0  0.46558  0.86202  0.01570  1.0000
  H   H1557     1.0  0.46269  0.84487  0.99064  1.0000
  S   S265      1.0  0.43853  0.87007  0.05522  1.0000
  S   S266      1.0  0.45697  0.90886  0.06767  1.0000
  H   H1558     1.0  0.34444  0.92139  0.03039  1.0000
  Fe  Fe136     1.0  0.26814  0.95404  0.12385  1.0000
  S   S267      1.0  0.27153  0.94377  0.10214  1.0000
  Fe  Fe137     1.0  0.25308  0.90949  0.13880  1.0000
  S   S268      1.0  0.25507  0.89636  0.11849  1.0000
  S   S269      1.0  0.24360  0.88563  0.15901  1.0000
  Fe  Fe138     1.0  0.28761  0.91014  0.11213  1.0000
  S   S270      1.0  0.31794  0.88606  0.10416  1.0000
  Fe  Fe139     1.0  0.23845  0.93051  0.11010  1.0000
  S   S271      1.0  0.21042  0.93666  0.09632  1.0000
  S   S272      1.0  0.28674  0.92116  0.13304  1.0000
  S   S273      1.0  0.23381  0.94318  0.13111  1.0000
  Fe  Fe140     1.0  0.12814  0.87434  0.06593  1.0000
  S   S274      1.0  0.09700  0.87448  0.08243  1.0000
  S   S275      1.0  0.16170  0.86849  0.07449  1.0000
  Fe  Fe141     1.0  0.10012  0.88017  0.04175  1.0000
  S   S276      1.0  0.06732  0.88109  0.05686  1.0000
  S   S277      1.0  0.09795  0.88948  0.01799  1.0000
  Fe  Fe142     1.0  0.08163  0.90316  0.06761  1.0000
  S   S278      1.0  0.06134  0.93313  0.07688  1.0000
  Fe  Fe143     1.0  0.08526  0.85208  0.07042  1.0000
  S   S279      1.0  0.06500  0.82618  0.08460  1.0000
  S   S280      1.0  0.11336  0.90459  0.05173  1.0000
  S   S281      1.0  0.11755  0.84957  0.05467  1.0000
  C   C900      1.0  0.46894  0.69415  0.06139  1.0000
  Fe  Fe144     1.0  0.01993  0.68573  0.12517  1.0000
  S   S282      1.0  0.02863  0.67589  0.10342  1.0000
  Fe  Fe145     1.0  0.99148  0.67449  0.10524  1.0000
  C   C901      1.0  0.01930  0.82000  0.04050  1.0000
  Fe  Fe146     1.0  0.01967  0.71292  0.09542  1.0000
  S   S283      1.0  0.04297  0.73171  0.07784  1.0000
  S   S284      1.0  0.01349  0.72246  0.11709  1.0000
  C   C902      1.0  0.08928  0.87393  0.00692  1.0000
  C   C903      1.0  0.07806  0.88547  0.99566  1.0000
  C   C904      1.0  0.07326  0.87401  0.98555  1.0000
  C   C905      1.0  0.08002  0.85089  0.98647  1.0000
  C   C906      1.0  0.09083  0.83928  0.99789  1.0000
  C   C907      1.0  0.09540  0.85070  0.00810  1.0000
  H   H1559     1.0  0.07341  0.90348  0.99461  1.0000
  H   H1560     1.0  0.45583  0.66495  0.08616  1.0000
  H   H1561     1.0  0.09626  0.82140  0.99863  1.0000
  H   H1562     1.0  0.10449  0.84167  0.01651  1.0000
  C   C908      1.0  0.05913  0.80016  0.08211  1.0000
  C   C909      1.0  0.04126  0.79100  0.09129  1.0000
  C   C910      1.0  0.03597  0.77026  0.08995  1.0000
  C   C911      1.0  0.04856  0.75835  0.07940  1.0000
  C   C912      1.0  0.06649  0.76750  0.07019  1.0000
  C   C913      1.0  0.07186  0.78825  0.07160  1.0000
  H   H1563     1.0  0.03133  0.80006  0.09949  1.0000
  H   H1564     1.0  0.02202  0.76359  0.09703  1.0000
  H   H1565     1.0  0.07649  0.75829  0.06209  1.0000
  H   H1566     1.0  0.08604  0.79486  0.06473  1.0000
  C   C914      1.0  0.02645  0.96675  0.07128  1.0000
  C   C915      1.0  0.04318  0.95032  0.06581  1.0000
  C   C916      1.0  0.04547  0.94800  0.05152  1.0000
  H   H1567     1.0  0.26488  0.84455  0.21405  1.0000
  H   H1568     1.0  0.11282  0.64975  0.11721  1.0000
  H   H1569     1.0  0.05834  0.93542  0.04720  1.0000
  C   C917      1.0  0.36159  0.91470  0.03306  1.0000
  H   H1570     1.0  0.34394  0.97364  0.13048  1.0000
  H   H1571     1.0  0.22537  0.70423  0.20046  1.0000
  C   C918      1.0  0.14524  0.89484  0.98526  1.0000
  C   C919      1.0  0.22633  0.67868  0.16901  1.0000
  H   H1572     1.0  0.48959  0.69591  0.08636  1.0000
  C   C920      1.0  0.17611  0.88759  0.07976  1.0000
  C   C921      1.0  0.19143  0.87936  0.08939  1.0000
  C   C922      1.0  0.20233  0.89400  0.09443  1.0000
  C   C923      1.0  0.19821  0.91714  0.08978  1.0000
  C   C924      1.0  0.18330  0.92529  0.07989  1.0000
  C   C925      1.0  0.17234  0.91068  0.07491  1.0000
  H   H1573     1.0  0.19461  0.86155  0.09317  1.0000
  H   H1574     1.0  0.21375  0.88740  0.10200  1.0000
  H   H1575     1.0  0.18018  0.94309  0.07607  1.0000
  H   H1576     1.0  0.16110  0.91724  0.06723  1.0000
  C   C926      1.0  0.22932  0.69938  0.17193  1.0000
  H   H1577     1.0  0.04771  0.85958  0.01804  1.0000
  C   C927      1.0  0.09792  0.77683  0.10685  1.0000
  C   C928      1.0  0.44975  0.87285  0.00182  1.0000
  C   C929      1.0  0.45162  0.86074  0.99063  1.0000
  C   C930      1.0  0.39799  0.85623  0.03808  1.0000
  H   H1578     1.0  0.28084  0.65348  0.16547  1.0000
  C   C931      1.0  0.42292  0.90151  0.99060  1.0000
  C   C932      1.0  0.43557  0.89341  0.00167  1.0000
  H   H1579     1.0  0.25520  0.71270  0.20904  1.0000
  H   H1580     1.0  0.47154  0.69566  0.04956  1.0000
  H   H1581     1.0  0.41193  0.91743  0.99053  1.0000
  H   H1582     1.0  0.43437  0.90312  0.01004  1.0000
  C   C933      1.0  0.37366  0.91503  0.07137  1.0000
  C   C934      1.0  0.35179  0.92705  0.07302  1.0000
  C   C935      1.0  0.33458  0.91831  0.08308  1.0000
  C   C936      1.0  0.33910  0.89733  0.09139  1.0000
  C   C937      1.0  0.36085  0.88505  0.08951  1.0000
  C   C938      1.0  0.37817  0.89395  0.07957  1.0000
  H   H1583     1.0  0.34820  0.94328  0.06658  1.0000
  H   H1584     1.0  0.31777  0.92771  0.08433  1.0000
  H   H1585     1.0  0.36439  0.86879  0.09591  1.0000
  H   H1586     1.0  0.39499  0.88458  0.07833  1.0000
  H   H1587     1.0  0.35404  0.89885  0.01090  1.0000
  H   H1588     1.0  0.40829  0.74011  0.14001  1.0000
  H   H1589     1.0  0.13055  0.90829  0.98646  1.0000
  H   H1590     1.0  0.36748  0.85633  0.01371  1.0000
  C   C939      1.0  0.25080  0.70350  0.17276  1.0000
  C   C940      1.0  0.26936  0.68682  0.17053  1.0000
  C   C941      1.0  0.26640  0.66623  0.16735  1.0000
  H   H1591     1.0  0.28601  0.68981  0.17114  1.0000
  H   H1592     1.0  0.26926  0.67853  0.20462  1.0000
  C   C942      1.0  0.39462  0.70465  0.16547  1.0000
  C   C943      1.0  0.40193  0.71893  0.17269  1.0000
  C   C944      1.0  0.42468  0.72203  0.16992  1.0000
  C   C945      1.0  0.44014  0.71123  0.15975  1.0000
  C   C946      1.0  0.43279  0.69707  0.15247  1.0000
  C   C947      1.0  0.41015  0.69365  0.15543  1.0000
  H   H1593     1.0  0.39016  0.72731  0.18054  1.0000
  H   H1594     1.0  0.43029  0.73291  0.17564  1.0000
  H   H1595     1.0  0.44458  0.68850  0.14472  1.0000
  H   H1596     1.0  0.07386  0.92010  0.12921  1.0000
  C   C948      1.0  0.30037  0.82774  0.16778  1.0000
  C   C949      1.0  0.30532  0.84897  0.16128  1.0000
  C   C950      1.0  0.28795  0.86679  0.15875  1.0000
  C   C951      1.0  0.26546  0.86364  0.16292  1.0000
  C   C952      1.0  0.26046  0.84252  0.16988  1.0000
  C   C953      1.0  0.27789  0.82450  0.17215  1.0000
  H   H1597     1.0  0.32266  0.85163  0.15798  1.0000
  H   H1598     1.0  0.29203  0.88301  0.15365  1.0000
  H   H1599     1.0  0.24308  0.83998  0.17315  1.0000
  H   H1600     1.0  0.27391  0.80816  0.17725  1.0000
  H   H1601     1.0  0.24077  0.84908  0.12354  1.0000
  C   C954      1.0  0.48382  0.81855  0.08445  1.0000
  H   H1602     1.0  0.07357  0.81202  0.02404  1.0000
  H   H1603     1.0  0.12500  0.87030  0.98446  1.0000
  C   C955      1.0  0.28307  0.79632  0.22218  1.0000
  C   C956      1.0  0.14040  0.87635  0.97801  1.0000
  C   C957      1.0  0.10320  0.65203  0.12755  1.0000
  N   N67       1.0  0.22862  0.69604  0.22263  1.0000
  H   H1604     1.0  0.40509  0.95552  0.10010  1.0000
  C   C958      1.0  0.24088  0.67245  0.22222  1.0000
  C   C959      1.0  0.01531  0.85584  0.01426  1.0000
  H   H1605     1.0  0.04534  0.83241  0.01530  1.0000
  H   H1606     1.0  0.39165  0.88812  0.04519  1.0000
  C   C960      1.0  0.48220  0.78581  0.07422  1.0000
  H   H1607     1.0  0.36028  0.91539  0.04456  1.0000
  H   H1608     1.0  0.06197  0.79542  0.04029  1.0000
  H   H1609     1.0  0.15000  0.94105  0.11725  1.0000
  N   N68       1.0  0.31186  0.82399  0.21417  1.0000
  C   C961      1.0  0.47270  0.93346  0.97927  1.0000
  C   C962      1.0  0.01923  0.80528  0.05537  1.0000
  C   C963      1.0  0.35861  0.97023  0.12195  1.0000
  H   H1610     1.0  0.37509  0.97606  0.09082  1.0000
  C   C964      1.0  0.10165  0.65109  0.15278  1.0000
  H   H1611     1.0  0.20496  0.72020  0.21123  1.0000
  H   H1612     1.0  0.03309  0.96027  0.03165  1.0000
  H   H1613     1.0  0.08449  0.89285  0.12403  1.0000
  H   H1614     1.0  0.28200  0.86662  0.21112  1.0000
  H   H1615     1.0  0.32923  0.94418  0.10468  1.0000
  C   C965      1.0  0.02142  0.85875  0.04385  1.0000
  H   H1616     1.0  0.47171  0.82007  0.06479  1.0000
  H   H1617     1.0  0.08684  0.80728  0.03930  1.0000
  H   H1618     1.0  0.09289  0.70655  0.08996  1.0000
  H   H1619     1.0  0.06498  0.76759  0.11450  1.0000
  H   H1620     1.0  0.12834  0.95491  0.07443  1.0000
  N   N69       1.0  0.28706  0.81517  0.12617  1.0000
  C   C966      1.0  0.31024  0.81982  0.11883  1.0000
  C   C967      1.0  0.27680  0.80625  0.11581  1.0000
  C   C968      1.0  0.29008  0.79726  0.13896  1.0000
  C   C969      1.0  0.27360  0.83657  0.13055  1.0000
  C   C970      1.0  0.32435  0.82841  0.12772  1.0000
  C   C971      1.0  0.27421  0.82206  0.10160  1.0000
  C   C972      1.0  0.26858  0.78935  0.14802  1.0000
  C   C973      1.0  0.24760  0.83862  0.13288  1.0000
  H   H1621     1.0  0.32045  0.80456  0.11496  1.0000
  H   H1622     1.0  0.30911  0.83294  0.10924  1.0000
  H   H1623     1.0  0.25994  0.80179  0.12046  1.0000
  H   H1624     1.0  0.28704  0.79020  0.11316  1.0000
  H   H1625     1.0  0.30142  0.78213  0.13566  1.0000
  H   H1626     1.0  0.29840  0.80301  0.14653  1.0000
  H   H1627     1.0  0.27842  0.83952  0.14044  1.0000
  H   H1628     1.0  0.27798  0.85109  0.12234  1.0000
  H   H1629     1.0  0.33990  0.83317  0.12070  1.0000
  H   H1630     1.0  0.31538  0.84373  0.13193  1.0000
  H   H1631     1.0  0.32986  0.81540  0.13649  1.0000
  H   H1632     1.0  0.29057  0.82212  0.09433  1.0000
  H   H1633     1.0  0.26274  0.81593  0.09608  1.0000
  H   H1634     1.0  0.26694  0.83947  0.10310  1.0000
  H   H1635     1.0  0.27346  0.77557  0.15661  1.0000
  H   H1636     1.0  0.25871  0.78237  0.14191  1.0000
  H   H1637     1.0  0.25798  0.80280  0.15350  1.0000
  H   H1638     1.0  0.24046  0.84792  0.14190  1.0000
  H   H1639     1.0  0.24075  0.82269  0.13549  1.0000
  N   N70       1.0  0.11603  0.92198  0.10797  1.0000
  C   C974      1.0  0.12401  0.94117  0.09707  1.0000
  C   C975      1.0  0.11830  0.92633  0.12241  1.0000
  C   C976      1.0  0.09168  0.92172  0.10712  1.0000
  C   C977      1.0  0.13063  0.90067  0.10433  1.0000
  C   C978      1.0  0.11819  0.94318  0.08198  1.0000
  C   C979      1.0  0.14248  0.92721  0.12458  1.0000
  C   C980      1.0  0.05643  0.83176  0.04110  1.0000
  C   C981      1.0  0.12680  0.87872  0.11448  1.0000
  H   H1640     1.0  0.33745  0.79474  0.21693  1.0000
  H   H1641     1.0  0.14260  0.94014  0.09574  1.0000
  H   H1642     1.0  0.11176  0.91356  0.13113  1.0000
  H   H1643     1.0  0.11693  0.95754  0.10070  1.0000
  C   C982      1.0  0.03119  0.96212  0.04272  1.0000
  H   H1644     1.0  0.09048  0.91371  0.09796  1.0000
  H   H1645     1.0  0.12862  0.89774  0.09371  1.0000
  H   H1646     1.0  0.14878  0.90201  0.10300  1.0000
  C   C983      1.0  0.32166  0.84071  0.21976  1.0000
  H   H1647     1.0  0.46952  0.94656  0.00483  1.0000
  C   C984      1.0  0.48508  0.94943  0.99704  1.0000
  C   C985      1.0  0.42427  0.88912  0.97964  1.0000
  H   H1648     1.0  0.27068  0.86068  0.19682  1.0000
  C   C986      1.0  0.01614  0.85534  0.06025  1.0000
  H   H1649     1.0  0.08256  0.93914  0.10499  1.0000
  H   H1650     1.0  0.14819  0.88740  0.99626  1.0000
  H   H1651     1.0  0.06882  0.66152  0.16435  1.0000
  H   H1652     1.0  0.11348  0.87116  0.11160  1.0000
  H   H1653     1.0  0.12291  0.88053  0.12584  1.0000
  H   H1654     1.0  0.14270  0.86664  0.11353  1.0000
  N   N71       1.0  0.08882  0.73708  0.11800  1.0000
  C   C987      1.0  0.08217  0.76211  0.11739  1.0000
  C   C988      1.0  0.06999  0.72623  0.12760  1.0000
  H   H1655     1.0  0.45638  0.93253  0.98660  1.0000
  C   C989      1.0  0.11090  0.73036  0.12355  1.0000
  C   C990      1.0  0.06629  0.72904  0.14339  1.0000
  C   C991      1.0  0.11934  0.70510  0.12707  1.0000
  H   H1656     1.0  0.08123  0.76702  0.12798  1.0000
  H   H1657     1.0  0.07225  0.70798  0.12758  1.0000
  C   C992      1.0  0.08841  0.70832  0.10140  1.0000
  C   C993      1.0  0.09124  0.73205  0.10305  1.0000
  H   H1658     1.0  0.12466  0.73726  0.11567  1.0000
  H   H1659     1.0  0.11075  0.73803  0.13311  1.0000
  H   H1660     1.0  0.24570  0.66978  0.19938  1.0000
  H   H1661     1.0  0.06042  0.74668  0.14491  1.0000
  H   H1662     1.0  0.05283  0.71931  0.14932  1.0000
  H   H1663     1.0  0.08154  0.72218  0.14834  1.0000
  H   H1664     1.0  0.12911  0.69831  0.11753  1.0000
  H   H1665     1.0  0.10573  0.69522  0.13193  1.0000
  H   H1666     1.0  0.13041  0.70215  0.13531  1.0000
  H   H1667     1.0  0.29441  0.78238  0.21761  1.0000
  H   H1668     1.0  0.38850  0.84638  0.03361  1.0000
  C   C994      1.0  0.27808  0.85286  0.20656  1.0000
  H   H1669     1.0  0.30838  0.97562  0.09609  1.0000
  H   H1670     1.0  0.33456  0.86382  0.05919  1.0000
  H   H1671     1.0  0.02608  0.78755  0.05430  1.0000
  H   H1672     1.0  0.09935  0.69499  0.10732  1.0000
  H   H1673     1.0  0.45888  0.71865  0.07647  1.0000
  C   C995      1.0  0.24487  0.66204  0.16661  1.0000
  H   H1674     1.0  0.46498  0.97764  0.98500  1.0000
  C   C996      1.0  0.34841  0.92398  0.11968  1.0000
  H   H1675     1.0  0.33419  0.88506  0.03412  1.0000
  S   S285      1.0  0.47791  0.84768  0.08478  1.0000
  H   H1676     1.0  0.36365  0.95227  0.08958  1.0000
  H   H1677     1.0  0.15415  0.86206  0.97951  1.0000
  C   C997      1.0  0.29925  0.83611  0.20233  1.0000
  H   H1678     1.0  0.28206  0.97238  0.15483  1.0000
  H   H1679     1.0  0.22511  0.74407  0.21659  1.0000
  H   H1680     1.0  0.33583  0.91231  0.12310  1.0000
  H   H1681     1.0  0.46954  0.73051  0.05849  1.0000
  H   H1682     1.0  0.07846  0.74343  0.09727  1.0000
  C   C998      1.0  0.39120  0.88201  0.03514  1.0000
  C   C999      1.0  0.07989  0.65960  0.12885  1.0000
  H   H1683     1.0  0.45523  0.68390  0.06511  1.0000
  H   H1684     1.0  0.47797  0.77872  0.06585  1.0000
  Fe  Fe147     1.0  0.47843  0.91559  0.04626  1.0000
  C   C1000     1.0  0.07837  0.65876  0.15407  1.0000
  H   H1685     1.0  0.06672  0.84556  0.03714  1.0000
  C   C1001     1.0  0.21438  0.70302  0.21099  1.0000
  H   H1686     1.0  0.00168  0.80528  0.06108  1.0000
  H   H1687     1.0  0.44209  0.72272  0.06267  1.0000
  C   C1002     1.0  0.07719  0.91027  0.12034  1.0000
  H   H1688     1.0  0.12185  0.92707  0.07788  1.0000
  H   H1689     1.0  0.47824  0.89867  0.97451  1.0000
  H   H1690     1.0  0.10024  0.95024  0.08167  1.0000
  H   H1691     1.0  0.29392  0.82389  0.19704  1.0000
  H   H1692     1.0  0.40462  0.68243  0.14990  1.0000
  H   H1693     1.0  0.47571  0.76327  0.13498  1.0000
  C   C1003     1.0  0.33010  0.80657  0.20827  1.0000
  H   H1694     1.0  0.36134  0.87147  0.05922  1.0000
  S   S286      1.0  0.48105  0.69651  0.11848  1.0000
  H   H1695     1.0  0.36111  0.80117  0.19334  1.0000
  H   H1696     1.0  0.39501  0.92605  0.02655  1.0000
  C   C1004     1.0  0.33647  0.94717  0.11371  1.0000
  C   C1005     1.0  0.37841  0.86913  0.00876  1.0000
  H   H1697     1.0  0.07056  0.70562  0.10463  1.0000
  H   H1698     1.0  0.33158  0.85100  0.21094  1.0000
  H   H1699     1.0  0.03141  0.87287  0.04038  1.0000
  H   H1700     1.0  0.20972  0.67578  0.16837  1.0000
  H   H1701     1.0  0.39748  0.93324  0.09379  1.0000
  H   H1702     1.0  0.06056  0.90962  0.11752  1.0000
  C   C1006     1.0  0.37718  0.93186  0.02525  1.0000
  H   H1703     1.0  0.05382  0.73282  0.12355  1.0000
  H   H1704     1.0  0.32179  0.95206  0.12187  1.0000
  H   H1705     1.0  0.14201  0.93034  0.13556  1.0000
  S   S287      1.0  0.17455  0.64995  0.16858  1.0000
  H   H1706     1.0  0.02493  0.80838  0.03253  1.0000
  H   H1707     1.0  0.39695  0.85021  0.04971  1.0000
  N   N72       1.0  0.43234  0.77474  0.12727  1.0000
  C   C1007     1.0  0.43923  0.77398  0.14154  1.0000
  C   C1008     1.0  0.40714  0.77551  0.12965  1.0000
  C   C1009     1.0  0.43817  0.79625  0.11806  1.0000
  C   C1010     1.0  0.44508  0.75453  0.12089  1.0000
  C   C1011     1.0  0.46427  0.77524  0.14130  1.0000
  C   C1012     1.0  0.39795  0.75667  0.14094  1.0000
  C   C1013     1.0  0.43168  0.80143  0.10308  1.0000
  C   C1014     1.0  0.43382  0.74566  0.11053  1.0000
  H   H1708     1.0  0.42899  0.78772  0.14705  1.0000
  H   H1709     1.0  0.43595  0.75817  0.14873  1.0000
  H   H1710     1.0  0.40099  0.77501  0.11968  1.0000
  H   H1711     1.0  0.39845  0.79169  0.13301  1.0000
  H   H1712     1.0  0.43033  0.81085  0.12352  1.0000
  H   H1713     1.0  0.45658  0.79646  0.11632  1.0000
  H   H1714     1.0  0.46200  0.75789  0.11516  1.0000
  H   H1715     1.0  0.44866  0.73996  0.12936  1.0000
  H   H1716     1.0  0.36926  0.95550  0.12699  1.0000
  H   H1717     1.0  0.46820  0.79245  0.13731  1.0000
  H   H1718     1.0  0.33684  0.89263  0.05756  1.0000
  H   H1719     1.0  0.39627  0.86265  0.00981  1.0000
  H   H1720     1.0  0.38052  0.75556  0.13972  1.0000
  H   H1721     1.0  0.41359  0.80145  0.10311  1.0000
  H   H1722     1.0  0.44234  0.78997  0.09610  1.0000
  H   H1723     1.0  0.43524  0.81853  0.09811  1.0000
  H   H1724     1.0  0.41944  0.73714  0.11623  1.0000
  H   H1725     1.0  0.44627  0.73293  0.10534  1.0000
  H   H1726     1.0  0.10775  0.94248  0.12460  1.0000
  H   H1727     1.0  0.00752  0.87250  0.01707  1.0000
  C   C1015     1.0  0.43892  0.86886  0.97953  1.0000
  H   H1728     1.0  0.20444  0.67562  0.20309  1.0000
  N   N73       1.0  0.03325  0.83876  0.03701  1.0000
  H   H1729     1.0  0.40500  0.88885  0.02730  1.0000
  C   C1016     1.0  0.36964  0.96033  0.09720  1.0000
  H   H1730     1.0  0.25250  0.74475  0.22010  1.0000
  H   H1731     1.0  0.35353  0.86035  0.03590  1.0000
  H   H1732     1.0  0.37576  0.93650  0.01378  1.0000
  H   H1733     1.0  0.36105  0.91664  0.11134  1.0000
  C   C1017     1.0  0.35038  0.87776  0.03804  1.0000
  H   H1734     1.0  0.39707  0.76026  0.15186  1.0000
  H   H1735     1.0  0.42818  0.75871  0.10190  1.0000
  H   H1736     1.0  0.37780  0.87214  0.99714  1.0000
  C   C1018     1.0  0.39138  0.94535  0.10138  1.0000
  H   H1737     1.0  0.16053  0.90198  0.97973  1.0000
  C   C1019     1.0  0.47867  0.80924  0.07358  1.0000
  H   H1738     1.0  0.34418  0.82721  0.18835  1.0000
  S   S288      1.0  0.30878  0.70919  0.19494  1.0000
  H   H1739     1.0  0.11498  0.77422  0.10973  1.0000
  S   S289      1.0  0.03849  0.67424  0.14407  1.0000
  H   H1740     1.0  0.02439  0.96835  0.08240  1.0000
  C   C1020     1.0  0.06744  0.66324  0.14210  1.0000
  H   H1741     1.0  0.32303  0.79597  0.20262  1.0000
  C   C1021     1.0  0.03666  0.84637  0.02106  1.0000
  Fe  Fe148     1.0  0.30897  0.73718  0.20684  1.0000
  H   H1742     1.0  0.09086  0.79474  0.10719  1.0000
  C   C1022     1.0  0.01449  0.97857  0.04814  1.0000
  H   H1743     1.0  0.03117  0.84917  0.06548  1.0000
  H   H1744     1.0  0.31030  0.84573  0.19383  1.0000
  C   C1023     1.0  0.37052  0.89149  0.01441  1.0000
  C   C1024     1.0  0.34579  0.87650  0.05440  1.0000
  H   H1745     1.0  0.46803  0.77066  0.15236  1.0000
  N   N74       1.0  0.36881  0.89090  0.03022  1.0000
  H   H1746     1.0  0.19250  0.67733  0.22160  1.0000
  H   H1747     1.0  0.38266  0.90251  0.00834  1.0000
  H   H1748     1.0  0.10784  0.73537  0.09676  1.0000
  C   C1025     1.0  0.48113  0.97381  0.98922  1.0000
  C   C1026     1.0  0.34985  0.81553  0.19762  1.0000
  C   C1027     1.0  0.46528  0.67342  0.09162  1.0000
  H   H1749     1.0  0.41599  0.85187  0.03344  1.0000
  H   H1750     1.0  0.00142  0.82676  0.03952  1.0000
  H   H1751     1.0  0.26427  0.65024  0.20935  1.0000
  H   H1752     1.0  0.02025  0.85846  0.00248  1.0000
  H   H1753     1.0  0.05603  0.82892  0.05274  1.0000
  H   H1754     1.0  0.37189  0.94753  0.02992  1.0000
  H   H1755     1.0  0.06487  0.88313  0.97684  1.0000
  C   C1028     1.0  0.25579  0.66791  0.20801  1.0000
  N   N75       1.0  0.35067  0.96570  0.10909  1.0000
  H   H1756     1.0  0.47635  0.90668  0.00359  1.0000
  C   C1029     1.0  0.07015  0.81042  0.03577  1.0000
  H   H1757     1.0  0.35591  0.92414  0.12918  1.0000
  H   H1758     1.0  0.36019  0.82367  0.20275  1.0000
  H   H1759     1.0  0.02875  0.81050  0.06243  1.0000
  C   C1030     1.0  0.45952  0.71779  0.06507  1.0000
  C   C1031     1.0  0.19755  0.68710  0.21100  1.0000
  H   H1760     1.0  0.27133  0.80488  0.21474  1.0000
  H   H1761     1.0  0.07160  0.66291  0.11959  1.0000
  H   H1762     1.0  0.00481  0.86502  0.04038  1.0000
  H   H1763     1.0  0.33372  0.97738  0.08292  1.0000
  H   H1764     1.0  0.46883  0.66158  0.10140  1.0000
  H   H1765     1.0  0.00276  0.84418  0.01687  1.0000
  H   H1766     1.0  0.12987  0.83583  0.97562  1.0000
  H   H1767     1.0  0.18197  0.69704  0.20745  1.0000
  C   C1032     1.0  0.24633  0.71113  0.22025  1.0000
  H   H1768     1.0  0.45420  0.68818  0.09549  1.0000
  H   H1769     1.0  0.00314  0.84432  0.06445  1.0000
  H   H1770     1.0  0.38969  0.93531  0.11213  1.0000
  H   H1771     1.0  0.00897  0.87181  0.06362  1.0000
  H   H1772     1.0  0.15376  0.91112  0.12351  1.0000
  C   C1033     1.0  0.48779  0.68009  0.08300  1.0000
  C   C1034     1.0  0.01208  0.98083  0.06247  1.0000
  C   C1035     1.0  0.23807  0.73524  0.22312  1.0000
  N   N76       1.0  0.49036  0.68312  0.06696  1.0000
  Fe  Fe149     1.0  0.31693  0.74542  0.31435  1.0000
  S   S290      1.0  0.30198  0.77871  0.30333  1.0000
  S   S291      1.0  0.29875  0.71527  0.32126  1.0000
  Fe  Fe150     1.0  0.36120  0.76139  0.31466  1.0000
  S   S292      1.0  0.34968  0.79599  0.30347  1.0000
  S   S293      1.0  0.39731  0.75335  0.31869  1.0000
  Fe  Fe151     1.0  0.31701  0.79347  0.31832  1.0000
  S   S294      1.0  0.29548  0.81968  0.33089  1.0000
  Fe  Fe152     1.0  0.33582  0.77819  0.28955  1.0000
  S   S295      1.0  0.34120  0.78740  0.26558  1.0000
  S   S296      1.0  0.32941  0.75999  0.33052  1.0000
  S   S297      1.0  0.34989  0.74384  0.29953  1.0000
  S   S298      1.0  0.99952  0.84041  0.40909  1.0000
  H   H1773     1.0  0.01741  0.75670  0.30353  1.0000
  S   S299      1.0  0.17424  0.67372  0.28425  1.0000
  S   S300      1.0  0.21639  0.70942  0.29177  1.0000
  H   H1774     1.0  0.45917  0.86171  0.41765  1.0000
  H   H1775     1.0  0.33757  0.65766  0.27796  1.0000
  C   C1036     1.0  0.35264  0.78787  0.36523  1.0000
  C   C1037     1.0  0.04820  0.87690  0.44675  1.0000
  H   H1776     1.0  0.01258  0.89153  0.45186  1.0000
  C   C1038     1.0  0.03046  0.72171  0.30217  1.0000
  H   H1777     1.0  0.38456  0.80642  0.31842  1.0000
  C   C1039     1.0  0.29510  0.66988  0.28660  1.0000
  Fe  Fe153     1.0  0.02292  0.71906  0.35246  1.0000
  H   H1778     1.0  0.10438  0.87360  0.42724  1.0000
  S   S301      1.0  0.02052  0.72600  0.37471  1.0000
  H   H1779     1.0  0.19214  0.97218  0.37724  1.0000
  H   H1780     1.0  0.37212  0.73915  0.34673  1.0000
  H   H1781     1.0  0.45329  0.72920  0.35064  1.0000
  H   H1782     1.0  0.00598  0.93773  0.40889  1.0000
  Fe  Fe154     1.0  0.31880  0.92806  0.35761  1.0000
  S   S302      1.0  0.30119  0.93036  0.38004  1.0000
  S   S303      1.0  0.33628  0.89818  0.34668  1.0000
  Fe  Fe155     1.0  0.32360  0.95594  0.37990  1.0000
  S   S304      1.0  0.34345  0.95304  0.39790  1.0000
  H   H1783     1.0  0.15898  0.96688  0.45287  1.0000
  H   H1784     1.0  0.10492  0.84490  0.42648  1.0000
  S   S305      1.0  0.34280  0.95134  0.35832  1.0000
  S   S306      1.0  0.29453  0.95589  0.34787  1.0000
  H   H1785     1.0  0.48409  0.96329  0.41837  1.0000
  S   S307      1.0  0.01239  0.68503  0.35920  1.0000
  H   H1786     1.0  0.41410  0.77806  0.37471  1.0000
  Fe  Fe156     1.0  0.46418  0.70610  0.38205  1.0000
  S   S308      1.0  0.42787  0.71866  0.37901  1.0000
  S   S309      1.0  0.46798  0.69151  0.40476  1.0000
  H   H1787     1.0  0.00856  0.67649  0.45148  1.0000
  H   H1788     1.0  0.01202  0.69011  0.42490  1.0000
  H   H1789     1.0  0.01526  0.70931  0.43561  1.0000
  H   H1790     1.0  0.35269  0.78825  0.37662  1.0000
  H   H1791     1.0  0.41934  0.66631  0.39204  1.0000
  H   H1792     1.0  0.44070  0.74292  0.32718  1.0000
  H   H1793     1.0  0.28935  0.94455  0.31661  1.0000
  C   C1040     1.0  0.00847  0.94794  0.42853  1.0000
  C   C1041     1.0  0.39293  0.79272  0.35856  1.0000
  H   H1794     1.0  0.09344  0.72611  0.31503  1.0000
  C   C1042     1.0  0.06405  0.68675  0.29022  1.0000
  H   H1795     1.0  0.99755  0.70489  0.32259  1.0000
  H   H1796     1.0  0.37554  0.83615  0.34995  1.0000
  S   S310      1.0  0.24021  0.96566  0.37236  1.0000
  C   C1043     1.0  0.01512  0.94647  0.41406  1.0000
  C   C1044     1.0  0.03393  0.95604  0.40635  1.0000
  H   H1797     1.0  0.35067  0.81787  0.22798  1.0000
  Fe  Fe157     1.0  0.27840  0.96014  0.37031  1.0000
  H   H1798     1.0  0.20635  0.94839  0.47078  1.0000
  N   N77       1.0  0.36921  0.80173  0.35562  1.0000
  C   C1045     1.0  0.01228  0.74005  0.30804  1.0000
  H   H1799     1.0  0.34413  0.84441  0.23383  1.0000
  C   C1046     1.0  0.09247  0.70898  0.32010  1.0000
  C   C1047     1.0  0.07421  0.70423  0.33079  1.0000
  H   H1800     1.0  0.40665  0.66499  0.34314  1.0000
  H   H1801     1.0  0.06804  0.92313  0.44334  1.0000
  C   C1048     1.0  0.10808  0.66944  0.32211  1.0000
  C   C1049     1.0  0.26875  0.69317  0.26307  1.0000
  C   C1050     1.0  0.07313  0.68203  0.33728  1.0000
  C   C1051     1.0  0.07814  0.91128  0.43635  1.0000
  H   H1802     1.0  0.31882  0.70811  0.26034  1.0000
  C   C1052     1.0  0.99396  0.68532  0.44631  1.0000
  H   H1803     1.0  0.05926  0.67813  0.34556  1.0000
  H   H1804     1.0  0.30807  0.85290  0.22464  1.0000
  C   C1053     1.0  0.36816  0.95150  0.31771  1.0000
  C   C1054     1.0  0.27678  0.71310  0.31242  1.0000
  C   C1055     1.0  0.26409  0.69555  0.31751  1.0000
  C   C1056     1.0  0.24567  0.69410  0.31115  1.0000
  C   C1057     1.0  0.23976  0.71031  0.29972  1.0000
  C   C1058     1.0  0.25256  0.72776  0.29455  1.0000
  C   C1059     1.0  0.27115  0.72903  0.30079  1.0000
  H   H1805     1.0  0.26837  0.68316  0.32651  1.0000
  H   H1806     1.0  0.23591  0.68057  0.31519  1.0000
  H   H1807     1.0  0.24816  0.74024  0.28563  1.0000
  H   H1808     1.0  0.28101  0.74243  0.29665  1.0000
  C   C1060     1.0  0.32977  0.77128  0.25634  1.0000
  C   C1061     1.0  0.34101  0.76676  0.24293  1.0000
  C   C1062     1.0  0.31077  0.74790  0.24038  1.0000
  C   C1063     1.0  0.29940  0.75266  0.25372  1.0000
  C   C1064     1.0  0.30899  0.76406  0.26177  1.0000
  H   H1809     1.0  0.28311  0.74755  0.25785  1.0000
  H   H1810     1.0  0.30008  0.76772  0.27202  1.0000
  C   C1065     1.0  0.32353  0.87808  0.34143  1.0000
  C   C1066     1.0  0.30210  0.87338  0.34789  1.0000
  C   C1067     1.0  0.29355  0.85571  0.34436  1.0000
  C   C1068     1.0  0.30627  0.84267  0.33431  1.0000
  C   C1069     1.0  0.32734  0.84797  0.32746  1.0000
  C   C1070     1.0  0.33595  0.86552  0.33105  1.0000
  H   H1811     1.0  0.29238  0.88293  0.35590  1.0000
  H   H1812     1.0  0.27716  0.85188  0.34964  1.0000
  H   H1813     1.0  0.33711  0.83838  0.31950  1.0000
  H   H1814     1.0  0.35251  0.86910  0.32596  1.0000
  C   C1071     1.0  0.41982  0.72684  0.36204  1.0000
  C   C1072     1.0  0.39692  0.72960  0.36086  1.0000
  C   C1073     1.0  0.38977  0.73709  0.34756  1.0000
  C   C1074     1.0  0.40552  0.74220  0.33540  1.0000
  C   C1075     1.0  0.42844  0.73906  0.33657  1.0000
  C   C1076     1.0  0.43561  0.73128  0.34983  1.0000
  H   H1815     1.0  0.38465  0.72604  0.37028  1.0000
  C   C1077     1.0  0.46901  0.86998  0.40783  1.0000
  C   C1078     1.0  0.00420  0.80712  0.39291  1.0000
  H   H1816     1.0  0.45665  0.90330  0.41415  1.0000
  H   H1817     1.0  0.07925  0.67376  0.29073  1.0000
  C   C1079     1.0  0.07202  0.86469  0.42526  1.0000
  C   C1080     1.0  0.40395  0.66695  0.38746  1.0000
  H   H1818     1.0  0.26277  0.73303  0.34765  1.0000
  C   C1081     1.0  0.29235  0.67917  0.26058  1.0000
  C   C1082     1.0  0.29644  0.81247  0.22625  1.0000
  C   C1083     1.0  0.00248  0.70098  0.43269  1.0000
  H   H1819     1.0  0.38556  0.93007  0.28258  1.0000
  H   H1820     1.0  0.22542  0.69778  0.24513  1.0000
  H   H1821     1.0  0.21211  0.77463  0.35007  1.0000
  H   H1822     1.0  0.32522  0.79168  0.35254  1.0000
  H   H1823     1.0  0.36363  0.96186  0.29008  1.0000
  C   C1084     1.0  0.36903  0.92622  0.28865  1.0000
  H   H1824     1.0  0.26064  0.80636  0.31540  1.0000
  H   H1825     1.0  0.22040  0.78546  0.31191  1.0000
  H   H1826     1.0  0.35768  0.76993  0.36394  1.0000
  H   H1827     1.0  0.23900  0.81400  0.33810  1.0000
  C   C1085     1.0  0.23716  0.78269  0.31533  1.0000
  N   N78       1.0  0.33642  0.94718  0.30463  1.0000
  H   H1828     1.0  0.40355  0.80385  0.33057  1.0000
  S   S311      1.0  0.46874  0.95954  0.44886  1.0000
  H   H1829     1.0  0.40388  0.80602  0.35518  1.0000
  H   H1830     1.0  0.38300  0.82898  0.32784  1.0000
  H   H1831     1.0  0.36163  0.91661  0.28255  1.0000
  H   H1832     1.0  0.04625  0.87385  0.40324  1.0000
  H   H1833     1.0  0.23130  0.81885  0.31586  1.0000
  H   H1834     1.0  0.38770  0.79270  0.38199  1.0000
  H   H1835     1.0  0.48152  0.89663  0.43636  1.0000
  C   C1086     1.0  0.36307  0.82620  0.35697  1.0000
  C   C1087     1.0  0.38601  0.81047  0.32887  1.0000
  C   C1088     1.0  0.36120  0.83212  0.37191  1.0000
  S   S312      1.0  0.48410  0.67608  0.37304  1.0000
  H   H1836     1.0  0.35714  0.77224  0.23872  1.0000
  H   H1837     1.0  0.34674  0.83317  0.35329  1.0000
  H   H1838     1.0  0.31739  0.78374  0.37116  1.0000
  H   H1839     1.0  0.38937  0.76564  0.37696  1.0000
  H   H1840     1.0  0.40101  0.68307  0.38022  1.0000
  C   C1089     1.0  0.19327  0.71348  0.23897  1.0000
  H   H1841     1.0  0.34848  0.82377  0.37980  1.0000
  H   H1842     1.0  0.35557  0.85047  0.37138  1.0000
  H   H1843     1.0  0.37772  0.82847  0.37559  1.0000
  H   H1844     1.0  0.31468  0.93367  0.29418  1.0000
  H   H1845     1.0  0.44022  0.89514  0.40320  1.0000
  H   H1846     1.0  0.07286  0.90706  0.41559  1.0000
  H   H1847     1.0  0.02391  0.69518  0.32792  1.0000
  H   H1848     1.0  0.09253  0.85482  0.44268  1.0000
  H   H1849     1.0  0.30713  0.92387  0.32714  1.0000
  H   H1850     1.0  0.02646  0.86882  0.42785  1.0000
  H   H1851     1.0  0.40096  0.77930  0.35211  1.0000
  H   H1852     1.0  0.12171  0.95875  0.46544  1.0000
  H   H1853     1.0  0.00148  0.71729  0.40444  1.0000
  Fe  Fe158     1.0  0.48942  0.66252  0.39556  1.0000
  H   H1854     1.0  0.08700  0.89692  0.44285  1.0000
  H   H1855     1.0  0.41505  0.69085  0.34389  1.0000
  H   H1856     1.0  0.34455  0.95335  0.28166  1.0000
  C   C1090     1.0  0.33162  0.75494  0.23501  1.0000
  H   H1857     1.0  0.24849  0.77177  0.30813  1.0000
  H   H1858     1.0  0.03927  0.95463  0.39521  1.0000
  H   H1859     1.0  0.35368  0.92154  0.31936  1.0000
  H   H1860     1.0  0.30615  0.80228  0.23447  1.0000
  C   C1091     1.0  0.03907  0.96889  0.42747  1.0000
  H   H1861     1.0  0.37045  0.78167  0.33928  1.0000
  C   C1092     1.0  0.30143  0.92877  0.31667  1.0000
  H   H1862     1.0  0.33580  0.94293  0.32743  1.0000
  H   H1863     1.0  0.32655  0.82372  0.24143  1.0000
  C   C1093     1.0  0.48641  0.87970  0.43327  1.0000
  C   C1094     1.0  0.41009  0.67519  0.35055  1.0000
  H   H1864     1.0  0.06476  0.84877  0.42739  1.0000
  H   H1865     1.0  0.09127  0.92067  0.42956  1.0000
  Fe  Fe159     1.0  0.31726  0.97918  0.35008  1.0000
  N   N79       1.0  0.05484  0.88317  0.43086  1.0000
  H   H1866     1.0  0.01520  0.96065  0.44632  1.0000
  C   C1095     1.0  0.10947  0.69168  0.31585  1.0000
  C   C1096     1.0  0.21483  0.69602  0.23738  1.0000
  H   H1867     1.0  0.47988  0.82527  0.40591  1.0000
  H   H1868     1.0  0.19204  0.76344  0.33082  1.0000
  H   H1869     1.0  0.28947  0.66248  0.25925  1.0000
  H   H1870     1.0  0.47069  0.87244  0.43501  1.0000
  C   C1097     1.0  0.19133  0.98097  0.45959  1.0000
  H   H1871     1.0  0.37279  0.91521  0.29861  1.0000
  C   C1098     1.0  0.37375  0.96961  0.40917  1.0000
  H   H1872     1.0  0.04433  0.66460  0.30504  1.0000
  H   H1873     1.0  0.24044  0.73764  0.32580  1.0000
  H   H1874     1.0  0.03477  0.72728  0.29049  1.0000
  C   C1099     1.0  0.09456  0.85952  0.43095  1.0000
  C   C1100     1.0  0.01712  0.73952  0.41272  1.0000
  Fe  Fe160     1.0  0.00742  0.69306  0.38130  1.0000
  H   H1875     1.0  0.07674  0.86863  0.41350  1.0000
  C   C1101     1.0  0.22001  0.78538  0.34053  1.0000
  H   H1876     1.0  0.20566  0.79473  0.33523  1.0000
  H   H1877     1.0  0.02145  0.81009  0.38964  1.0000
  C   C1102     1.0  0.00641  0.66938  0.32487  1.0000
  H   H1878     1.0  0.22106  0.95736  0.45349  1.0000
  H   H1879     1.0  0.29209  0.91548  0.31556  1.0000
  H   H1880     1.0  0.21575  0.81319  0.35226  1.0000
  C   C1103     1.0  0.45777  0.89463  0.40492  1.0000
  H   H1881     1.0  0.24779  0.81081  0.29992  1.0000
  C   C1104     1.0  0.03404  0.88453  0.42425  1.0000
  H   H1882     1.0  0.30112  0.68626  0.24995  1.0000
  C   C1105     1.0  0.32780  0.79453  0.36303  1.0000
  H   H1883     1.0  0.19597  0.73079  0.23430  1.0000
  H   H1884     1.0  0.38962  0.66706  0.39641  1.0000
  C   C1106     1.0  0.32145  0.93037  0.30438  1.0000
  N   N80       1.0  0.30683  0.67767  0.27183  1.0000
  C   C1107     1.0  0.31173  0.70100  0.27139  1.0000
  C   C1108     1.0  0.06338  0.90541  0.42665  1.0000
  C   C1109     1.0  0.02930  0.89339  0.45392  1.0000
  C   C1110     1.0  0.01318  0.69297  0.32035  1.0000
  C   C1111     1.0  0.32822  0.70331  0.28109  1.0000
  C   C1112     1.0  0.15486  0.96764  0.46449  1.0000
  H   H1885     1.0  0.04583  0.90359  0.40313  1.0000
  C   C1113     1.0  0.35763  0.97460  0.40000  1.0000
  H   H1886     1.0  0.33070  0.72114  0.27936  1.0000
  H   H1887     1.0  0.29607  0.71250  0.27451  1.0000
  C   C1114     1.0  0.26234  0.75085  0.34856  1.0000
  H   H1888     1.0  0.24878  0.75553  0.35730  1.0000
  C   C1115     1.0  0.20524  0.75035  0.32663  1.0000
  C   C1116     1.0  0.04716  0.68222  0.30408  1.0000
  H   H1889     1.0  0.28422  0.82488  0.23192  1.0000
  H   H1890     1.0  0.28111  0.68284  0.29015  1.0000
  H   H1891     1.0  0.04833  0.97730  0.43277  1.0000
  C   C1117     1.0  0.32907  0.66286  0.26840  1.0000
  H   H1892     1.0  0.27127  0.75753  0.32589  1.0000
  H   H1893     1.0  0.02078  0.89822  0.42774  1.0000
  H   H1894     1.0  0.39440  0.68009  0.35781  1.0000
  H   H1895     1.0  0.37749  0.95266  0.41464  1.0000
  C   C1118     1.0  0.04607  0.96704  0.41310  1.0000
  H   H1896     1.0  0.01097  0.73838  0.31976  1.0000
  H   H1897     1.0  0.24112  0.79428  0.35419  1.0000
  H   H1898     1.0  0.34063  0.75111  0.22482  1.0000
  H   H1899     1.0  0.03202  0.72624  0.41339  1.0000
  H   H1900     1.0  0.32103  0.81209  0.36445  1.0000
  H   H1901     1.0  0.99545  0.66598  0.31789  1.0000
  H   H1902     1.0  0.32144  0.69897  0.29255  1.0000
  H   H1903     1.0  0.20890  0.67962  0.24166  1.0000
  C   C1119     1.0  0.21089  0.98213  0.41121  1.0000
  H   H1904     1.0  0.26676  0.78149  0.33410  1.0000
  C   C1120     1.0  0.22979  0.80258  0.34644  1.0000
  C   C1121     1.0  0.24474  0.80592  0.31169  1.0000
  H   H1905     1.0  0.02111  0.75136  0.40274  1.0000
  S   S313      1.0  0.19005  0.65596  0.31603  1.0000
  H   H1906     1.0  0.46596  0.86180  0.39919  1.0000
  Fe  Fe161     1.0  0.20276  0.67655  0.29525  1.0000
  C   C1122     1.0  0.25967  0.76610  0.33419  1.0000
  C   C1123     1.0  0.22722  0.97594  0.39971  1.0000
  H   H1907     1.0  0.25171  0.66743  0.23070  1.0000
  H   H1908     1.0  0.34084  0.67228  0.26020  1.0000
  H   H1909     1.0  0.20741  0.75291  0.31481  1.0000
  S   S314      1.0  0.01916  0.67022  0.40048  1.0000
  H   H1910     1.0  0.43446  0.67557  0.36402  1.0000
  C   C1124     1.0  0.03726  0.88887  0.40782  1.0000
  H   H1911     1.0  0.35174  0.80717  0.33740  1.0000
  S   S315      1.0  0.05236  0.72617  0.33510  1.0000
  H   H1912     1.0  0.22562  0.74057  0.34305  1.0000
  C   C1125     1.0  0.36839  0.79959  0.34045  1.0000
  H   H1913     1.0  0.38271  0.94645  0.30964  1.0000
  C   C1126     1.0  0.18113  0.98124  0.39818  1.0000
  C   C1127     1.0  0.99610  0.72941  0.41208  1.0000
  H   H1914     1.0  0.19910  0.73396  0.33035  1.0000
  H   H1915     1.0  0.34508  0.69342  0.27854  1.0000
  C   C1128     1.0  0.99637  0.79122  0.38709  1.0000
  C   C1129     1.0  0.35328  0.94832  0.29110  1.0000
  H   H1916     1.0  0.12341  0.69549  0.30755  1.0000
  C   C1130     1.0  0.12893  0.97286  0.46757  1.0000
  H   H1917     1.0  0.33132  0.91320  0.30478  1.0000
  H   H1918     1.0  0.23202  0.73573  0.23461  1.0000
  H   H1919     1.0  0.27873  0.75205  0.35149  1.0000
  H   H1920     1.0  0.17983  0.70911  0.23423  1.0000
  C   C1131     1.0  0.34788  0.93992  0.31761  1.0000
  C   C1132     1.0  0.39584  0.78190  0.37398  1.0000
  H   H1921     1.0  0.02046  0.89245  0.40442  1.0000
  N   N81       1.0  0.23613  0.77132  0.33063  1.0000
  C   C1133     1.0  0.22781  0.74925  0.33181  1.0000
  S   S316      1.0  0.29883  0.73260  0.23086  1.0000
  H   H1922     1.0  0.06999  0.70311  0.28899  1.0000
  C   C1134     1.0  0.19744  0.97495  0.38672  1.0000
  C   C1135     1.0  0.02030  0.95944  0.43513  1.0000
  H   H1923     1.0  0.01467  0.74880  0.42178  1.0000
  C   C1136     1.0  0.01203  0.69421  0.29444  1.0000
  H   H1924     1.0  0.46659  0.90410  0.39523  1.0000
  H   H1925     1.0  0.05715  0.68563  0.28064  1.0000
  H   H1926     1.0  0.26943  0.71116  0.26258  1.0000
  S   S317      1.0  0.07042  0.97763  0.40363  1.0000
  H   H1927     1.0  0.04571  0.72252  0.30668  1.0000
  H   H1928     1.0  0.37371  0.94624  0.32828  1.0000
  C   C1137     1.0  0.22052  0.97232  0.38742  1.0000
  H   H1929     1.0  0.00753  0.78213  0.37932  1.0000
  C   C1138     1.0  0.32310  0.97020  0.30550  1.0000
  H   H1930     1.0  0.02059  0.69964  0.28346  1.0000
  H   H1931     1.0  0.25961  0.70392  0.22700  1.0000
  H   H1932     1.0  0.39761  0.98227  0.41830  1.0000
  H   H1933     1.0  0.04892  0.91914  0.42645  1.0000
  H   H1934     1.0  0.29513  0.96895  0.29420  1.0000
  H   H1935     1.0  0.27274  0.78861  0.23196  1.0000
  H   H1936     1.0  0.04248  0.86017  0.44931  1.0000
  H   H1937     1.0  0.31226  0.97075  0.31608  1.0000
  C   C1139     1.0  0.08984  0.66470  0.33282  1.0000
  H   H1938     1.0  0.31782  0.98265  0.28322  1.0000
  H   H1939     1.0  0.25854  0.68666  0.27323  1.0000
  H   H1940     1.0  0.18669  0.71332  0.25050  1.0000
  H   H1941     1.0  0.06258  0.87491  0.45250  1.0000
  H   H1942     1.0  0.99554  0.74024  0.30530  1.0000
  H   H1943     1.0  0.15972  0.95026  0.46993  1.0000
  H   H1944     1.0  0.05619  0.68241  0.31298  1.0000
  C   C1140     1.0  0.20400  0.95678  0.45988  1.0000
  H   H1945     1.0  0.30656  0.66796  0.29454  1.0000
  H   H1946     1.0  0.25963  0.69214  0.25442  1.0000
  C   C1141     1.0  0.33656  0.83080  0.23134  1.0000
  H   H1947     1.0  0.02128  0.65611  0.32540  1.0000
  C   C1142     1.0  0.42959  0.66322  0.35855  1.0000
  H   H1948     1.0  0.24494  0.97396  0.40036  1.0000
  H   H1949     1.0  0.03187  0.91109  0.45048  1.0000
  N   N82       1.0  0.02512  0.69805  0.30525  1.0000
  H   H1950     1.0  0.19562  0.94647  0.45486  1.0000
  S   S318      1.0  0.10511  0.97923  0.43411  1.0000
  H   H1951     1.0  0.36382  0.96999  0.31613  1.0000
  H   H1952     1.0  0.44418  0.65960  0.35012  1.0000
  H   H1953     1.0  0.01197  0.67603  0.29473  1.0000
  H   H1954     1.0  0.99645  0.66822  0.33576  1.0000
  C   C1143     1.0  0.30792  0.97965  0.29405  1.0000
  Fe  Fe162     1.0  0.16318  0.65070  0.30450  1.0000
  H   H1955     1.0  0.22889  0.66018  0.22486  1.0000
  H   H1956     1.0  0.02863  0.88955  0.46565  1.0000
  H   H1957     1.0  0.33455  0.98268  0.30467  1.0000
  C   C1144     1.0  0.39431  0.95886  0.56806  1.0000
  H   H1958     1.0  0.35186  0.92836  0.59583  1.0000
  C   C1145     1.0  0.47372  0.96791  0.57667  1.0000
  H   H1959     1.0  0.02163  0.94700  0.53781  1.0000
  H   H1960     1.0  0.14067  0.91446  0.69021  1.0000
  C   C1146     1.0  0.46711  0.93933  0.50942  1.0000
  C   C1147     1.0  0.22280  0.76016  0.69601  1.0000
  S   S319      1.0  0.22416  0.91449  0.63732  1.0000
  H   H1961     1.0  0.14904  0.90520  0.60030  1.0000
  H   H1962     1.0  0.43762  0.80904  0.63108  1.0000
  C   C1148     1.0  0.15974  0.84798  0.69881  1.0000
  H   H1963     1.0  0.14675  0.96676  0.59463  1.0000
  Fe  Fe163     1.0  0.22334  0.95222  0.63130  1.0000
  H   H1964     1.0  0.47458  0.79145  0.63173  1.0000
  H   H1965     1.0  0.03674  0.91495  0.50638  1.0000
  H   H1966     1.0  0.48263  0.94600  0.50954  1.0000
  Fe  Fe164     1.0  0.14849  0.81997  0.66389  1.0000
  S   S320      1.0  0.16123  0.79766  0.64730  1.0000
  S   S321      1.0  0.14334  0.85819  0.66051  1.0000
  Fe  Fe165     1.0  0.13990  0.78044  0.68745  1.0000
  S   S322      1.0  0.15175  0.75486  0.67276  1.0000
  S   S323      1.0  0.12687  0.76951  0.71083  1.0000
  Fe  Fe166     1.0  0.17974  0.77504  0.66384  1.0000
  S   S324      1.0  0.21672  0.76091  0.65912  1.0000
  Fe  Fe167     1.0  0.13209  0.77900  0.65734  1.0000
  S   S325      1.0  0.11419  0.76781  0.64180  1.0000
  S   S326      1.0  0.16939  0.79891  0.67966  1.0000
  S   S327      1.0  0.11787  0.80305  0.67276  1.0000
  Fe  Fe168     1.0  0.01362  0.68085  0.61936  1.0000
  C   C1149     1.0  0.08750  0.67820  0.61525  1.0000
  H   H1967     1.0  0.46327  0.76238  0.65139  1.0000
  H   H1968     1.0  0.99134  0.77747  0.61860  1.0000
  Fe  Fe169     1.0  0.00666  0.71799  0.63731  1.0000
  S   S328      1.0  0.01998  0.73196  0.65368  1.0000
  H   H1969     1.0  0.45253  0.72254  0.63138  1.0000
  S   S329      1.0  0.02638  0.71380  0.61582  1.0000
  H   H1970     1.0  0.01107  0.84869  0.60110  1.0000
  H   H1971     1.0  0.44566  0.74485  0.60712  1.0000
  H   H1972     1.0  0.42459  0.66872  0.68110  1.0000
  C   C1150     1.0  0.18173  0.94163  0.60703  1.0000
  C   C1151     1.0  0.08736  0.75911  0.64532  1.0000
  C   C1152     1.0  0.07442  0.75716  0.65891  1.0000
  C   C1153     1.0  0.05356  0.74929  0.66126  1.0000
  C   C1154     1.0  0.04554  0.74318  0.65009  1.0000
  C   C1155     1.0  0.05837  0.74540  0.63647  1.0000
  C   C1156     1.0  0.07913  0.75335  0.63411  1.0000
  H   H1973     1.0  0.08056  0.76153  0.66763  1.0000
  H   H1974     1.0  0.04377  0.74762  0.67184  1.0000
  H   H1975     1.0  0.05246  0.74071  0.62780  1.0000
  H   H1976     1.0  0.08905  0.75481  0.62356  1.0000
  C   C1157     1.0  0.24096  0.68788  0.67676  1.0000
  C   C1158     1.0  0.25631  0.70300  0.67199  1.0000
  C   C1159     1.0  0.24872  0.72535  0.66643  1.0000
  C   C1160     1.0  0.22581  0.73265  0.66569  1.0000
  C   C1161     1.0  0.21058  0.71739  0.67028  1.0000
  C   C1162     1.0  0.21811  0.69511  0.67588  1.0000
  H   H1977     1.0  0.27399  0.69750  0.67257  1.0000
  H   H1978     1.0  0.26061  0.73707  0.66279  1.0000
  H   H1979     1.0  0.19298  0.72275  0.66951  1.0000
  H   H1980     1.0  0.20620  0.68342  0.67948  1.0000
  H   H1981     1.0  0.99528  0.83541  0.59187  1.0000
  H   H1982     1.0  0.05826  0.82469  0.62154  1.0000
  H   H1983     1.0  0.42198  0.78172  0.62438  1.0000
  C   C1163     1.0  0.42631  0.93313  0.58810  1.0000
  C   C1164     1.0  0.13472  0.95827  0.62214  1.0000
  C   C1165     1.0  0.14922  0.98212  0.49492  1.0000
  H   H1984     1.0  0.43271  0.93289  0.57662  1.0000
  H   H1985     1.0  0.15555  0.72665  0.72184  1.0000
  C   C1166     1.0  0.16600  0.87364  0.65431  1.0000
  C   C1167     1.0  0.16173  0.89716  0.65275  1.0000
  C   C1168     1.0  0.17936  0.90999  0.64774  1.0000
  C   C1169     1.0  0.20140  0.89934  0.64417  1.0000
  C   C1170     1.0  0.20565  0.87582  0.64586  1.0000
  C   C1171     1.0  0.18806  0.86301  0.65091  1.0000
  H   H1986     1.0  0.14470  0.90550  0.65540  1.0000
  H   H1987     1.0  0.17591  0.92806  0.64661  1.0000
  H   H1988     1.0  0.22266  0.86745  0.64314  1.0000
  H   H1989     1.0  0.19159  0.84493  0.65205  1.0000
  C   C1172     1.0  0.13818  0.89694  0.69044  1.0000
  H   H1990     1.0  0.08012  0.70699  0.65359  1.0000
  C   C1173     1.0  0.02169  0.93622  0.52980  1.0000
  H   H1991     1.0  0.09506  0.66029  0.61608  1.0000
  H   H1992     1.0  0.03244  0.65854  0.53140  1.0000
  H   H1993     1.0  0.17745  0.96002  0.48656  1.0000
  C   C1174     1.0  0.39751  0.97854  0.58710  1.0000
  H   H1994     1.0  0.01105  0.93029  0.56782  1.0000
  N   N83       1.0  0.01188  0.80347  0.61631  1.0000
  C   C1175     1.0  0.47543  0.97205  0.56185  1.0000
  H   H1995     1.0  0.05528  0.66987  0.63842  1.0000
  C   C1176     1.0  0.45269  0.95302  0.49837  1.0000
  H   H1996     1.0  0.12471  0.95625  0.63301  1.0000
  S   S330      1.0  0.45861  0.68396  0.65837  1.0000
  C   C1177     1.0  0.26508  0.67216  0.63986  1.0000
  H   H1997     1.0  0.39153  0.68765  0.63667  1.0000
  C   C1178     1.0  0.09277  0.69182  0.65209  1.0000
  H   H1998     1.0  0.19588  0.84245  0.69897  1.0000
  C   C1179     1.0  0.04235  0.77802  0.60174  1.0000
  H   H1999     1.0  0.23798  0.71179  0.71693  1.0000
  H   H2000     1.0  0.01960  0.81417  0.63462  1.0000
  S   S331      1.0  0.47536  0.68156  0.61670  1.0000
  H   H2001     1.0  0.06912  0.67989  0.61551  1.0000
  C   C1180     1.0  0.11844  0.85504  0.70192  1.0000
  H   H2002     1.0  0.10112  0.82949  0.69794  1.0000
  H   H2003     1.0  0.01550  0.65744  0.51105  1.0000
  H   H2004     1.0  0.48969  0.95952  0.54224  1.0000
  C   C1181     1.0  0.16651  0.71961  0.71272  1.0000
  H   H2005     1.0  0.41665  0.75310  0.61496  1.0000
  H   H2006     1.0  0.46845  0.73478  0.64786  1.0000
  H   H2007     1.0  0.45881  0.77457  0.61333  1.0000
  C   C1182     1.0  0.00918  0.96741  0.51194  1.0000
  H   H2008     1.0  0.05014  0.77687  0.59052  1.0000
  Fe  Fe170     1.0  0.48357  0.68351  0.63797  1.0000
  C   C1183     1.0  0.18206  0.85689  0.69819  1.0000
  H   H2009     1.0  0.16503  0.79173  0.70955  1.0000
  C   C1184     1.0  0.41748  0.67255  0.67136  1.0000
  H   H2010     1.0  0.28111  0.67339  0.63234  1.0000
  H   H2011     1.0  0.99542  0.91435  0.51783  1.0000
  C   C1185     1.0  0.18619  0.73302  0.70657  1.0000
  C   C1186     1.0  0.02846  0.80881  0.62441  1.0000
  C   C1187     1.0  0.25012  0.69507  0.63668  1.0000
  C   C1188     1.0  0.00226  0.78313  0.62477  1.0000
  H   H2012     1.0  0.14070  0.96705  0.49807  1.0000
  C   C1189     1.0  0.43195  0.74050  0.61592  1.0000
  N   N84       1.0  0.38902  0.95877  0.58394  1.0000
  S   S332      1.0  0.99549  0.75499  0.58792  1.0000
  H   H2013     1.0  0.21575  0.92232  0.60389  1.0000
  H   H2014     1.0  0.37955  0.98093  0.60903  1.0000
  H   H2015     1.0  0.11532  0.71439  0.63861  1.0000
  H   H2016     1.0  0.15215  0.88947  0.68290  1.0000
  C   C1190     1.0  0.39881  0.68321  0.64636  1.0000
  H   H2017     1.0  0.45709  0.93762  0.52029  1.0000
  H   H2018     1.0  0.23348  0.69620  0.64364  1.0000
  H   H2019     1.0  0.25864  0.70836  0.63872  1.0000
  H   H2020     1.0  0.24781  0.69923  0.62536  1.0000
  H   H2021     1.0  0.15138  0.88871  0.71003  1.0000
  H   H2022     1.0  0.40775  0.96520  0.60823  1.0000
  Fe  Fe171     1.0  0.33620  0.65209  0.67600  1.0000
  H   H2023     1.0  0.18673  0.86716  0.68764  1.0000
  H   H2024     1.0  0.20258  0.76583  0.71603  1.0000
  H   H2025     1.0  0.02938  0.81213  0.59464  1.0000
  H   H2026     1.0  0.16160  0.88923  0.62311  1.0000
  H   H2027     1.0  0.05303  0.69810  0.64082  1.0000
  H   H2028     1.0  0.41371  0.80551  0.64497  1.0000
  H   H2029     1.0  0.16257  0.82973  0.70277  1.0000
  H   H2030     1.0  0.05538  0.65687  0.66472  1.0000
  C   C1191     1.0  0.11458  0.83045  0.70395  1.0000
  H   H2031     1.0  0.45803  0.94580  0.48831  1.0000
  H   H2032     1.0  0.43550  0.94861  0.50216  1.0000
  H   H2033     1.0  0.06024  0.65519  0.52174  1.0000
  H   H2034     1.0  0.04027  0.79362  0.62798  1.0000
  H   H2035     1.0  0.02724  0.93780  0.49299  1.0000
  C   C1192     1.0  0.16571  0.95084  0.57772  1.0000
  H   H2036     1.0  0.02311  0.89965  0.53102  1.0000
  S   S333      1.0  0.03332  0.96857  0.56104  1.0000
  H   H2037     1.0  0.41206  0.96148  0.56391  1.0000
  H   H2038     1.0  0.15010  0.92444  0.62726  1.0000
  H   H2039     1.0  0.12321  0.96857  0.61500  1.0000
  H   H2040     1.0  0.12196  0.89140  0.71231  1.0000
  H   H2041     1.0  0.42427  0.73232  0.63852  1.0000
  C   C1193     1.0  0.38553  0.67558  0.65923  1.0000
  H   H2042     1.0  0.12839  0.92775  0.61689  1.0000
  H   H2043     1.0  0.26939  0.67080  0.65071  1.0000
  C   C1194     1.0  0.48838  0.95622  0.55371  1.0000
  H   H2044     1.0  0.99880  0.78886  0.64701  1.0000
  H   H2045     1.0  0.47317  0.92229  0.50666  1.0000
  C   C1195     1.0  0.48261  0.77684  0.62655  1.0000
  C   C1196     1.0  0.99828  0.94491  0.56673  1.0000
  N   N85       1.0  0.00328  0.94582  0.52099  1.0000
  H   H2046     1.0  0.01874  0.91100  0.49485  1.0000
  H   H2047     1.0  0.11949  0.86121  0.69028  1.0000
  N   N86       1.0  0.16090  0.93394  0.60460  1.0000
  H   H2048     1.0  0.44075  0.79377  0.64867  1.0000
  C   C1197     1.0  0.16500  0.91009  0.60182  1.0000
  C   C1198     1.0  0.15091  0.94923  0.59251  1.0000
  H   H2049     1.0  0.17999  0.87605  0.60956  1.0000
  H   H2050     1.0  0.41515  0.97930  0.58174  1.0000
  H   H2051     1.0  0.03863  0.93614  0.52313  1.0000
  H   H2052     1.0  0.21291  0.94923  0.59327  1.0000
  C   C1199     1.0  0.20423  0.93440  0.59747  1.0000
  C   C1200     1.0  0.99252  0.82252  0.61483  1.0000
  N   N87       1.0  0.20471  0.73051  0.71539  1.0000
  H   H2053     1.0  0.17648  0.90789  0.59175  1.0000
  H   H2054     1.0  0.01578  0.76875  0.62679  1.0000
  H   H2055     1.0  0.13471  0.94434  0.59145  1.0000
  H   H2056     1.0  0.35500  0.97736  0.58492  1.0000
  N   N88       1.0  0.13877  0.85905  0.70731  1.0000
  C   C1201     1.0  0.14342  0.93490  0.61787  1.0000
  C   C1202     1.0  0.35216  0.94223  0.58663  1.0000
  C   C1203     1.0  0.42151  0.68487  0.64590  1.0000
  H   H2057     1.0  0.26790  0.65614  0.61620  1.0000
  C   C1204     1.0  0.43080  0.67999  0.65844  1.0000
  H   H2058     1.0  0.09446  0.68667  0.60457  1.0000
  H   H2059     1.0  0.18064  0.95886  0.57748  1.0000
  H   H2060     1.0  0.23712  0.74853  0.69135  1.0000
  H   H2061     1.0  0.15574  0.72121  0.70443  1.0000
  H   H2062     1.0  0.35994  0.93517  0.57685  1.0000
  H   H2063     1.0  0.17925  0.96023  0.60583  1.0000
  H   H2064     1.0  0.20289  0.92733  0.58808  1.0000
  H   H2065     1.0  0.99069  0.79475  0.56696  1.0000
  C   C1205     1.0  0.48512  0.94792  0.58331  1.0000
  H   H2066     1.0  0.11141  0.69032  0.62410  1.0000
  H   H2067     1.0  0.46168  0.97212  0.52445  1.0000
  C   C1206     1.0  0.39499  0.66994  0.67172  1.0000
  H   H2068     1.0  0.42775  0.72437  0.61439  1.0000
  H   H2069     1.0  0.09265  0.68161  0.66289  1.0000
  H   H2070     1.0  0.17075  0.93453  0.57390  1.0000
  C   C1207     1.0  0.43030  0.79715  0.64015  1.0000
  H   H2071     1.0  0.17189  0.70159  0.71613  1.0000
  H   H2072     1.0  0.43164  0.69032  0.63589  1.0000
  S   S334      1.0  0.30981  0.66193  0.69445  1.0000
  H   H2073     1.0  0.08506  0.70743  0.62502  1.0000
  H   H2074     1.0  0.18945  0.89672  0.61672  1.0000
  C   C1208     1.0  0.99557  0.84138  0.60196  1.0000
  H   H2075     1.0  0.19322  0.72883  0.69580  1.0000
  C   C1209     1.0  0.13763  0.88408  0.70578  1.0000
  C   C1210     1.0  0.04980  0.67451  0.66023  1.0000
  C   C1211     1.0  0.11558  0.70059  0.64784  1.0000
  H   H2076     1.0  0.20906  0.76317  0.68959  1.0000
  C   C1212     1.0  0.09313  0.68959  0.62674  1.0000
  S   S335      1.0  0.35712  0.67405  0.65917  1.0000
  H   H2077     1.0  0.04789  0.82764  0.60553  1.0000
  C   C1213     1.0  0.13672  0.84899  0.72288  1.0000
  H   H2078     1.0  0.03469  0.90771  0.54450  1.0000
  H   H2079     1.0  0.41156  0.76985  0.64166  1.0000
  C   C1214     1.0  0.37958  0.97684  0.55899  1.0000
  H   H2080     1.0  0.38617  0.97646  0.54753  1.0000
  C   C1215     1.0  0.04235  0.82754  0.61706  1.0000
  C   C1216     1.0  0.17456  0.89228  0.61356  1.0000
  H   H2081     1.0  0.18464  0.93555  0.61822  1.0000
  H   H2082     1.0  0.12979  0.81941  0.69977  1.0000
  H   H2083     1.0  0.03564  0.67626  0.50604  1.0000
  H   H2084     1.0  0.36187  0.97378  0.56085  1.0000
  H   H2085     1.0  0.12206  0.89787  0.68655  1.0000
  C   C1217     1.0  0.42696  0.77587  0.63509  1.0000
  H   H2086     1.0  0.44532  0.73826  0.67110  1.0000
  H   H2087     1.0  0.39516  0.93543  0.60310  1.0000
  C   C1218     1.0  0.00449  0.96635  0.56393  1.0000
  H   H2088     1.0  0.15743  0.84947  0.68753  1.0000
  H   H2089     1.0  0.42377  0.75785  0.66348  1.0000
  N   N89       1.0  0.44671  0.75727  0.63440  1.0000
  C   C1219     1.0  0.43902  0.73737  0.63074  1.0000
  S   S336      1.0  0.23982  0.97239  0.64228  1.0000
  C   C1220     1.0  0.09593  0.65453  0.64480  1.0000
  H   H2090     1.0  0.47600  0.74921  0.61869  1.0000
  H   H2091     1.0  0.15583  0.96199  0.56991  1.0000
  C   C1221     1.0  0.21481  0.75194  0.71194  1.0000
  C   C1222     1.0  0.45505  0.74964  0.64850  1.0000
  N   N90       1.0  0.45179  0.97811  0.49567  1.0000
  C   C1223     1.0  0.02279  0.79774  0.60186  1.0000
  C   C1224     1.0  0.00103  0.92995  0.51144  1.0000
  H   H2092     1.0  0.23253  0.66114  0.65770  1.0000
  H   H2093     1.0  0.22972  0.75034  0.71727  1.0000
  S   S337      1.0  0.24964  0.65976  0.68370  1.0000
  S   S338      1.0  0.19327  0.97878  0.62896  1.0000
  H   H2094     1.0  0.39330  0.94233  0.56534  1.0000
  H   H2095     1.0  0.22887  0.77646  0.69488  1.0000
  H   H2096     1.0  0.11868  0.70796  0.65679  1.0000
  N   N91       1.0  0.08629  0.67902  0.64197  1.0000
  C   C1225     1.0  0.02073  0.91230  0.53815  1.0000
  H   H2097     1.0  0.39469  0.92255  0.58839  1.0000
  H   H2098     1.0  0.43272  0.91654  0.59392  1.0000
  H   H2099     1.0  0.17789  0.75077  0.70467  1.0000
  H   H2100     1.0  0.36040  0.96067  0.60093  1.0000
  H   H2101     1.0  0.43374  0.94575  0.59175  1.0000
  H   H2102     1.0  0.23291  0.67591  0.71271  1.0000
  H   H2103     1.0  0.22980  0.71430  0.70008  1.0000
  H   H2104     1.0  0.33454  0.94937  0.58519  1.0000
  C   C1226     1.0  0.43707  0.74344  0.66147  1.0000
  H   H2105     1.0  0.02683  0.96492  0.50626  1.0000
  H   H2106     1.0  0.42936  0.72895  0.66052  1.0000
  H   H2107     1.0  0.00495  0.91107  0.54585  1.0000
  H   H2108     1.0  0.12216  0.97502  0.47870  1.0000
  C   C1227     1.0  0.40032  0.93704  0.59134  1.0000
  C   C1228     1.0  0.02237  0.92323  0.50090  1.0000
  C   C1229     1.0  0.25204  0.65326  0.62360  1.0000
  S   S339      1.0  0.99601  0.68380  0.64169  1.0000
  C   C1230     1.0  0.36405  0.96083  0.58923  1.0000
  H   H2109     1.0  0.05573  0.78029  0.60737  1.0000
  H   H2110     1.0  0.42881  0.65235  0.62424  1.0000
  S   S340      1.0  0.24285  0.96380  0.60986  1.0000
  H   H2111     1.0  0.23935  0.66792  0.62053  1.0000
  H   H2112     1.0  0.05244  0.68592  0.66716  1.0000
  C   C1231     1.0  0.39687  0.97955  0.60298  1.0000
  H   H2113     1.0  0.14856  0.96741  0.62248  1.0000
  H   H2114     1.0  0.42463  0.97980  0.51366  1.0000
  H   H2115     1.0  0.10860  0.82380  0.71524  1.0000
  C   C1232     1.0  0.17058  0.97802  0.48382  1.0000
  H   H2116     1.0  0.18246  0.86639  0.70670  1.0000
  H   H2117     1.0  0.10270  0.86457  0.70707  1.0000
  C   C1233     1.0  0.06093  0.68076  0.64460  1.0000
  H   H2118     1.0  0.40951  0.96928  0.49015  1.0000
  H   H2119     1.0  0.03628  0.76183  0.60616  1.0000
  C   C1234     1.0  0.46559  0.76416  0.62275  1.0000
  H   H2120     1.0  0.03131  0.67642  0.66064  1.0000
  C   C1235     1.0  0.15853  0.78660  0.72058  1.0000
  H   H2121     1.0  0.12995  0.68736  0.64556  1.0000
  H   H2122     1.0  0.12958  0.65865  0.63180  1.0000
  H   H2123     1.0  0.03298  0.84423  0.61895  1.0000
  C   C1236     1.0  0.22331  0.71178  0.71169  1.0000
  H   H2124     1.0  0.00856  0.65541  0.59485  1.0000
  Fe  Fe172     1.0  0.99392  0.72856  0.60769  1.0000
  H   H2125     1.0  0.20539  0.68562  0.70868  1.0000
  H   H2126     1.0  0.38482  0.66415  0.68170  1.0000
  C   C1237     1.0  0.21739  0.68791  0.71532  1.0000
  H   H2127     1.0  0.21881  0.66192  0.64313  1.0000
  H   H2128     1.0  0.01001  0.79371  0.59637  1.0000
  H   H2129     1.0  0.48519  0.97973  0.49995  1.0000
  C   C1238     1.0  0.03380  0.65829  0.50934  1.0000
  C   C1239     1.0  0.48920  0.97627  0.47807  1.0000
  H   H2130     1.0  0.48373  0.94462  0.59479  1.0000
  H   H2131     1.0  0.99887  0.97300  0.50325  1.0000
  C   C1240     1.0  0.23274  0.65222  0.64869  1.0000
  N   N92       1.0  0.25518  0.65187  0.63882  1.0000
  H   H2132     1.0  0.44567  0.97849  0.47419  1.0000
  H   H2133     1.0  0.48510  0.65064  0.58664  1.0000
  H   H2134     1.0  0.04242  0.64953  0.50040  1.0000
  Fe  Fe173     1.0  0.41289  0.88879  0.94499  1.0000
  S   S341      1.0  0.44666  0.88161  0.93164  1.0000
  Fe  Fe174     1.0  0.38753  0.88876  0.92041  1.0000
  S   S342      1.0  0.41960  0.88251  0.90482  1.0000
  S   S343      1.0  0.35116  0.88707  0.91891  1.0000
  Fe  Fe175     1.0  0.43181  0.85730  0.92275  1.0000
  S   S344      1.0  0.45159  0.82283  0.91996  1.0000
  Fe  Fe176     1.0  0.43222  0.90733  0.91479  1.0000
  S   S345      1.0  0.45545  0.93213  0.90319  1.0000
  S   S346      1.0  0.39924  0.86197  0.93791  1.0000
  S   S347      1.0  0.39903  0.91601  0.92854  1.0000
  C   C1241     1.0  0.02204  0.81128  0.89867  1.0000
  H   H2135     1.0  0.21098  0.68313  0.72677  1.0000
  H   H2136     1.0  0.24854  0.71615  0.77961  1.0000
  Fe  Fe177     1.0  0.20482  0.75909  0.80245  1.0000
  S   S348      1.0  0.19546  0.79343  0.79061  1.0000
  S   S349      1.0  0.24210  0.74706  0.80186  1.0000
  Fe  Fe178     1.0  0.15586  0.75298  0.81179  1.0000
  S   S350      1.0  0.14278  0.78675  0.80011  1.0000
  S   S351      1.0  0.13587  0.72996  0.82843  1.0000
  Fe  Fe179     1.0  0.17089  0.77826  0.78227  1.0000
  S   S352      1.0  0.17546  0.78974  0.75832  1.0000
  Fe  Fe180     1.0  0.16855  0.79905  0.80926  1.0000
  S   S353      1.0  0.15994  0.83197  0.81790  1.0000
  S   S354      1.0  0.18193  0.74328  0.79320  1.0000
  S   S355      1.0  0.18005  0.76600  0.82192  1.0000
  C   C1242     1.0  0.37365  0.70595  0.79217  1.0000
  S   S356      1.0  0.03565  0.71677  0.82788  1.0000
  H   H2137     1.0  0.38631  0.78398  0.90287  1.0000
  Fe  Fe181     1.0  0.06737  0.87509  0.92265  1.0000
  S   S357      1.0  0.08096  0.84011  0.93183  1.0000
  S   S358      1.0  0.08734  0.89731  0.90555  1.0000
  Fe  Fe182     1.0  0.02068  0.87239  0.93919  1.0000
  S   S359      1.0  0.03064  0.83702  0.94971  1.0000
  Fe  Fe183     1.0  0.06168  0.84909  0.95280  1.0000
  Fe  Fe184     1.0  0.04878  0.83111  0.92794  1.0000
  S   S360      1.0  0.04974  0.79870  0.91943  1.0000
  S   S361      1.0  0.05044  0.88500  0.94378  1.0000
  S   S362      1.0  0.03652  0.86560  0.91725  1.0000
  Fe  Fe185     1.0  0.21389  0.93587  0.85855  1.0000
  S   S363      1.0  0.22703  0.93732  0.87845  1.0000
  H   H2138     1.0  0.44476  0.68151  0.79106  1.0000
  Fe  Fe186     1.0  0.22652  0.88467  0.86145  1.0000
  S   S364      1.0  0.24095  0.88249  0.88142  1.0000
  S   S365      1.0  0.22653  0.85089  0.85530  1.0000
  Fe  Fe187     1.0  0.21030  0.90691  0.88767  1.0000
  S   S366      1.0  0.18874  0.90037  0.90922  1.0000
  Fe  Fe188     1.0  0.25657  0.91272  0.87031  1.0000
  S   S367      1.0  0.29331  0.91680  0.86849  1.0000
  S   S368      1.0  0.19494  0.90715  0.86848  1.0000
  S   S369      1.0  0.24440  0.91322  0.84962  1.0000
  H   H2139     1.0  0.18146  0.95046  0.89795  1.0000
  C   C1243     1.0  0.43692  0.69836  0.79327  1.0000
  S   S370      1.0  0.46809  0.68678  0.83055  1.0000
  H   H2140     1.0  0.21629  0.74359  0.74070  1.0000
  C   C1244     1.0  0.11557  0.89762  0.90669  1.0000
  C   C1245     1.0  0.12728  0.91332  0.89716  1.0000
  C   C1246     1.0  0.14998  0.91370  0.89758  1.0000
  C   C1247     1.0  0.16096  0.89868  0.90773  1.0000
  C   C1248     1.0  0.14941  0.88265  0.91704  1.0000
  C   C1249     1.0  0.12673  0.88209  0.91653  1.0000
  H   H2141     1.0  0.11880  0.92514  0.88936  1.0000
  H   H2142     1.0  0.15888  0.92582  0.89020  1.0000
  H   H2143     1.0  0.15824  0.87039  0.92443  1.0000
  H   H2144     1.0  0.11793  0.86956  0.92363  1.0000
  H   H2145     1.0  0.35895  0.78725  0.89780  1.0000
  H   H2146     1.0  0.18070  0.74106  0.73318  1.0000
  C   C1250     1.0  0.03296  0.79377  0.90758  1.0000
  H   H2147     1.0  0.38362  0.77750  0.88622  1.0000
  H   H2148     1.0  0.02410  0.82833  0.89876  1.0000
  C   C1251     1.0  0.10830  0.72599  0.82777  1.0000
  C   C1252     1.0  0.09616  0.71461  0.83991  1.0000
  C   C1253     1.0  0.07388  0.71165  0.84003  1.0000
  C   C1254     1.0  0.06372  0.71977  0.82794  1.0000
  C   C1255     1.0  0.07603  0.73072  0.81568  1.0000
  C   C1256     1.0  0.09819  0.73411  0.81564  1.0000
  H   H2149     1.0  0.10395  0.70818  0.84929  1.0000
  H   H2150     1.0  0.06461  0.70295  0.84945  1.0000
  H   H2151     1.0  0.06826  0.73691  0.80626  1.0000
  H   H2152     1.0  0.10746  0.74279  0.80623  1.0000
  C   C1257     1.0  0.17713  0.83751  0.82910  1.0000
  C   C1258     1.0  0.18062  0.85958  0.82870  1.0000
  C   C1259     1.0  0.19504  0.86419  0.83715  1.0000
  C   C1260     1.0  0.20574  0.84673  0.84618  1.0000
  C   C1261     1.0  0.20103  0.82494  0.84727  1.0000
  C   C1262     1.0  0.18695  0.82028  0.83866  1.0000
  H   H2153     1.0  0.17274  0.87305  0.82148  1.0000
  H   H2154     1.0  0.19844  0.88110  0.83632  1.0000
  H   H2155     1.0  0.20878  0.81151  0.85457  1.0000
  H   H2156     1.0  0.18376  0.80335  0.83935  1.0000
  H   H2157     1.0  0.37391  0.72370  0.78694  1.0000
  C   C1263     1.0  0.48491  0.95570  0.91026  1.0000
  C   C1264     1.0  0.16120  0.78374  0.74565  1.0000
  C   C1265     1.0  0.14287  0.77199  0.74936  1.0000
  H   H2158     1.0  0.23021  0.66906  0.81945  1.0000
  H   H2159     1.0  0.30167  0.68750  0.75690  1.0000
  H   H2160     1.0  0.13679  0.76628  0.76046  1.0000
  C   C1266     1.0  0.26518  0.67278  0.81682  1.0000
  C   C1267     1.0  0.28061  0.68792  0.81300  1.0000
  C   C1268     1.0  0.27328  0.71070  0.80853  1.0000
  C   C1269     1.0  0.25043  0.71855  0.80806  1.0000
  C   C1270     1.0  0.23488  0.70353  0.81209  1.0000
  C   C1271     1.0  0.24227  0.68065  0.81644  1.0000
  H   H2161     1.0  0.29818  0.68213  0.81350  1.0000
  H   H2162     1.0  0.28535  0.72226  0.80543  1.0000
  H   H2163     1.0  0.21719  0.70949  0.81178  1.0000
  H   H2164     1.0  0.38945  0.66487  0.80674  1.0000
  H   H2165     1.0  0.48755  0.88576  0.86814  1.0000
  H   H2166     1.0  0.45224  0.65340  0.81963  1.0000
  S   S371      1.0  0.37124  0.65756  0.83914  1.0000
  C   C1272     1.0  0.44162  0.67735  0.83410  1.0000
  C   C1273     1.0  0.42361  0.68661  0.84348  1.0000
  S   S372      1.0  0.01725  0.71735  0.87011  1.0000
  C   C1274     1.0  0.16890  0.79107  0.73124  1.0000
  H   H2167     1.0  0.17654  0.85704  0.94742  1.0000
  H   H2168     1.0  0.42593  0.69935  0.84916  1.0000
  H   H2169     1.0  0.32654  0.81748  0.90770  1.0000
  C   C1275     1.0  0.46582  0.94493  0.91495  1.0000
  C   C1276     1.0  0.41128  0.70059  0.79855  1.0000
  H   H2170     1.0  0.03942  0.75792  0.91366  1.0000
  H   H2171     1.0  0.11796  0.75885  0.74151  1.0000
  H   H2172     1.0  0.45834  0.66669  0.88065  1.0000
  H   H2173     1.0  0.30988  0.65879  0.75695  1.0000
  H   H2174     1.0  0.44025  0.93643  0.93277  1.0000
  H   H2175     1.0  0.31081  0.83379  0.89470  1.0000
  C   C1277     1.0  0.43832  0.66080  0.82680  1.0000
  C   C1278     1.0  0.33517  0.89687  0.90492  1.0000
  C   C1279     1.0  0.31262  0.89329  0.90730  1.0000
  C   C1280     1.0  0.29956  0.89939  0.89628  1.0000
  C   C1281     1.0  0.30894  0.90921  0.88276  1.0000
  C   C1282     1.0  0.33147  0.91289  0.88039  1.0000
  C   C1283     1.0  0.34456  0.90679  0.89142  1.0000
  H   H2176     1.0  0.30526  0.88557  0.91771  1.0000
  H   H2177     1.0  0.28225  0.89648  0.89824  1.0000
  H   H2178     1.0  0.33882  0.92055  0.86996  1.0000
  H   H2179     1.0  0.36187  0.90966  0.88946  1.0000
  C   C1284     1.0  0.45330  0.81010  0.90475  1.0000
  C   C1285     1.0  0.44499  0.82197  0.89255  1.0000
  H   H2180     1.0  0.48785  0.91977  0.95969  1.0000
  H   H2181     1.0  0.10280  0.89697  0.94424  1.0000
  C   C1286     1.0  0.46664  0.77767  0.89249  1.0000
  C   C1287     1.0  0.46421  0.78794  0.90464  1.0000
  H   H2182     1.0  0.43728  0.83923  0.89236  1.0000
  H   H2183     1.0  0.00079  0.97112  0.96643  1.0000
  H   H2184     1.0  0.15678  0.86921  0.73083  1.0000
  H   H2185     1.0  0.42368  0.68796  0.77194  1.0000
  H   H2186     1.0  0.22626  0.71396  0.74003  1.0000
  C   C1288     1.0  0.11929  0.90313  0.96144  1.0000
  H   H2187     1.0  0.44526  0.70207  0.80162  1.0000
  H   H2188     1.0  0.19376  0.97720  0.87676  1.0000
  N   N93       1.0  0.13049  0.85167  0.87297  1.0000
  C   C1289     1.0  0.12664  0.84143  0.86082  1.0000
  C   C1290     1.0  0.12306  0.87662  0.86981  1.0000
  C   C1291     1.0  0.11718  0.84251  0.88693  1.0000
  C   C1292     1.0  0.15512  0.84615  0.87420  1.0000
  C   C1293     1.0  0.13060  0.81561  0.86278  1.0000
  C   C1294     1.0  0.13848  0.88965  0.85786  1.0000
  C   C1295     1.0  0.09155  0.84493  0.88730  1.0000
  C   C1296     1.0  0.16268  0.85626  0.88560  1.0000
  H   H2189     1.0  0.10927  0.84727  0.85837  1.0000
  H   H2190     1.0  0.13787  0.84712  0.85084  1.0000
  H   H2191     1.0  0.12096  0.88451  0.87946  1.0000
  H   H2192     1.0  0.10599  0.88036  0.86671  1.0000
  H   H2193     1.0  0.12356  0.82451  0.89031  1.0000
  H   H2194     1.0  0.11945  0.85108  0.89561  1.0000
  H   H2195     1.0  0.16021  0.82778  0.87691  1.0000
  H   H2196     1.0  0.16587  0.85064  0.86383  1.0000
  H   H2197     1.0  0.11901  0.80805  0.87191  1.0000
  H   H2198     1.0  0.12741  0.81043  0.85306  1.0000
  H   H2199     1.0  0.14829  0.80843  0.86384  1.0000
  H   H2200     1.0  0.13070  0.90753  0.85610  1.0000
  H   H2201     1.0  0.15521  0.88929  0.86080  1.0000
  H   H2202     1.0  0.14065  0.88341  0.84761  1.0000
  H   H2203     1.0  0.08372  0.83737  0.89804  1.0000
  H   H2204     1.0  0.08722  0.83599  0.87952  1.0000
  H   H2205     1.0  0.08371  0.86277  0.88563  1.0000
  H   H2206     1.0  0.16035  0.84544  0.89617  1.0000
  H   H2207     1.0  0.15374  0.87326  0.88664  1.0000
  H   H2208     1.0  0.18075  0.85819  0.88239  1.0000
  N   N94       1.0  0.25734  0.79724  0.82341  1.0000
  C   C1297     1.0  0.24592  0.81953  0.81657  1.0000
  C   C1298     1.0  0.26609  0.80156  0.83603  1.0000
  C   C1299     1.0  0.23983  0.78190  0.82861  1.0000
  C   C1300     1.0  0.27565  0.78785  0.81234  1.0000
  C   C1301     1.0  0.23191  0.81879  0.80506  1.0000
  C   C1302     1.0  0.28252  0.81882  0.83264  1.0000
  C   C1303     1.0  0.24767  0.75820  0.83619  1.0000
  C   C1304     1.0  0.29505  0.77040  0.81779  1.0000
  H   H2209     1.0  0.23454  0.82857  0.82470  1.0000
  H   H2210     1.0  0.25844  0.83085  0.81145  1.0000
  H   H2211     1.0  0.27454  0.78612  0.84191  1.0000
  H   H2212     1.0  0.25181  0.80773  0.84406  1.0000
  H   H2213     1.0  0.22582  0.78959  0.83603  1.0000
  H   H2214     1.0  0.23207  0.77933  0.81970  1.0000
  H   H2215     1.0  0.26823  0.78019  0.80512  1.0000
  H   H2216     1.0  0.28387  0.80162  0.80532  1.0000
  H   H2217     1.0  0.24105  0.80812  0.79714  1.0000
  H   H2218     1.0  0.21562  0.81304  0.80999  1.0000
  H   H2219     1.0  0.22764  0.83601  0.79927  1.0000
  H   H2220     1.0  0.29040  0.81820  0.84217  1.0000
  H   H2221     1.0  0.29618  0.81545  0.82367  1.0000
  H   H2222     1.0  0.27346  0.83614  0.83033  1.0000
  H   H2223     1.0  0.25501  0.75827  0.84578  1.0000
  H   H2224     1.0  0.25937  0.74807  0.82879  1.0000
  H   H2225     1.0  0.23277  0.74938  0.83985  1.0000
  H   H2226     1.0  0.29959  0.75717  0.81092  1.0000
  H   H2227     1.0  0.29131  0.76164  0.82881  1.0000
  H   H2228     1.0  0.31044  0.77820  0.81662  1.0000
  N   N95       1.0  0.06742  0.78361  0.84979  1.0000
  C   C1305     1.0  0.09272  0.77726  0.84829  1.0000
  C   C1306     1.0  0.05765  0.77386  0.86470  1.0000
  C   C1307     1.0  0.06217  0.80880  0.84800  1.0000
  C   C1308     1.0  0.05925  0.77488  0.83843  1.0000
  C   C1309     1.0  0.10644  0.78705  0.83414  1.0000
  C   C1310     1.0  0.06421  0.74838  0.86895  1.0000
  C   C1311     1.0  0.03712  0.81909  0.84951  1.0000
  C   C1312     1.0  0.03455  0.77052  0.84138  1.0000
  H   H2229     1.0  0.09917  0.78205  0.85713  1.0000
  H   H2230     1.0  0.09768  0.75877  0.84911  1.0000
  H   H2231     1.0  0.03910  0.77711  0.86650  1.0000
  H   H2232     1.0  0.06260  0.78206  0.87272  1.0000
  H   H2233     1.0  0.06972  0.81513  0.85579  1.0000
  H   H2234     1.0  0.06971  0.81653  0.83725  1.0000
  H   H2235     1.0  0.06184  0.78618  0.82802  1.0000
  H   H2236     1.0  0.06952  0.75855  0.83670  1.0000
  H   H2237     1.0  0.10637  0.80530  0.83319  1.0000
  H   H2238     1.0  0.12432  0.77909  0.83379  1.0000
  H   H2239     1.0  0.10072  0.78329  0.82477  1.0000
  H   H2240     1.0  0.05325  0.74252  0.87898  1.0000
  H   H2241     1.0  0.06194  0.73904  0.86076  1.0000
  H   H2242     1.0  0.08180  0.74400  0.87107  1.0000
  H   H2243     1.0  0.02953  0.81689  0.84043  1.0000
  H   H2244     1.0  0.03568  0.83743  0.84920  1.0000
  H   H2245     1.0  0.02718  0.81251  0.85973  1.0000
  H   H2246     1.0  0.02840  0.77266  0.83106  1.0000
  H   H2247     1.0  0.02247  0.78155  0.84797  1.0000
  H   H2248     1.0  0.03360  0.75277  0.84612  1.0000
  N   N96       1.0  0.36862  0.83245  0.89419  1.0000
  C   C1313     1.0  0.38183  0.85174  0.88905  1.0000
  C   C1314     1.0  0.36798  0.82637  0.91009  1.0000
  C   C1315     1.0  0.34497  0.84081  0.89116  1.0000
  C   C1316     1.0  0.37975  0.81333  0.88627  1.0000
  C   C1317     1.0  0.38230  0.86251  0.87328  1.0000
  C   C1318     1.0  0.39111  0.82131  0.91513  1.0000
  C   C1319     1.0  0.32776  0.82446  0.89623  1.0000
  C   C1320     1.0  0.37670  0.78937  0.89388  1.0000
  H   H2249     1.0  0.37545  0.86531  0.89558  1.0000
  H   H2250     1.0  0.39970  0.84637  0.89039  1.0000
  H   H2251     1.0  0.35939  0.81161  0.91459  1.0000
  H   H2252     1.0  0.35781  0.84017  0.91558  1.0000
  H   H2253     1.0  0.33789  0.85614  0.89600  1.0000
  H   H2254     1.0  0.34476  0.84589  0.87954  1.0000
  H   H2255     1.0  0.37391  0.81562  0.87581  1.0000
  H   H2256     1.0  0.39831  0.81312  0.88356  1.0000
  H   H2257     1.0  0.36596  0.87295  0.87148  1.0000
  H   H2258     1.0  0.39508  0.87401  0.87035  1.0000
  H   H2259     1.0  0.38699  0.84988  0.86603  1.0000
  H   H2260     1.0  0.39810  0.83695  0.91446  1.0000
  H   H2261     1.0  0.38914  0.81341  0.92651  1.0000
  H   H2262     1.0  0.40349  0.80981  0.90896  1.0000
  H   H2263     1.0  0.33112  0.81099  0.88962  1.0000
  H   H2264     1.0  0.47432  0.65574  0.85991  1.0000
  H   H2265     1.0  0.15584  0.89496  0.94201  1.0000
  C   C1321     1.0  0.13799  0.83971  0.96437  1.0000
  H   H2266     1.0  0.46294  0.87641  0.87945  1.0000
  C   C1322     1.0  0.03087  0.77161  0.90691  1.0000
  Fe  Fe189     1.0  0.01035  0.71617  0.84828  1.0000
  H   H2267     1.0  0.26965  0.69145  0.74634  1.0000
  H   H2268     1.0  0.24163  0.67951  0.77634  1.0000
  C   C1323     1.0  0.00634  0.78448  0.88900  1.0000
  C   C1324     1.0  0.26018  0.70745  0.77142  1.0000
  S   S373      1.0  0.33883  0.65285  0.80878  1.0000
  C   C1325     1.0  0.00866  0.80665  0.88953  1.0000
  N   N97       1.0  0.39698  0.69255  0.78995  1.0000
  C   C1326     1.0  0.45811  0.78950  0.88035  1.0000
  H   H2269     1.0  0.10435  0.90044  0.96974  1.0000
  C   C1327     1.0  0.40230  0.67998  0.84510  1.0000
  C   C1328     1.0  0.44729  0.81170  0.88045  1.0000
  C   C1329     1.0  0.01761  0.76697  0.89771  1.0000
  H   H2270     1.0  0.01605  0.74983  0.89741  1.0000
  S   S374      1.0  0.46628  0.71102  0.86704  1.0000
  H   H2271     1.0  0.19372  0.87808  0.94555  1.0000
  S   S375      1.0  0.40629  0.89904  0.96688  1.0000
  H   H2272     1.0  0.36017  0.68951  0.81371  1.0000
  H   H2273     1.0  0.40862  0.69228  0.80983  1.0000
  C   C1330     1.0  0.47500  0.91626  0.96922  1.0000
  H   H2274     1.0  0.45428  0.95493  0.94911  1.0000
  H   H2275     1.0  0.13305  0.82791  0.95855  1.0000
  H   H2276     1.0  0.27101  0.66584  0.72988  1.0000
  H   H2277     1.0  0.11070  0.86530  0.96037  1.0000
  C   C1331     1.0  0.39273  0.69074  0.76412  1.0000
  C   C1332     1.0  0.29900  0.67096  0.76344  1.0000
  C   C1333     1.0  0.26686  0.67410  0.75122  1.0000
  C   C1334     1.0  0.45507  0.94450  0.92905  1.0000
  C   C1335     1.0  0.17334  0.96476  0.90363  1.0000
  H   H2278     1.0  0.38116  0.66366  0.79045  1.0000
  H   H2279     1.0  0.09722  0.92494  0.94772  1.0000
  C   C1336     1.0  0.15501  0.95630  0.91577  1.0000
  H   H2280     1.0  0.14716  0.96918  0.92255  1.0000
  C   C1337     1.0  0.17927  0.87083  0.95247  1.0000
  H   H2281     1.0  0.44085  0.71079  0.78358  1.0000
  C   C1338     1.0  0.13224  0.76782  0.73862  1.0000
  H   H2282     1.0  0.47180  0.88633  0.90016  1.0000
  C   C1339     1.0  0.48640  0.88535  0.89135  1.0000
  C   C1340     1.0  0.46313  0.95491  0.93834  1.0000
  C   C1341     1.0  0.25945  0.68207  0.77546  1.0000
  H   H2283     1.0  0.44584  0.65646  0.89819  1.0000
  H   H2284     1.0  0.21552  0.98098  0.89419  1.0000
  N   N98       1.0  0.13734  0.88283  0.96259  1.0000
  H   H2285     1.0  0.29835  0.67435  0.78607  1.0000
  H   H2286     1.0  0.15128  0.84380  0.74218  1.0000
  C   C1342     1.0  0.21124  0.72691  0.74147  1.0000
  H   H2287     1.0  0.15900  0.96424  0.87928  1.0000
  H   H2288     1.0  0.14180  0.95006  0.91192  1.0000
  Fe  Fe190     1.0  0.48159  0.70492  0.84490  1.0000
  S   S376      1.0  0.19400  0.96529  0.84594  1.0000
  H   H2289     1.0  0.27719  0.71145  0.77124  1.0000
  H   H2290     1.0  0.16359  0.90375  0.95643  1.0000
  S   S377      1.0  0.46040  0.77738  0.86485  1.0000
  H   H2291     1.0  0.44087  0.82104  0.87104  1.0000
  H   H2292     1.0  0.47085  0.77867  0.91399  1.0000
  C   C1343     1.0  0.15858  0.88921  0.95319  1.0000
  H   H2293     1.0  0.18438  0.86426  0.96303  1.0000
  H   H2294     1.0  0.47500  0.76057  0.89255  1.0000
  H   H2295     1.0  0.18746  0.71170  0.73439  1.0000
  Fe  Fe191     1.0  0.48075  0.74335  0.86135  1.0000
  H   H2296     1.0  0.40783  0.71513  0.77093  1.0000
  H   H2297     1.0  0.40603  0.71881  0.79899  1.0000
  C   C1344     1.0  0.19494  0.72736  0.73104  1.0000
  H   H2298     1.0  0.47877  0.84351  0.89409  1.0000
  C   C1345     1.0  0.48242  0.96527  0.93382  1.0000
  H   H2299     1.0  0.00816  0.94226  0.95402  1.0000
  H   H2300     1.0  0.37603  0.70135  0.76406  1.0000
  C   C1346     1.0  0.47536  0.88811  0.87791  1.0000
  H   H2301     1.0  0.38831  0.68767  0.85210  1.0000
  H   H2302     1.0  0.00703  0.91557  0.92041  1.0000
  C   C1347     1.0  0.44870  0.65358  0.88696  1.0000
  H   H2303     1.0  0.13337  0.86515  0.94605  1.0000
  C   C1348     1.0  0.27830  0.65941  0.73980  1.0000
  C   C1349     1.0  0.30989  0.66845  0.77688  1.0000
  C   C1350     1.0  0.40632  0.69703  0.77429  1.0000
  H   H2304     1.0  0.18641  0.96808  0.90918  1.0000
  C   C1351     1.0  0.15539  0.85151  0.73084  1.0000
  H   H2305     1.0  0.37167  0.71447  0.81373  1.0000
  H   H2306     1.0  0.20234  0.72283  0.75253  1.0000
  C   C1352     1.0  0.36237  0.70643  0.80783  1.0000
  H   H2307     1.0  0.36179  0.69940  0.78715  1.0000
  H   H2308     1.0  0.25417  0.71471  0.76120  1.0000
  H   H2309     1.0  0.46581  0.90533  0.87611  1.0000
  H   H2310     1.0  0.31752  0.65083  0.78006  1.0000
  H   H2311     1.0  0.43194  0.65577  0.88368  1.0000
  H   H2312     1.0  0.34524  0.71633  0.80804  1.0000
  N   N99       1.0  0.27473  0.66754  0.76553  1.0000
  H   H2313     1.0  0.29662  0.66005  0.73693  1.0000
  H   H2314     1.0  0.12389  0.91531  0.93811  1.0000
  H   H2315     1.0  0.16307  0.94181  0.92278  1.0000
  C   C1353     1.0  0.11061  0.91017  0.94699  1.0000
  H   H2316     1.0  0.32349  0.67897  0.77459  1.0000
  H   H2317     1.0  0.24838  0.67401  0.75244  1.0000
  C   C1354     1.0  0.12938  0.86398  0.95779  1.0000
  C   C1355     1.0  0.39881  0.66390  0.83751  1.0000
  H   H2318     1.0  0.26299  0.67738  0.78651  1.0000
  H   H2319     1.0  0.17183  0.84213  0.72672  1.0000
  H   H2320     1.0  0.48485  0.85381  0.91561  1.0000
  H   H2321     1.0  0.44005  0.85920  0.97111  1.0000
  H   H2322     1.0  0.18320  0.79999  0.72831  1.0000
  H   H2323     1.0  0.00031  0.79456  0.93622  1.0000
  C   C1356     1.0  0.14005  0.77517  0.72419  1.0000
  C   C1357     1.0  0.41708  0.65389  0.82863  1.0000
  H   H2324     1.0  0.12034  0.85607  0.72882  1.0000
  H   H2325     1.0  0.00026  0.82030  0.88270  1.0000
  H   H2326     1.0  0.15643  0.83601  0.96389  1.0000
  H   H2327     1.0  0.40203  0.69355  0.75308  1.0000
  H   H2328     1.0  0.45883  0.91808  0.96519  1.0000
  C   C1358     1.0  0.39475  0.66817  0.79502  1.0000
  H   H2329     1.0  0.39069  0.67282  0.76657  1.0000
  S   S378      1.0  0.07658  0.83590  0.97328  1.0000
  H   H2330     1.0  0.12525  0.91811  0.96347  1.0000
  H   H2331     1.0  0.47057  0.95004  0.97232  1.0000
  H   H2332     1.0  0.13562  0.97158  0.89241  1.0000
  H   H2333     1.0  0.99408  0.95243  0.90660  1.0000
  H   H2334     1.0  0.00371  0.82325  0.93135  1.0000
  C   C1359     1.0  0.15005  0.97816  0.88511  1.0000
  H   H2335     1.0  0.13666  0.83064  0.72438  1.0000
  H   H2336     1.0  0.42943  0.65202  0.79720  1.0000
  C   C1360     1.0  0.41571  0.65086  0.79156  1.0000
  H   H2337     1.0  0.42173  0.65180  0.77997  1.0000
  C   C1361     1.0  0.99115  0.81194  0.93605  1.0000
  S   S379      1.0  0.99115  0.66677  0.89659  1.0000
  Fe  Fe192     1.0  0.99068  0.69474  0.87769  1.0000
  H   H2338     1.0  0.00568  0.98246  0.93616  1.0000
  H   H2339     1.0  0.52305  0.08553  0.09773  1.0000
  Fe  Fe193     1.0  0.58159  0.05420  0.06457  1.0000
  S   S380      1.0  0.61628  0.04445  0.05265  1.0000
  S   S381      1.0  0.56506  0.09012  0.06543  1.0000
  Fe  Fe194     1.0  0.59953  0.02418  0.04191  1.0000
  S   S382      1.0  0.61065  0.02213  0.01846  1.0000
  Fe  Fe195     1.0  0.61841  0.01437  0.06989  1.0000
  S   S383      1.0  0.56466  0.03644  0.05229  1.0000
  S   S384      1.0  0.58480  0.02556  0.08271  1.0000
  Fe  Fe196     1.0  0.67688  0.25542  0.17290  1.0000
  S   S385      1.0  0.64024  0.25786  0.18217  1.0000
  S   S386      1.0  0.69637  0.22042  0.17595  1.0000
  C   C1362     1.0  0.53679  0.11820  0.03194  1.0000
  H   H2340     1.0  0.53887  0.27261  0.11667  1.0000
  Fe  Fe197     1.0  0.64578  0.28831  0.18998  1.0000
  C   C1363     1.0  0.71802  0.24935  0.21312  1.0000
  Fe  Fe198     1.0  0.63401  0.28079  0.16190  1.0000
  S   S387      1.0  0.60984  0.27838  0.14709  1.0000
  S   S388      1.0  0.68289  0.28427  0.18202  1.0000
  S   S389      1.0  0.67058  0.27632  0.15206  1.0000
  S   S390      1.0  0.95802  0.21069  0.13719  1.0000
  Fe  Fe199     1.0  0.96841  0.07269  0.04964  1.0000
  S   S391      1.0  0.96866  0.03944  0.06394  1.0000
  H   H2341     1.0  0.70187  0.18777  0.20692  1.0000
  Fe  Fe200     1.0  0.93710  0.06088  0.03113  1.0000
  S   S392      1.0  0.93480  0.02698  0.04442  1.0000
  S   S393      1.0  0.91964  0.07550  0.01182  1.0000
  Fe  Fe201     1.0  0.93149  0.04473  0.06319  1.0000
  S   S394      1.0  0.90737  0.04167  0.08399  1.0000
  Fe  Fe202     1.0  0.50321  0.21122  0.11506  1.0000
  S   S395      1.0  0.93103  0.07904  0.05001  1.0000
  Fe  Fe203     1.0  0.81897  0.17238  0.18430  1.0000
  S   S396      1.0  0.80306  0.14108  0.19000  1.0000
  S   S397      1.0  0.80003  0.20761  0.18004  1.0000
  Fe  Fe204     1.0  0.86632  0.14646  0.18570  1.0000
  S   S398      1.0  0.85383  0.11324  0.19175  1.0000
  S   S399      1.0  0.90397  0.14448  0.18365  1.0000
  Fe  Fe205     1.0  0.83212  0.12641  0.17482  1.0000
  S   S400      1.0  0.83178  0.10963  0.15589  1.0000
  Fe  Fe206     1.0  0.82625  0.13101  0.20638  1.0000
  S   S401      1.0  0.84645  0.15865  0.16788  1.0000
  S   S402      1.0  0.84036  0.16327  0.20161  1.0000
  Fe  Fe207     1.0  0.77613  0.01354  0.13919  1.0000
  C   C1364     1.0  0.64734  0.23127  0.22216  1.0000
  S   S403      1.0  0.77843  0.02905  0.15827  1.0000
  Fe  Fe208     1.0  0.74392  0.01446  0.11840  1.0000
  S   S404      1.0  0.71067  0.03366  0.11246  1.0000
  C   C1365     1.0  0.97295  0.19198  0.18341  1.0000
  H   H2342     1.0  0.85091  0.08993  0.04283  1.0000
  C   C1366     1.0  0.71253  0.22523  0.21617  1.0000
  S   S405      1.0  0.77440  0.03118  0.11674  1.0000
  Fe  Fe209     1.0  0.52281  0.16334  0.12595  1.0000
  S   S406      1.0  0.50871  0.16727  0.14870  1.0000
  S   S407      1.0  0.54386  0.12949  0.12339  1.0000
  Fe  Fe210     1.0  0.52088  0.20072  0.14320  1.0000
  S   S408      1.0  0.53810  0.21096  0.15929  1.0000
  S   S409      1.0  0.53708  0.19570  0.12104  1.0000
  C   C1367     1.0  0.81746  0.08674  0.15690  1.0000
  C   C1368     1.0  0.80437  0.07821  0.16952  1.0000
  C   C1369     1.0  0.79251  0.06053  0.16975  1.0000
  C   C1370     1.0  0.79355  0.05132  0.15738  1.0000
  C   C1371     1.0  0.80652  0.05997  0.14473  1.0000
  C   C1372     1.0  0.81848  0.07756  0.14451  1.0000
  H   H2343     1.0  0.80343  0.08516  0.17911  1.0000
  H   H2344     1.0  0.78254  0.05387  0.17958  1.0000
  H   H2345     1.0  0.80750  0.05296  0.13516  1.0000
  H   H2346     1.0  0.82856  0.08410  0.13470  1.0000
  C   C1373     1.0  0.88395  0.02773  0.08615  1.0000
  C   C1374     1.0  0.86637  0.03096  0.09752  1.0000
  C   C1375     1.0  0.84715  0.02060  0.09929  1.0000
  C   C1376     1.0  0.84546  0.00695  0.08966  1.0000
  H   H2347     1.0  0.61446  0.10090  0.01481  1.0000
  C   C1377     1.0  0.88242  0.01377  0.07666  1.0000
  H   H2348     1.0  0.86754  0.04165  0.10495  1.0000
  H   H2349     1.0  0.83365  0.02326  0.10807  1.0000
  H   H2350     1.0  0.99041  0.23190  0.18268  1.0000
  H   H2351     1.0  0.54009  0.30172  0.07708  1.0000
  C   C1378     1.0  0.91055  0.02601  0.99168  1.0000
  C   C1379     1.0  0.91622  0.03712  0.00166  1.0000
  C   C1380     1.0  0.91572  0.06034  0.99881  1.0000
  C   C1381     1.0  0.70387  0.00682  0.09416  1.0000
  H   H2352     1.0  0.91031  0.00814  0.99418  1.0000
  H   H2353     1.0  0.92042  0.02780  0.01169  1.0000
  C   C1382     1.0  0.94268  0.19192  0.14964  1.0000
  C   C1383     1.0  0.95344  0.17123  0.15562  1.0000
  C   C1384     1.0  0.94137  0.15700  0.16613  1.0000
  C   C1385     1.0  0.91820  0.16291  0.17035  1.0000
  C   C1386     1.0  0.90716  0.18332  0.16410  1.0000
  C   C1387     1.0  0.91948  0.19796  0.15392  1.0000
  H   H2354     1.0  0.97115  0.16637  0.15245  1.0000
  H   H2355     1.0  0.94996  0.14122  0.17093  1.0000
  H   H2356     1.0  0.88926  0.18803  0.16737  1.0000
  H   H2357     1.0  0.91100  0.21395  0.14933  1.0000
  S   S410      1.0  0.50103  0.23703  0.09520  1.0000
  H   H2358     1.0  0.88801  0.00321  0.03328  1.0000
  C   C1388     1.0  0.72507  0.21740  0.17712  1.0000
  C   C1389     1.0  0.73644  0.19602  0.18153  1.0000
  C   C1390     1.0  0.75921  0.19305  0.18293  1.0000
  C   C1391     1.0  0.77099  0.21127  0.17948  1.0000
  C   C1392     1.0  0.75955  0.23274  0.17521  1.0000
  C   C1393     1.0  0.73657  0.23584  0.17412  1.0000
  H   H2359     1.0  0.72756  0.18174  0.18400  1.0000
  H   H2360     1.0  0.76768  0.17665  0.18663  1.0000
  H   H2361     1.0  0.76859  0.24692  0.17256  1.0000
  H   H2362     1.0  0.72788  0.25239  0.17072  1.0000
  H   H2363     1.0  0.93851  0.18865  0.11741  1.0000
  C   C1394     1.0  0.53917  0.01714  0.11362  1.0000
  H   H2364     1.0  0.81329  0.08081  0.04502  1.0000
  H   H2365     1.0  0.87991  0.03085  0.04806  1.0000
  C   C1395     1.0  0.59053  0.25896  0.15060  1.0000
  C   C1396     1.0  0.58384  0.24800  0.16437  1.0000
  C   C1397     1.0  0.56767  0.23348  0.16683  1.0000
  C   C1398     1.0  0.55822  0.22954  0.15556  1.0000
  C   C1399     1.0  0.56524  0.24011  0.14172  1.0000
  C   C1400     1.0  0.58120  0.25487  0.13930  1.0000
  H   H2366     1.0  0.59080  0.25105  0.17317  1.0000
  H   H2367     1.0  0.56238  0.22534  0.17756  1.0000
  H   H2368     1.0  0.55831  0.23700  0.13294  1.0000
  H   H2369     1.0  0.58649  0.26310  0.12860  1.0000
  C   C1401     1.0  0.66791  0.00913  0.08603  1.0000
  C   C1402     1.0  0.69486  0.02446  0.10176  1.0000
  C   C1403     1.0  0.67254  0.03482  0.10112  1.0000
  C   C1404     1.0  0.65909  0.02721  0.09328  1.0000
  H   H2370     1.0  0.66551  0.04858  0.10690  1.0000
  H   H2371     1.0  0.64178  0.03497  0.09313  1.0000
  C   C1405     1.0  0.56029  0.10132  0.08140  1.0000
  C   C1406     1.0  0.56870  0.08931  0.09353  1.0000
  C   C1407     1.0  0.56361  0.09823  0.10631  1.0000
  C   C1408     1.0  0.55016  0.11921  0.10704  1.0000
  C   C1409     1.0  0.54187  0.13129  0.09489  1.0000
  C   C1410     1.0  0.54696  0.12237  0.08210  1.0000
  H   H2372     1.0  0.57913  0.07317  0.09307  1.0000
  H   H2373     1.0  0.57015  0.08885  0.11567  1.0000
  H   H2374     1.0  0.53154  0.14749  0.09534  1.0000
  H   H2375     1.0  0.54041  0.13175  0.07276  1.0000
  C   C1411     1.0  0.55738  0.02848  0.99005  1.0000
  C   C1412     1.0  0.55089  0.02921  0.00465  1.0000
  C   C1413     1.0  0.56713  0.02681  0.01349  1.0000
  C   C1414     1.0  0.58998  0.02425  0.00772  1.0000
  C   C1415     1.0  0.59652  0.02361  0.99309  1.0000
  H   H2376     1.0  0.52565  0.00768  0.11967  1.0000
  H   H2377     1.0  0.53320  0.03145  0.00916  1.0000
  H   H2378     1.0  0.56193  0.02703  0.02475  1.0000
  H   H2379     1.0  0.61421  0.02161  0.98858  1.0000
  H   H2380     1.0  0.96433  0.19481  0.17397  1.0000
  S   S411      1.0  0.97451  0.05783  0.02944  1.0000
  H   H2381     1.0  0.52114  0.27921  0.14141  1.0000
  H   H2382     1.0  0.57115  0.10825  0.03448  1.0000
  C   C1416     1.0  0.59099  0.11831  0.99191  1.0000
  H   H2383     1.0  0.63721  0.23327  0.21351  1.0000
  H   H2384     1.0  0.75354  0.30134  0.16185  1.0000
  H   H2385     1.0  0.53493  0.10192  0.00926  1.0000
  H   H2386     1.0  0.72630  0.30120  0.17211  1.0000
  H   H2387     1.0  0.87574  0.02059  0.01903  1.0000
  H   H2388     1.0  0.51433  0.25472  0.13714  1.0000
  H   H2389     1.0  0.89288  0.04340  0.03122  1.0000
  H   H2390     1.0  0.60678  0.12431  0.99254  1.0000
  C   C1417     1.0  0.53124  0.04258  0.11215  1.0000
  H   H2391     1.0  0.67556  0.22888  0.20473  1.0000
  N   N100      1.0  0.51374  0.05221  0.10267  1.0000
  H   H2392     1.0  0.67239  0.25199  0.21325  1.0000
  Fe  Fe211     1.0  0.79431  0.99891  0.11051  1.0000
  H   H2393     1.0  0.84126  0.03520  0.05480  1.0000
  H   H2394     1.0  0.62273  0.07158  0.02016  1.0000
  C   C1418     1.0  0.81869  0.06598  0.05266  1.0000
  H   H2395     1.0  0.69396  0.00412  0.13868  1.0000
  H   H2396     1.0  0.52212  0.11095  0.03064  1.0000
  H   H2397     1.0  0.71817  0.25589  0.22299  1.0000
  N   N101      1.0  0.60697  0.16542  0.14146  1.0000
  C   C1419     1.0  0.62120  0.15310  0.15245  1.0000
  C   C1420     1.0  0.58308  0.17086  0.14881  1.0000
  C   C1421     1.0  0.61516  0.18710  0.13420  1.0000
  C   C1422     1.0  0.60835  0.15072  0.13041  1.0000
  H   H2398     1.0  0.60269  0.19760  0.12773  1.0000
  C   C1423     1.0  0.57063  0.15071  0.15537  1.0000
  C   C1424     1.0  0.61956  0.20219  0.14413  1.0000
  H   H2399     1.0  0.61918  0.16259  0.16145  1.0000
  H   H2400     1.0  0.61551  0.13681  0.15738  1.0000
  H   H2401     1.0  0.57257  0.18234  0.14145  1.0000
  H   H2402     1.0  0.58246  0.18020  0.15769  1.0000
  H   H2403     1.0  0.63087  0.18401  0.12645  1.0000
  Fe  Fe212     1.0  0.57030  0.00705  0.06944  1.0000
  H   H2404     1.0  0.60477  0.13366  0.13553  1.0000
  H   H2405     1.0  0.55768  0.10052  0.98588  1.0000
  H   H2406     1.0  0.54230  0.07772  0.99128  1.0000
  H   H2407     1.0  0.65547  0.14018  0.15614  1.0000
  H   H2408     1.0  0.55339  0.15717  0.16040  1.0000
  H   H2409     1.0  0.56860  0.14097  0.14729  1.0000
  H   H2410     1.0  0.57875  0.13948  0.16393  1.0000
  H   H2411     1.0  0.62331  0.21847  0.13771  1.0000
  H   H2412     1.0  0.63431  0.19484  0.14948  1.0000
  H   H2413     1.0  0.60476  0.20601  0.15228  1.0000
  H   H2414     1.0  0.55330  0.01275  0.11984  1.0000
  H   H2415     1.0  0.80353  0.05802  0.05754  1.0000
  N   N102      1.0  0.56837  0.09780  0.01476  1.0000
  C   C1425     1.0  0.55890  0.10164  0.02984  1.0000
  C   C1426     1.0  0.58846  0.07959  0.01571  1.0000
  C   C1427     1.0  0.55060  0.08953  0.00909  1.0000
  C   C1428     1.0  0.57424  0.11961  0.00602  1.0000
  H   H2416     1.0  0.90983  0.09011  0.98337  1.0000
  C   C1429     1.0  0.52377  0.04925  0.08755  1.0000
  H   H2417     1.0  0.67813  0.29898  0.20994  1.0000
  H   H2418     1.0  0.96412  0.20164  0.20484  1.0000
  H   H2419     1.0  0.55585  0.08554  0.03688  1.0000
  H   H2420     1.0  0.95485  0.22334  0.19071  1.0000
  H   H2421     1.0  0.59528  0.07356  0.00547  1.0000
  H   H2422     1.0  0.58334  0.06440  0.02297  1.0000
  H   H2423     1.0  0.54586  0.07389  0.01603  1.0000
  C   C1430     1.0  0.64660  0.14740  0.14692  1.0000
  H   H2424     1.0  0.53997  0.05608  0.08438  1.0000
  H   H2425     1.0  0.58162  0.12880  0.01245  1.0000
  H   H2426     1.0  0.69739  0.98534  0.08066  1.0000
  H   H2427     1.0  0.86197  0.99282  0.07094  1.0000
  H   H2428     1.0  0.51521  0.08240  0.12351  1.0000
  H   H2429     1.0  0.59551  0.10163  0.98863  1.0000
  C   C1431     1.0  0.51177  0.27327  0.13447  1.0000
  H   H2430     1.0  0.97307  0.17386  0.18776  1.0000
  H   H2431     1.0  0.53767  0.13453  0.02488  1.0000
  H   H2432     1.0  0.67154  0.19112  0.21151  1.0000
  C   C1432     1.0  0.52718  0.29862  0.08667  1.0000
  H   H2433     1.0  0.98450  0.25060  0.15897  1.0000
  Fe  Fe213     1.0  0.67317  0.30594  0.16192  1.0000
  H   H2434     1.0  0.52494  0.04568  0.12325  1.0000
  C   C1433     1.0  0.91036  0.07212  0.98565  1.0000
  H   H2435     1.0  0.86038  0.05927  0.06492  1.0000
  H   H2436     1.0  0.59574  0.14774  0.11142  1.0000
  H   H2437     1.0  0.96598  0.09368  0.14759  1.0000
  C   C1434     1.0  0.59275  0.15959  0.11917  1.0000
  H   H2438     1.0  0.64993  0.13448  0.13987  1.0000
  H   H2439     1.0  0.83809  0.09938  0.02268  1.0000
  N   N103      1.0  0.76944  0.14869  0.14788  1.0000
  C   C1435     1.0  0.77049  0.13911  0.16333  1.0000
  C   C1436     1.0  0.78930  0.16103  0.14229  1.0000
  C   C1437     1.0  0.77191  0.12918  0.14002  1.0000
  C   C1438     1.0  0.74706  0.16362  0.14692  1.0000
  C   C1439     1.0  0.75331  0.12335  0.17073  1.0000
  C   C1440     1.0  0.79154  0.17902  0.15087  1.0000
  C   C1441     1.0  0.77232  0.13469  0.12382  1.0000
  C   C1442     1.0  0.74608  0.18302  0.13422  1.0000
  H   H2440     1.0  0.78749  0.12969  0.16460  1.0000
  H   H2441     1.0  0.76773  0.15271  0.16982  1.0000
  H   H2442     1.0  0.78915  0.16940  0.13112  1.0000
  H   H2443     1.0  0.80536  0.14904  0.14197  1.0000
  H   H2444     1.0  0.78765  0.11750  0.14183  1.0000
  H   H2445     1.0  0.75796  0.11917  0.14411  1.0000
  H   H2446     1.0  0.73381  0.15350  0.14671  1.0000
  H   H2447     1.0  0.74104  0.17173  0.15660  1.0000
  H   H2448     1.0  0.73591  0.13061  0.16901  1.0000
  H   H2449     1.0  0.75804  0.10666  0.16728  1.0000
  H   H2450     1.0  0.75349  0.12036  0.18239  1.0000
  H   H2451     1.0  0.79818  0.17121  0.16084  1.0000
  H   H2452     1.0  0.80385  0.18979  0.14458  1.0000
  H   H2453     1.0  0.77538  0.18996  0.15356  1.0000
  H   H2454     1.0  0.75543  0.14231  0.12124  1.0000
  H   H2455     1.0  0.77667  0.11872  0.11943  1.0000
  H   H2456     1.0  0.78525  0.14516  0.11826  1.0000
  H   H2457     1.0  0.75526  0.19642  0.13529  1.0000
  H   H2458     1.0  0.72825  0.19089  0.13410  1.0000
  H   H2459     1.0  0.75255  0.17760  0.12378  1.0000
  H   H2460     1.0  0.59588  0.17619  0.11309  1.0000
  H   H2461     1.0  0.88752  0.11728  0.15424  1.0000
  C   C1443     1.0  0.58024  0.02547  0.98428  1.0000
  H   H2462     1.0  0.52844  0.03142  0.08628  1.0000
  H   H2463     1.0  0.55869  0.13087  0.00332  1.0000
  C   C1444     1.0  0.87417  0.01702  0.03080  1.0000
  S   S412      1.0  0.65101  0.99698  0.07761  1.0000
  H   H2464     1.0  0.94079  0.19952  0.19682  1.0000
  H   H2465     1.0  0.83776  0.08967  0.00660  1.0000
  C   C1445     1.0  0.83627  0.08453  0.01834  1.0000
  H   H2466     1.0  0.97042  0.09184  0.12890  1.0000
  H   H2467     1.0  0.82833  0.04023  0.03942  1.0000
  H   H2468     1.0  0.82433  0.07160  0.06144  1.0000
  H   H2469     1.0  0.55026  0.30248  0.09984  1.0000
  H   H2470     1.0  0.94964  0.98854  0.98172  1.0000
  H   H2471     1.0  0.53355  0.12158  0.04309  1.0000
  C   C1446     1.0  0.52078  0.28004  0.11853  1.0000
  H   H2472     1.0  0.58370  0.12981  0.98306  1.0000
  H   H2473     1.0  0.60437  0.08724  0.03254  1.0000
  H   H2474     1.0  0.94926  0.16791  0.10627  1.0000
  H   H2475     1.0  0.75096  0.29654  0.18077  1.0000
  S   S413      1.0  0.63170  0.29172  0.21300  1.0000
  H   H2476     1.0  0.57482  0.16046  0.12402  1.0000
  H   H2477     1.0  0.54568  0.01130  0.10329  1.0000
  C   C1447     1.0  0.50075  0.08440  0.11773  1.0000
  H   H2478     1.0  0.85016  0.05076  0.01688  1.0000
  H   H2479     1.0  0.52778  0.28021  0.08952  1.0000
  H   H2480     1.0  0.87071  0.06864  0.01483  1.0000
  H   H2481     1.0  0.91528  0.11921  0.15657  1.0000
  S   S414      1.0  0.60400  0.99336  0.05822  1.0000
  H   H2482     1.0  0.51887  0.98377  0.03415  1.0000
  H   H2483     1.0  0.89625  0.14405  0.15060  1.0000
  H   H2484     1.0  0.87259  0.08457  0.06122  1.0000
  C   C1448     1.0  0.95759  0.20506  0.19460  1.0000
  H   H2485     1.0  0.54646  0.05100  0.10844  1.0000
  H   H2486     1.0  0.85808  0.01076  0.03552  1.0000
  C   C1449     1.0  0.60844  0.08554  0.02111  1.0000
  C   C1450     1.0  0.85458  0.06436  0.02144  1.0000
  H   H2487     1.0  0.89620  0.01074  0.06812  1.0000
  C   C1451     1.0  0.83680  0.04848  0.04577  1.0000
  N   N104      1.0  0.93139  0.13194  0.12672  1.0000
  C   C1452     1.0  0.92623  0.15704  0.12610  1.0000
  C   C1453     1.0  0.91032  0.12249  0.13415  1.0000
  C   C1454     1.0  0.93737  0.12723  0.11157  1.0000
  C   C1455     1.0  0.95099  0.12341  0.13465  1.0000
  C   C1456     1.0  0.94478  0.17050  0.11754  1.0000
  C   C1457     1.0  0.90221  0.12616  0.14973  1.0000
  C   C1458     1.0  0.93414  0.10414  0.10893  1.0000
  C   C1459     1.0  0.95800  0.09785  0.13784  1.0000
  H   H2488     1.0  0.91056  0.16394  0.12148  1.0000
  H   H2489     1.0  0.92294  0.16158  0.13695  1.0000
  H   H2490     1.0  0.91211  0.10420  0.13433  1.0000
  H   H2491     1.0  0.89612  0.12974  0.12815  1.0000
  H   H2492     1.0  0.92706  0.13964  0.10448  1.0000
  H   H2493     1.0  0.95520  0.12928  0.10718  1.0000
  H   H2494     1.0  0.96640  0.12998  0.12857  1.0000
  H   H2495     1.0  0.94840  0.13015  0.14480  1.0000
  H   H2496     1.0  0.62571  0.14815  0.12433  1.0000
  H   H2497     1.0  0.96536  0.23084  0.16444  1.0000
  H   H2498     1.0  0.96014  0.16680  0.12258  1.0000
  H   H2499     1.0  0.71464  0.21986  0.20563  1.0000
  C   C1460     1.0  0.55635  0.08489  0.99364  1.0000
  H   H2500     1.0  0.91604  0.10246  0.11051  1.0000
  H   H2501     1.0  0.94319  0.09001  0.11552  1.0000
  H   H2502     1.0  0.94092  0.10255  0.09762  1.0000
  H   H2503     1.0  0.94377  0.08827  0.14029  1.0000
  C   C1461     1.0  0.86313  0.00352  0.07835  1.0000
  C   C1462     1.0  0.68677  0.98823  0.14156  1.0000
  C   C1463     1.0  0.90533  0.03775  0.97848  1.0000
  H   H2504     1.0  0.57163  0.07243  0.99176  1.0000
  C   C1464     1.0  0.86456  0.07542  0.04224  1.0000
  C   C1465     1.0  0.87694  0.03753  0.03700  1.0000
  S   S415      1.0  0.53637  0.03185  0.97941  1.0000
  C   C1466     1.0  0.87193  0.06912  0.05704  1.0000
  H   H2505     1.0  0.73517  0.24935  0.20677  1.0000
  N   N105      1.0  0.85764  0.05670  0.03679  1.0000
  H   H2506     1.0  0.70639  0.26097  0.20666  1.0000
  Fe  Fe214     1.0  0.97207  0.02494  0.04390  1.0000
  H   H2507     1.0  0.81921  0.07987  0.02202  1.0000
  H   H2508     1.0  0.51580  0.05378  0.06613  1.0000
  H   H2509     1.0  0.88912  0.05942  0.05634  1.0000
  S   S416      1.0  0.82157  0.99386  0.09151  1.0000
  S   S417      1.0  0.74433  0.99890  0.14127  1.0000
  H   H2510     1.0  0.87888  0.08213  0.03470  1.0000
  C   C1467     1.0  0.67200  0.23368  0.21555  1.0000
  H   H2511     1.0  0.65431  0.16225  0.14129  1.0000
  C   C1468     1.0  0.69041  0.99918  0.08637  1.0000
  H   H2512     1.0  0.53755  0.99959  0.04975  1.0000
  S   S418      1.0  0.98930  0.09911  0.05114  1.0000
  H   H2513     1.0  0.51066  0.30635  0.08351  1.0000
  H   H2514     1.0  0.96707  0.01328  0.99045  1.0000
  C   C1469     1.0  0.68763  0.18537  0.21571  1.0000
  H   H2515     1.0  0.72113  0.99899  0.09437  1.0000
  C   C1470     1.0  0.50892  0.06054  0.07619  1.0000
  C   C1471     1.0  0.50832  0.07714  0.10294  1.0000
  H   H2516     1.0  0.50929  0.07886  0.07375  1.0000
  H   H2517     1.0  0.97914  0.08013  0.08133  1.0000
  H   H2518     1.0  0.49350  0.27920  0.13712  1.0000
  C   C1472     1.0  0.49284  0.31197  0.11135  1.0000
  N   N106      1.0  0.51730  0.30486  0.11287  1.0000
  H   H2519     1.0  0.50773  0.00903  0.10068  1.0000
  H   H2520     1.0  0.51255  0.27077  0.11264  1.0000
  S   S419      1.0  0.54339  0.98544  0.07941  1.0000
  H   H2521     1.0  0.72617  0.21437  0.22149  1.0000
  C   C1473     1.0  0.67161  0.29562  0.22113  1.0000
  C   C1474     1.0  0.53001  0.98460  0.05383  1.0000
  H   H2522     1.0  0.66889  0.99256  0.14009  1.0000
  C   C1475     1.0  0.53238  0.30909  0.09873  1.0000
  C   C1476     1.0  0.54737  0.31250  0.12612  1.0000
  H   H2523     1.0  0.68857  0.16707  0.21951  1.0000
  H   H2524     1.0  0.55507  0.29500  0.12533  1.0000
  C   C1477     1.0  0.98349  0.23240  0.16161  1.0000
  S   S420      1.0  0.76363  0.98382  0.11031  1.0000
  H   H2525     1.0  0.49465  0.08501  0.09666  1.0000
  C   C1478     1.0  0.97622  0.00724  0.98049  1.0000
  C   C1479     1.0  0.90559  0.06085  0.97542  1.0000
  C   C1480     1.0  0.74290  0.30626  0.17173  1.0000
  H   H2526     1.0  0.49398  0.10258  0.11632  1.0000
  S   S421      1.0  0.63614  0.31202  0.17045  1.0000
  C   C1481     1.0  0.49240  0.04204  0.10801  1.0000
  H   H2527     1.0  0.53812  0.98662  0.01012  1.0000
  H   H2528     1.0  0.54742  0.31449  0.13728  1.0000
  H   H2529     1.0  0.98820  0.09048  0.10297  1.0000
  H   H2530     1.0  0.98963  0.99345  0.98359  1.0000
  H   H2531     1.0  0.74193  0.31466  0.19917  1.0000
  C   C1482     1.0  0.49138  0.01970  0.10314  1.0000
  H   H2532     1.0  0.49130  0.05735  0.07938  1.0000
  C   C1483     1.0  0.98726  0.09466  0.08046  1.0000
  H   H2533     1.0  0.98366  0.02165  0.97383  1.0000
  H   H2534     1.0  0.70697  0.31594  0.19304  1.0000
  N   N107      1.0  0.88186  0.18964  0.36757  1.0000
  C   C1484     1.0  0.88839  0.07655  0.27536  1.0000
  Fe  Fe215     1.0  0.65030  0.26577  0.30804  1.0000
  S   S422      1.0  0.66684  0.29656  0.29920  1.0000
  S   S423      1.0  0.61392  0.27008  0.31894  1.0000
  Fe  Fe216     1.0  0.69433  0.23406  0.30256  1.0000
  S   S424      1.0  0.71433  0.26196  0.29368  1.0000
  S   S425      1.0  0.70906  0.19751  0.30298  1.0000
  Fe  Fe217     1.0  0.69437  0.27927  0.31164  1.0000
  Fe  Fe218     1.0  0.68526  0.27684  0.28188  1.0000
  S   S426      1.0  0.69535  0.28930  0.25828  1.0000
  S   S427      1.0  0.67663  0.24978  0.32150  1.0000
  S   S428      1.0  0.66643  0.24762  0.28972  1.0000
  S   S429      1.0  0.55492  0.19202  0.34276  1.0000
  C   C1485     1.0  0.49726  0.20499  0.31866  1.0000
  Fe  Fe219     1.0  0.83802  0.08449  0.32234  1.0000
  S   S430      1.0  0.87130  0.09472  0.31155  1.0000
  S   S431      1.0  0.83684  0.04792  0.32177  1.0000
  Fe  Fe220     1.0  0.81857  0.13229  0.32711  1.0000
  S   S432      1.0  0.85043  0.14579  0.31661  1.0000
  S   S433      1.0  0.79111  0.15811  0.33614  1.0000
  Fe  Fe221     1.0  0.85072  0.12424  0.30024  1.0000
  S   S434      1.0  0.86118  0.13656  0.27682  1.0000
  Fe  Fe222     1.0  0.86805  0.11518  0.32889  1.0000
  S   S435      1.0  0.89657  0.11292  0.34139  1.0000
  S   S436      1.0  0.81756  0.11294  0.30977  1.0000
  S   S437      1.0  0.83608  0.10280  0.34068  1.0000
  C   C1486     1.0  0.54021  0.24686  0.30581  1.0000
  C   C1487     1.0  0.88348  0.02081  0.28791  1.0000
  S   S438      1.0  0.95655  0.23316  0.39722  1.0000
  C   C1488     1.0  0.68532  0.29543  0.23130  1.0000
  S   S439      1.0  0.95145  0.19231  0.33868  1.0000
  S   S440      1.0  0.96094  0.18327  0.37819  1.0000
  C   C1489     1.0  0.91377  0.13394  0.33914  1.0000
  C   C1490     1.0  0.92961  0.13163  0.34831  1.0000
  C   C1491     1.0  0.94194  0.14903  0.34790  1.0000
  C   C1492     1.0  0.93857  0.16891  0.33827  1.0000
  C   C1493     1.0  0.92332  0.17089  0.32876  1.0000
  C   C1494     1.0  0.91091  0.15353  0.32921  1.0000
  H   H2535     1.0  0.93192  0.11654  0.35603  1.0000
  H   H2536     1.0  0.95366  0.14727  0.35526  1.0000
  H   H2537     1.0  0.92069  0.18616  0.32123  1.0000
  H   H2538     1.0  0.89882  0.15547  0.32208  1.0000
  C   C1495     1.0  0.82578  0.12318  0.24233  1.0000
  S   S441      1.0  0.51938  0.20349  0.38071  1.0000
  C   C1496     1.0  0.85678  0.13568  0.24944  1.0000
  C   C1497     1.0  0.84722  0.13112  0.26382  1.0000
  C   C1498     1.0  0.82677  0.12275  0.26744  1.0000
  C   C1499     1.0  0.81598  0.11896  0.25670  1.0000
  H   H2539     1.0  0.66087  0.29851  0.37059  1.0000
  H   H2540     1.0  0.87259  0.14218  0.24655  1.0000
  H   H2541     1.0  0.81915  0.11939  0.27847  1.0000
  H   H2542     1.0  0.80010  0.11260  0.25951  1.0000
  C   C1500     1.0  0.73211  0.18697  0.31203  1.0000
  C   C1501     1.0  0.74147  0.16431  0.31259  1.0000
  C   C1502     1.0  0.76005  0.15547  0.31957  1.0000
  C   C1503     1.0  0.76882  0.16910  0.32650  1.0000
  C   C1504     1.0  0.75929  0.19172  0.32607  1.0000
  C   C1505     1.0  0.74124  0.20075  0.31863  1.0000
  H   H2543     1.0  0.73439  0.15354  0.30756  1.0000
  H   H2544     1.0  0.76718  0.13798  0.31996  1.0000
  H   H2545     1.0  0.76604  0.20233  0.33141  1.0000
  H   H2546     1.0  0.73423  0.21830  0.31818  1.0000
  C   C1506     1.0  0.59778  0.24811  0.32516  1.0000
  C   C1507     1.0  0.60381  0.22744  0.32034  1.0000
  C   C1508     1.0  0.59047  0.21036  0.32573  1.0000
  C   C1509     1.0  0.57117  0.21379  0.33600  1.0000
  C   C1510     1.0  0.56503  0.23453  0.34066  1.0000
  C   C1511     1.0  0.57822  0.25163  0.33520  1.0000
  H   H2547     1.0  0.61869  0.22470  0.31246  1.0000
  H   H2548     1.0  0.59515  0.19442  0.32196  1.0000
  H   H2549     1.0  0.55018  0.23742  0.34854  1.0000
  H   H2550     1.0  0.57337  0.26762  0.33890  1.0000
  H   H2551     1.0  0.84686  0.03355  0.38399  1.0000
  C   C1512     1.0  0.67711  0.29064  0.24593  1.0000
  C   C1513     1.0  0.65495  0.28640  0.25032  1.0000
  C   C1514     1.0  0.64110  0.28711  0.24012  1.0000
  H   H2552     1.0  0.96899  0.30936  0.37413  1.0000
  H   H2553     1.0  0.64843  0.28278  0.26156  1.0000
  C   C1515     1.0  0.53386  0.28448  0.41333  1.0000
  C   C1516     1.0  0.54064  0.26494  0.40710  1.0000
  H   H2554     1.0  0.55570  0.25378  0.40957  1.0000
  H   H2555     1.0  0.53324  0.24439  0.39324  1.0000
  C   C1517     1.0  0.94722  0.29445  0.40891  1.0000
  H   H2556     1.0  0.54119  0.24902  0.29411  1.0000
  C   C1518     1.0  0.96340  0.27584  0.38392  1.0000
  C   C1519     1.0  0.95609  0.26207  0.39654  1.0000
  C   C1520     1.0  0.94779  0.27149  0.40897  1.0000
  H   H2557     1.0  0.88405  0.23609  0.36698  1.0000
  H   H2558     1.0  0.85611  0.16076  0.34834  1.0000
  H   H2559     1.0  0.89840  0.29946  0.37534  1.0000
  H   H2560     1.0  0.94192  0.26092  0.41875  1.0000
  C   C1521     1.0  0.52789  0.25954  0.39787  1.0000
  C   C1522     1.0  0.79293  0.00385  0.35518  1.0000
  C   C1523     1.0  0.79187  0.02655  0.35612  1.0000
  C   C1524     1.0  0.80512  0.04030  0.34592  1.0000
  C   C1525     1.0  0.81945  0.03146  0.33462  1.0000
  C   C1526     1.0  0.82037  0.00881  0.33358  1.0000
  H   H2561     1.0  0.82211  0.00329  0.39739  1.0000
  H   H2562     1.0  0.78082  0.03351  0.36485  1.0000
  H   H2563     1.0  0.80423  0.05773  0.34679  1.0000
  H   H2564     1.0  0.83140  0.00186  0.32484  1.0000
  H   H2565     1.0  0.63999  0.24423  0.22900  1.0000
  S   S442      1.0  0.98725  0.22244  0.35701  1.0000
  H   H2566     1.0  0.53134  0.26248  0.30974  1.0000
  H   H2567     1.0  0.76817  0.15112  0.28488  1.0000
  C   C1527     1.0  0.86380  0.19831  0.37896  1.0000
  C   C1528     1.0  0.53857  0.01108  0.39988  1.0000
  H   H2568     1.0  0.71969  0.22668  0.24316  1.0000
  H   H2569     1.0  0.68015  0.30709  0.35558  1.0000
  H   H2570     1.0  0.80466  0.15561  0.28858  1.0000
  N   N108      1.0  0.79114  0.19308  0.26899  1.0000
  N   N109      1.0  0.84441  0.98862  0.38017  1.0000
  N   N110      1.0  0.65733  0.19174  0.34770  1.0000
  C   C1529     1.0  0.63438  0.20557  0.34698  1.0000
  C   C1530     1.0  0.66764  0.18822  0.33269  1.0000
  C   C1531     1.0  0.67119  0.20487  0.35351  1.0000
  C   C1532     1.0  0.65426  0.16998  0.35749  1.0000
  C   C1533     1.0  0.62157  0.21348  0.36093  1.0000
  C   C1534     1.0  0.65551  0.17446  0.32562  1.0000
  C   C1535     1.0  0.69700  0.20002  0.34940  1.0000
  C   C1536     1.0  0.67545  0.15226  0.35869  1.0000
  H   H2571     1.0  0.63570  0.22092  0.33881  1.0000
  H   H2572     1.0  0.62295  0.19612  0.34367  1.0000
  H   H2573     1.0  0.68535  0.17983  0.33193  1.0000
  H   H2574     1.0  0.66852  0.20464  0.32561  1.0000
  H   H2575     1.0  0.66672  0.22321  0.34990  1.0000
  H   H2576     1.0  0.66738  0.20260  0.36535  1.0000
  H   H2577     1.0  0.64757  0.17308  0.36856  1.0000
  H   H2578     1.0  0.64095  0.16201  0.35485  1.0000
  H   H2579     1.0  0.61720  0.19928  0.36930  1.0000
  H   H2580     1.0  0.63083  0.22418  0.36500  1.0000
  H   H2581     1.0  0.60538  0.22393  0.35872  1.0000
  H   H2582     1.0  0.66535  0.17242  0.31493  1.0000
  H   H2583     1.0  0.65456  0.15740  0.33172  1.0000
  H   H2584     1.0  0.63853  0.18312  0.32383  1.0000
  H   H2585     1.0  0.70397  0.18206  0.35151  1.0000
  H   H2586     1.0  0.70497  0.20892  0.35562  1.0000
  H   H2587     1.0  0.70220  0.20673  0.33802  1.0000
  H   H2588     1.0  0.68473  0.15512  0.36683  1.0000
  H   H2589     1.0  0.68706  0.15133  0.34852  1.0000
  H   H2590     1.0  0.67031  0.13536  0.36186  1.0000
  H   H2591     1.0  0.81712  0.04206  0.38713  1.0000
  H   H2592     1.0  0.85975  0.18438  0.38771  1.0000
  C   C1537     1.0  0.89558  0.28051  0.39654  1.0000
  H   H2593     1.0  0.74660  0.23810  0.26641  1.0000
  H   H2594     1.0  0.81005  0.18162  0.24138  1.0000
  C   C1538     1.0  0.70262  0.22311  0.24819  1.0000
  H   H2595     1.0  0.82549  0.17334  0.28804  1.0000
  C   C1539     1.0  0.87514  0.17053  0.36235  1.0000
  C   C1540     1.0  0.86072  0.17646  0.35031  1.0000
  H   H2596     1.0  0.91778  0.17785  0.36570  1.0000
  H   H2597     1.0  0.90076  0.20060  0.34703  1.0000
  H   H2598     1.0  0.89037  0.15950  0.35808  1.0000
  H   H2599     1.0  0.86610  0.15963  0.37130  1.0000
  H   H2600     1.0  0.91880  0.15495  0.38926  1.0000
  H   H2601     1.0  0.87039  0.18371  0.34012  1.0000
  H   H2602     1.0  0.84484  0.18775  0.35289  1.0000
  H   H2603     1.0  0.85324  0.08438  0.28237  1.0000
  C   C1541     1.0  0.84099  0.20957  0.37454  1.0000
  C   C1542     1.0  0.90267  0.15894  0.38496  1.0000
  Fe  Fe223     1.0  0.97412  0.19124  0.35494  1.0000
  H   H2604     1.0  0.80046  0.05877  0.28921  1.0000
  H   H2605     1.0  0.88896  0.16041  0.39416  1.0000
  H   H2606     1.0  0.51122  0.98978  0.42157  1.0000
  H   H2607     1.0  0.90702  0.19345  0.37975  1.0000
  H   H2608     1.0  0.84237  0.21980  0.36383  1.0000
  C   C1543     1.0  0.85579  0.06437  0.25959  1.0000
  C   C1544     1.0  0.88757  0.20778  0.35523  1.0000
  C   C1545     1.0  0.77812  0.21536  0.26356  1.0000
  H   H2609     1.0  0.77559  0.17814  0.25549  1.0000
  C   C1546     1.0  0.96311  0.29878  0.38389  1.0000
  S   S443      1.0  0.49892  0.23227  0.35211  1.0000
  H   H2610     1.0  0.69766  0.23200  0.25756  1.0000
  H   H2611     1.0  0.51753  0.23646  0.42775  1.0000
  C   C1547     1.0  0.81799  0.19420  0.24471  1.0000
  C   C1548     1.0  0.89619  0.22773  0.35887  1.0000
  H   H2612     1.0  0.87317  0.21490  0.34953  1.0000
  H   H2613     1.0  0.86979  0.20991  0.38446  1.0000
  H   H2614     1.0  0.49286  0.20844  0.32980  1.0000
  S   S444      1.0  0.54921  0.28935  0.42600  1.0000
  S   S445      1.0  0.49555  0.17797  0.36139  1.0000
  H   H2615     1.0  0.96922  0.26881  0.37422  1.0000
  H   H2616     1.0  0.89658  0.08012  0.28381  1.0000
  H   H2617     1.0  0.88953  0.03422  0.26551  1.0000
  H   H2618     1.0  0.52590  0.22767  0.32522  1.0000
  N   N111      1.0  0.85794  0.05286  0.27455  1.0000
  H   H2619     1.0  0.75068  0.15886  0.27166  1.0000
  C   C1549     1.0  0.87465  0.03161  0.27389  1.0000
  Fe  Fe224     1.0  0.49435  0.23408  0.37549  1.0000
  C   C1550     1.0  0.86556  0.06872  0.28210  1.0000
  C   C1551     1.0  0.53281  0.20665  0.28780  1.0000
  C   C1552     1.0  0.50480  0.24114  0.43685  1.0000
  C   C1553     1.0  0.80721  0.99501  0.34384  1.0000
  C   C1554     1.0  0.81502  0.19225  0.26108  1.0000
  H   H2620     1.0  0.51379  0.23944  0.44604  1.0000
  H   H2621     1.0  0.83740  0.03910  0.29385  1.0000
  C   C1555     1.0  0.83083  0.03109  0.38132  1.0000
  H   H2622     1.0  0.53055  0.00152  0.44563  1.0000
  C   C1556     1.0  0.78131  0.17393  0.26605  1.0000
  H   H2623     1.0  0.70247  0.29858  0.22785  1.0000
  C   C1557     1.0  0.50043  0.09897  0.39715  1.0000
  H   H2624     1.0  0.86572  0.06193  0.29358  1.0000
  H   H2625     1.0  0.89296  0.98857  0.39408  1.0000
  H   H2626     1.0  0.70316  0.20496  0.25229  1.0000
  C   C1558     1.0  0.64940  0.29160  0.22549  1.0000
  H   H2627     1.0  0.86380  0.29963  0.41586  1.0000
  C   C1559     1.0  0.95512  0.30812  0.39639  1.0000
  H   H2628     1.0  0.90055  0.06384  0.27011  1.0000
  H   H2629     1.0  0.83626  0.19083  0.24047  1.0000
  H   H2630     1.0  0.82324  0.20556  0.26348  1.0000
  H   H2631     1.0  0.82553  0.17612  0.26461  1.0000
  H   H2632     1.0  0.72770  0.30940  0.34762  1.0000
  H   H2633     1.0  0.87946  0.27446  0.39702  1.0000
  H   H2634     1.0  0.49767  0.25912  0.43449  1.0000
  H   H2635     1.0  0.65241  0.31386  0.33983  1.0000
  H   H2636     1.0  0.79459  0.15909  0.26537  1.0000
  H   H2637     1.0  0.74273  0.20981  0.26793  1.0000
  C   C1560     1.0  0.58099  0.01717  0.41005  1.0000
  C   C1561     1.0  0.52238  0.99975  0.42466  1.0000
  H   H2638     1.0  0.51274  0.01699  0.42451  1.0000
  H   H2639     1.0  0.50751  0.98727  0.44619  1.0000
  C   C1562     1.0  0.76175  0.16554  0.27716  1.0000
  Fe  Fe225     1.0  0.52229  0.20040  0.35758  1.0000
  H   H2640     1.0  0.77530  0.19205  0.29125  1.0000
  H   H2641     1.0  0.84152  0.00175  0.35820  1.0000
  H   H2642     1.0  0.49888  0.22920  0.40940  1.0000
  H   H2643     1.0  0.50834  0.18719  0.43090  1.0000
  H   H2644     1.0  0.50900  0.31393  0.41472  1.0000
  C   C1563     1.0  0.51151  0.18159  0.31913  1.0000
  C   C1564     1.0  0.55796  0.01415  0.41921  1.0000
  H   H2645     1.0  0.91294  0.22266  0.36231  1.0000
  C   C1565     1.0  0.80745  0.17148  0.29127  1.0000
  C   C1566     1.0  0.68513  0.23173  0.23809  1.0000
  H   H2646     1.0  0.94103  0.30148  0.41859  1.0000
  H   H2647     1.0  0.77746  0.21688  0.25202  1.0000
  C   C1567     1.0  0.90296  0.18087  0.37412  1.0000
  H   H2648     1.0  0.89432  0.03126  0.29086  1.0000
  H   H2649     1.0  0.50362  0.00780  0.39940  1.0000
  H   H2650     1.0  0.62919  0.31213  0.35455  1.0000
  H   H2651     1.0  0.51333  0.17532  0.30891  1.0000
  H   H2652     1.0  0.83260  0.22160  0.38185  1.0000
  H   H2653     1.0  0.54195  0.21153  0.31281  1.0000
  C   C1568     1.0  0.81578  0.06583  0.28349  1.0000
  H   H2654     1.0  0.51058  0.23785  0.28661  1.0000
  H   H2655     1.0  0.67818  0.30522  0.38700  1.0000
  H   H2656     1.0  0.85537  0.03519  0.24946  1.0000
  C   C1569     1.0  0.52089  0.00125  0.39448  1.0000
  H   H2657     1.0  0.68364  0.25022  0.23573  1.0000
  H   H2658     1.0  0.78679  0.22929  0.26460  1.0000
  C   C1570     1.0  0.52896  0.22648  0.31369  1.0000
  H   H2659     1.0  0.55769  0.24456  0.30808  1.0000
  H   H2660     1.0  0.81829  0.07823  0.28975  1.0000
  H   H2661     1.0  0.79807  0.20715  0.28631  1.0000
  H   H2662     1.0  0.82982  0.19692  0.37521  1.0000
  H   H2663     1.0  0.89404  0.00444  0.28646  1.0000
  C   C1571     1.0  0.50159  0.29337  0.40085  1.0000
  H   H2664     1.0  0.75087  0.17842  0.28289  1.0000
  C   C1572     1.0  0.84619  0.13159  0.23874  1.0000
  C   C1573     1.0  0.51075  0.22119  0.29358  1.0000
  C   C1574     1.0  0.85482  0.99658  0.36507  1.0000
  C   C1575     1.0  0.79212  0.19194  0.28457  1.0000
  H   H2665     1.0  0.90168  0.14444  0.37993  1.0000
  C   C1576     1.0  0.50808  0.27359  0.39486  1.0000
  C   C1577     1.0  0.82626  0.00665  0.38556  1.0000
  H   H2666     1.0  0.50793  0.13203  0.38745  1.0000
  H   H2667     1.0  0.90908  0.26739  0.39259  1.0000
  H   H2668     1.0  0.59301  0.00134  0.41100  1.0000
  H   H2669     1.0  0.89857  0.24036  0.34907  1.0000
  H   H2670     1.0  0.53210  0.02923  0.39990  1.0000
  S   S446      1.0  0.70926  0.29143  0.32811  1.0000
  C   C1578     1.0  0.75342  0.22060  0.27065  1.0000
  C   C1579     1.0  0.49109  0.24533  0.31103  1.0000
  H   H2671     1.0  0.83048  0.03713  0.36980  1.0000
  N   N112      1.0  0.50745  0.22414  0.30901  1.0000
  H   H2672     1.0  0.88593  0.09204  0.26743  1.0000
  H   H2673     1.0  0.86968  0.01752  0.29690  1.0000
  H   H2674     1.0  0.81213  0.07425  0.27285  1.0000
  H   H2675     1.0  0.84580  0.08129  0.25960  1.0000
  C   C1580     1.0  0.87692  0.99798  0.39087  1.0000
  H   H2676     1.0  0.58831  0.02947  0.41415  1.0000
  H   H2677     1.0  0.63695  0.30946  0.38827  1.0000
  H   H2678     1.0  0.55372  0.01076  0.39154  1.0000
  H   H2679     1.0  0.87254  0.06750  0.25343  1.0000
  H   H2680     1.0  0.49435  0.20947  0.44579  1.0000
  C   C1581     1.0  0.51031  0.19640  0.41993  1.0000
  H   H2681     1.0  0.66851  0.22849  0.24439  1.0000
  H   H2682     1.0  0.83059  0.03329  0.27820  1.0000
  H   H2683     1.0  0.86247  0.01189  0.36409  1.0000
  H   H2684     1.0  0.91467  0.30634  0.38680  1.0000
  C   C1582     1.0  0.51441  0.29883  0.41001  1.0000
  H   H2685     1.0  0.56170  0.00700  0.43009  1.0000
  H   H2686     1.0  0.80396  0.17019  0.30303  1.0000
  H   H2687     1.0  0.54822  0.03122  0.41997  1.0000
  H   H2688     1.0  0.54532  0.21741  0.28178  1.0000
  H   H2689     1.0  0.86714  0.01859  0.27061  1.0000
  H   H2690     1.0  0.49642  0.21406  0.29152  1.0000
  H   H2691     1.0  0.81028  0.00658  0.38164  1.0000
  H   H2692     1.0  0.89842  0.28163  0.40734  1.0000
  H   H2693     1.0  0.52920  0.19736  0.27991  1.0000
  H   H2694     1.0  0.88210  0.00841  0.38058  1.0000
  H   H2695     1.0  0.64533  0.21463  0.22850  1.0000
  H   H2696     1.0  0.82764  0.05012  0.25519  1.0000
  H   H2697     1.0  0.84532  0.06181  0.23985  1.0000
  C   C1583     1.0  0.83579  0.04660  0.28266  1.0000
  H   H2698     1.0  0.62390  0.28405  0.24359  1.0000
  S   S447      1.0  0.81255  0.11722  0.22914  1.0000
  N   N113      1.0  0.54420  0.99995  0.41431  1.0000
  H   H2699     1.0  0.87723  0.31301  0.42582  1.0000
  C   C1584     1.0  0.49742  0.12247  0.39576  1.0000
  C   C1585     1.0  0.84541  0.05185  0.25070  1.0000
  H   H2700     1.0  0.75144  0.21964  0.28235  1.0000
  H   H2701     1.0  0.52659  0.20300  0.41742  1.0000
  H   H2702     1.0  0.85403  0.13465  0.22772  1.0000
  C   C1586     1.0  0.64728  0.30629  0.35108  1.0000
  H   H2703     1.0  0.81174  0.21130  0.23957  1.0000
  H   H2704     1.0  0.64943  0.28793  0.35121  1.0000
  H   H2705     1.0  0.57984  0.02399  0.39874  1.0000
  H   H2706     1.0  0.52812  0.18087  0.32229  1.0000
  H   H2707     1.0  0.54066  0.19398  0.29581  1.0000
  N   N114      1.0  0.68960  0.22195  0.22452  1.0000
  H   H2708     1.0  0.51321  0.09048  0.38982  1.0000
  S   S448      1.0  0.77710  0.98699  0.36883  1.0000
  H   H2709     1.0  0.61250  0.31526  0.37947  1.0000
  C   C1587     1.0  0.68881  0.19713  0.22822  1.0000
  Fe  Fe226     1.0  0.97632  0.21255  0.38055  1.0000
  H   H2710     1.0  0.67442  0.19339  0.23676  1.0000
  H   H2711     1.0  0.70396  0.18823  0.23285  1.0000
  H   H2712     1.0  0.51207  0.18370  0.41287  1.0000
  H   H2713     1.0  0.85238  0.30276  0.39589  1.0000
  H   H2714     1.0  0.86882  0.00889  0.39891  1.0000
  H   H2715     1.0  0.52192  0.00661  0.38280  1.0000
  H   H2716     1.0  0.49754  0.26017  0.30411  1.0000
  H   H2717     1.0  0.88047  0.98794  0.34737  1.0000
  H   H2718     1.0  0.50254  0.16968  0.32735  1.0000
  C   C1588     1.0  0.89771  0.30277  0.38635  1.0000
  C   C1589     1.0  0.52448  0.98984  0.44031  1.0000
  H   H2719     1.0  0.85786  0.31240  0.37752  1.0000
  C   C1590     1.0  0.66238  0.31119  0.36085  1.0000
  C   C1591     1.0  0.49079  0.21536  0.41635  1.0000
  C   C1592     1.0  0.86736  0.31611  0.41694  1.0000
  Fe  Fe227     1.0  0.81977  0.23722  0.70470  1.0000
  S   S449      1.0  0.78537  0.23612  0.70022  1.0000
  Fe  Fe228     1.0  0.83923  0.24602  0.67300  1.0000
  S   S450      1.0  0.80636  0.24521  0.66612  1.0000
  S   S451      1.0  0.86805  0.25374  0.65535  1.0000
  Fe  Fe229     1.0  0.79155  0.26598  0.68333  1.0000
  N   N115      1.0  0.90381  0.24436  0.70833  1.0000
  Fe  Fe230     1.0  0.80330  0.21552  0.68349  1.0000
  S   S452      1.0  0.79537  0.18118  0.68290  1.0000
  S   S453      1.0  0.82458  0.26880  0.68920  1.0000
  S   S454      1.0  0.83755  0.21468  0.68898  1.0000
  C   C1593     1.0  0.58410  0.98455  0.58712  1.0000
  H   H2720     1.0  0.55743  0.25894  0.55852  1.0000
  Fe  Fe231     1.0  0.68991  0.13819  0.67007  1.0000
  S   S455      1.0  0.70030  0.10323  0.68134  1.0000
  S   S456      1.0  0.71151  0.16439  0.65866  1.0000
  Fe  Fe232     1.0  0.63987  0.13595  0.67843  1.0000
  S   S457      1.0  0.64652  0.10147  0.69070  1.0000
  S   S458      1.0  0.60309  0.15088  0.67890  1.0000
  Fe  Fe233     1.0  0.67296  0.11385  0.69896  1.0000
  Fe  Fe234     1.0  0.67278  0.09373  0.67198  1.0000
  S   S459      1.0  0.66585  0.06250  0.66500  1.0000
  S   S460      1.0  0.66419  0.14906  0.68823  1.0000
  S   S461      1.0  0.66466  0.12793  0.65923  1.0000
  H   H2721     1.0  0.73174  0.16434  0.70098  1.0000
  Fe  Fe235     1.0  0.53818  0.19069  0.61373  1.0000
  S   S462      1.0  0.53460  0.19824  0.59058  1.0000
  S   S463      1.0  0.57413  0.18202  0.61794  1.0000
  H   H2722     1.0  0.93186  0.20321  0.70319  1.0000
  C   C1594     1.0  0.55732  0.30059  0.53859  1.0000
  H   H2723     1.0  0.97391  0.28259  0.52344  1.0000
  C   C1595     1.0  0.94807  0.31096  0.52625  1.0000
  Fe  Fe236     1.0  0.51031  0.22833  0.59627  1.0000
  S   S464      1.0  0.50933  0.26371  0.58386  1.0000
  C   C1596     1.0  0.56935  0.30030  0.58132  1.0000
  S   S465      1.0  0.51584  0.22211  0.61898  1.0000
  H   H2724     1.0  0.92728  0.22745  0.72275  1.0000
  H   H2725     1.0  0.89709  0.12879  0.64904  1.0000
  C   C1597     1.0  0.60883  0.18414  0.70610  1.0000
  H   H2726     1.0  0.93303  0.27848  0.63042  1.0000
  C   C1598     1.0  0.57049  0.27748  0.58713  1.0000
  C   C1599     1.0  0.55211  0.26619  0.58809  1.0000
  C   C1600     1.0  0.53251  0.27757  0.58306  1.0000
  C   C1601     1.0  0.53125  0.30046  0.57739  1.0000
  H   H2727     1.0  0.92813  0.10910  0.63151  1.0000
  H   H2728     1.0  0.58574  0.26843  0.59083  1.0000
  H   H2729     1.0  0.55325  0.24857  0.59256  1.0000
  H   H2730     1.0  0.56934  0.13632  0.72209  1.0000
  C   C1602     1.0  0.72604  0.15650  0.71208  1.0000
  C   C1603     1.0  0.88420  0.26842  0.68785  1.0000
  C   C1604     1.0  0.68301  0.04468  0.65355  1.0000
  C   C1605     1.0  0.67344  0.02815  0.64956  1.0000
  C   C1606     1.0  0.68638  0.01334  0.64064  1.0000
  C   C1607     1.0  0.70925  0.01447  0.63600  1.0000
  C   C1608     1.0  0.71883  0.03101  0.63995  1.0000
  C   C1609     1.0  0.70576  0.04616  0.64863  1.0000
  H   H2731     1.0  0.65590  0.02675  0.65342  1.0000
  H   H2732     1.0  0.73651  0.03206  0.63633  1.0000
  H   H2733     1.0  0.71333  0.05878  0.65165  1.0000
  C   C1610     1.0  0.59470  0.16127  0.66215  1.0000
  C   C1611     1.0  0.61070  0.16567  0.65003  1.0000
  C   C1612     1.0  0.60395  0.17289  0.63665  1.0000
  C   C1613     1.0  0.58119  0.17557  0.63521  1.0000
  C   C1614     1.0  0.56505  0.17167  0.64736  1.0000
  C   C1615     1.0  0.57181  0.16462  0.66083  1.0000
  H   H2734     1.0  0.62829  0.16365  0.65096  1.0000
  H   H2735     1.0  0.61648  0.17614  0.62731  1.0000
  H   H2736     1.0  0.54747  0.17367  0.64634  1.0000
  H   H2737     1.0  0.55934  0.16130  0.67017  1.0000
  C   C1616     1.0  0.91109  0.13337  0.65325  1.0000
  S   S466      1.0  0.72656  0.99510  0.62569  1.0000
  H   H2738     1.0  0.72039  0.12742  0.70430  1.0000
  H   H2739     1.0  0.90748  0.18663  0.61892  1.0000
  C   C1617     1.0  0.77157  0.17711  0.67641  1.0000
  C   C1618     1.0  0.75798  0.19492  0.66940  1.0000
  C   C1619     1.0  0.73943  0.19085  0.66413  1.0000
  C   C1620     1.0  0.73396  0.16913  0.66622  1.0000
  C   C1621     1.0  0.74723  0.15143  0.67356  1.0000
  C   C1622     1.0  0.76616  0.15537  0.67844  1.0000
  H   H2740     1.0  0.76205  0.21171  0.66774  1.0000
  H   H2741     1.0  0.72933  0.20458  0.65835  1.0000
  H   H2742     1.0  0.74333  0.13460  0.67504  1.0000
  H   H2743     1.0  0.77668  0.14151  0.68379  1.0000
  H   H2744     1.0  0.61389  0.29542  0.52522  1.0000
  H   H2745     1.0  0.88475  0.19306  0.72095  1.0000
  H   H2746     1.0  0.72436  0.20127  0.69949  1.0000
  H   H2747     1.0  0.57952  0.15534  0.70733  1.0000
  S   S467      1.0  0.96671  0.20059  0.65515  1.0000
  C   C1623     1.0  0.89480  0.23746  0.65526  1.0000
  C   C1624     1.0  0.90035  0.22202  0.66711  1.0000
  C   C1625     1.0  0.92254  0.21080  0.66704  1.0000
  C   C1626     1.0  0.93902  0.21459  0.65500  1.0000
  C   C1627     1.0  0.93320  0.22935  0.64297  1.0000
  C   C1628     1.0  0.91114  0.24078  0.64314  1.0000
  H   H2748     1.0  0.88765  0.21908  0.67636  1.0000
  H   H2749     1.0  0.92694  0.19913  0.67630  1.0000
  H   H2750     1.0  0.94575  0.23206  0.63358  1.0000
  H   H2751     1.0  0.90661  0.25223  0.63386  1.0000
  C   C1629     1.0  0.73448  0.20387  0.70725  1.0000
  C   C1630     1.0  0.49380  0.10097  0.53812  1.0000
  H   H2752     1.0  0.58835  0.29905  0.50267  1.0000
  C   C1631     1.0  0.72910  0.18919  0.72191  1.0000
  C   C1632     1.0  0.52924  0.98712  0.57766  1.0000
  C   C1633     1.0  0.97823  0.30548  0.56559  1.0000
  H   H2753     1.0  0.88764  0.29296  0.62131  1.0000
  H   H2754     1.0  0.67877  0.00098  0.63740  1.0000
  C   C1634     1.0  0.53670  0.28896  0.53905  1.0000
  S   S468      1.0  0.97823  0.24134  0.58540  1.0000
  H   H2755     1.0  0.61771  0.13800  0.70715  1.0000
  H   H2756     1.0  0.91952  0.27173  0.61071  1.0000
  C   C1635     1.0  0.92728  0.23523  0.71147  1.0000
  H   H2757     1.0  0.54220  0.17064  0.71827  1.0000
  H   H2758     1.0  0.66680  0.15336  0.71705  1.0000
  H   H2759     1.0  0.94217  0.31009  0.51624  1.0000
  H   H2760     1.0  0.51268  0.26926  0.61302  1.0000
  S   S469      1.0  0.67620  0.10456  0.72238  1.0000
  C   C1636     1.0  0.61463  0.13362  0.71894  1.0000
  H   H2761     1.0  0.67588  0.01234  0.68207  1.0000
  H   H2762     1.0  0.61485  0.08382  0.66058  1.0000
  H   H2763     1.0  0.83141  0.98734  0.60327  1.0000
  C   C1637     1.0  0.53310  0.28044  0.62527  1.0000
  C   C1638     1.0  0.60905  0.10947  0.72207  1.0000
  H   H2764     1.0  0.73469  0.30633  0.65320  1.0000
  H   H2765     1.0  0.57306  0.27787  0.50118  1.0000
  H   H2766     1.0  0.52444  0.29177  0.54883  1.0000
  H   H2767     1.0  0.63246  0.04869  0.63217  1.0000
  H   H2768     1.0  0.63991  0.06625  0.64218  1.0000
  H   H2769     1.0  0.98949  0.99313  0.52439  1.0000
  Fe  Fe237     1.0  0.50518  0.17905  0.59699  1.0000
  H   H2770     1.0  0.51785  0.00006  0.58329  1.0000
  H   H2771     1.0  0.87337  0.25616  0.68722  1.0000
  C   C1639     1.0  0.96032  0.14127  0.65119  1.0000
  C   C1640     1.0  0.96678  0.27511  0.61935  1.0000
  H   H2772     1.0  0.80818  0.29967  0.66179  1.0000
  H   H2773     1.0  0.89352  0.20577  0.63065  1.0000
  H   H2774     1.0  0.59877  0.26566  0.51981  1.0000
  C   C1641     1.0  0.97269  0.29950  0.52637  1.0000
  C   C1642     1.0  0.94389  0.28985  0.62318  1.0000
  H   H2775     1.0  0.55884  0.30052  0.51015  1.0000
  H   H2776     1.0  0.57066  0.26162  0.52542  1.0000
  H   H2777     1.0  0.92340  0.11778  0.65437  1.0000
  H   H2778     1.0  0.88832  0.27739  0.67682  1.0000
  H   H2779     1.0  0.54198  0.99625  0.57042  1.0000
  H   H2780     1.0  0.96527  0.26149  0.61372  1.0000
  H   H2781     1.0  0.89827  0.27776  0.71393  1.0000
  C   C1643     1.0  0.92715  0.28532  0.60312  1.0000
  S   S470      1.0  0.97278  0.19296  0.61553  1.0000
  C   C1644     1.0  0.57500  0.28913  0.50844  1.0000
  H   H2782     1.0  0.87465  0.28106  0.69439  1.0000
  H   H2783     1.0  0.53247  0.29313  0.63211  1.0000
  H   H2784     1.0  0.76697  0.16455  0.70667  1.0000
  C   C1645     1.0  0.88966  0.22622  0.70948  1.0000
  H   H2785     1.0  0.96864  0.14614  0.65915  1.0000
  H   H2786     1.0  0.70752  0.16187  0.71402  1.0000
  H   H2787     1.0  0.89959  0.30881  0.59338  1.0000
  C   C1646     1.0  0.93982  0.15913  0.64836  1.0000
  H   H2788     1.0  0.59258  0.18888  0.70204  1.0000
  H   H2789     1.0  0.93363  0.16702  0.65808  1.0000
  H   H2790     1.0  0.51610  0.30941  0.57353  1.0000
  H   H2791     1.0  0.94712  0.11945  0.61637  1.0000
  H   H2792     1.0  0.97504  0.29645  0.53772  1.0000
  H   H2793     1.0  0.67199  0.11020  0.62232  1.0000
  H   H2794     1.0  0.50313  0.11210  0.57328  1.0000
  C   C1647     1.0  0.90181  0.13820  0.66851  1.0000
  H   H2795     1.0  0.51594  0.29744  0.60811  1.0000
  H   H2796     1.0  0.94683  0.17280  0.64062  1.0000
  C   C1648     1.0  0.90625  0.25659  0.69317  1.0000
  H   H2797     1.0  0.56111  0.18773  0.72099  1.0000
  H   H2798     1.0  0.89545  0.12307  0.67505  1.0000
  C   C1649     1.0  0.94037  0.12106  0.62769  1.0000
  H   H2799     1.0  0.59633  0.99540  0.58078  1.0000
  C   C1650     1.0  0.92892  0.14544  0.62842  1.0000
  H   H2800     1.0  0.92317  0.19747  0.62939  1.0000
  H   H2801     1.0  0.97977  0.28499  0.61300  1.0000
  H   H2802     1.0  0.73314  0.29510  0.63761  1.0000
  H   H2803     1.0  0.95480  0.11593  0.63350  1.0000
  H   H2804     1.0  0.85497  0.98544  0.56482  1.0000
  H   H2805     1.0  0.89848  0.17971  0.65171  1.0000
  H   H2806     1.0  0.96227  0.30591  0.59484  1.0000
  H   H2807     1.0  0.88737  0.15202  0.66879  1.0000
  H   H2808     1.0  0.94286  0.27619  0.59776  1.0000
  C   C1651     1.0  0.54953  0.31185  0.57663  1.0000
  H   H2809     1.0  0.79935  0.00127  0.59042  1.0000
  H   H2810     1.0  0.65878  0.08980  0.61753  1.0000
  H   H2811     1.0  0.93732  0.24917  0.70995  1.0000
  H   H2812     1.0  0.59235  0.10318  0.66806  1.0000
  C   C1652     1.0  0.90726  0.19137  0.62944  1.0000
  N   N116      1.0  0.92103  0.15209  0.64302  1.0000
  H   H2813     1.0  0.97276  0.14015  0.64128  1.0000
  H   H2814     1.0  0.94080  0.15655  0.62182  1.0000
  H   H2815     1.0  0.97316  0.26683  0.62936  1.0000
  H   H2816     1.0  0.93699  0.30191  0.53504  1.0000
  H   H2817     1.0  0.61262  0.05723  0.64721  1.0000
  H   H2818     1.0  0.91507  0.14183  0.67374  1.0000
  C   C1653     1.0  0.97298  0.28373  0.57038  1.0000
  H   H2819     1.0  0.76680  0.30927  0.63104  1.0000
  C   C1654     1.0  0.51249  0.28459  0.61756  1.0000
  C   C1655     1.0  0.76222  0.15911  0.71825  1.0000
  H   H2820     1.0  0.89503  0.21677  0.70038  1.0000
  H   H2821     1.0  0.98475  0.09501  0.51232  1.0000
  H   H2822     1.0  0.91443  0.14768  0.62257  1.0000
  H   H2823     1.0  0.82927  0.27389  0.72271  1.0000
  H   H2824     1.0  0.66181  0.99224  0.67782  1.0000
  C   C1656     1.0  0.89233  0.26126  0.71792  1.0000
  H   H2825     1.0  0.49595  0.30892  0.64194  1.0000
  H   H2826     1.0  0.61605  0.19981  0.70497  1.0000
  C   C1657     1.0  0.89339  0.30485  0.62663  1.0000
  C   C1658     1.0  0.80823  0.98393  0.58987  1.0000
  H   H2827     1.0  0.62063  0.17341  0.69914  1.0000
  H   H2828     1.0  0.95597  0.12453  0.65597  1.0000
  H   H2829     1.0  0.67207  0.98771  0.69468  1.0000
  H   H2830     1.0  0.76797  0.14072  0.71995  1.0000
  N   N117      1.0  0.93258  0.30236  0.61079  1.0000
  H   H2831     1.0  0.95688  0.21065  0.70668  1.0000
  H   H2832     1.0  0.91752  0.26949  0.69165  1.0000
  N   N118      1.0  0.58038  0.28772  0.53443  1.0000
  S   S471      1.0  0.76539  0.29676  0.68012  1.0000
  C   C1659     1.0  0.58827  0.27196  0.54707  1.0000
  C   C1660     1.0  0.58146  0.27489  0.52243  1.0000
  H   H2833     1.0  0.75959  0.31249  0.60834  1.0000
  C   C1661     1.0  0.57478  0.25266  0.55370  1.0000
  H   H2834     1.0  0.87389  0.26459  0.71779  1.0000
  H   H2835     1.0  0.60097  0.10629  0.71345  1.0000
  H   H2836     1.0  0.61860  0.11226  0.66061  1.0000
  H   H2837     1.0  0.60615  0.26429  0.54424  1.0000
  H   H2838     1.0  0.58790  0.28117  0.55597  1.0000
  N   N119      1.0  0.73708  0.16436  0.72254  1.0000
  C   C1662     1.0  0.90252  0.17204  0.64181  1.0000
  H   H2839     1.0  0.95841  0.27913  0.56750  1.0000
  H   H2840     1.0  0.54020  0.27068  0.53928  1.0000
  H   H2841     1.0  0.88659  0.16681  0.64054  1.0000
  H   H2842     1.0  0.57464  0.24126  0.54615  1.0000
  H   H2843     1.0  0.58286  0.24231  0.56263  1.0000
  S   S472      1.0  0.51060  0.16943  0.61984  1.0000
  H   H2844     1.0  0.53495  0.26341  0.63168  1.0000
  H   H2845     1.0  0.91433  0.24502  0.68554  1.0000
  N   N120      1.0  0.61441  0.10591  0.63144  1.0000
  C   C1663     1.0  0.60624  0.12271  0.61924  1.0000
  C   C1664     1.0  0.63729  0.11053  0.63269  1.0000
  C   C1665     1.0  0.59798  0.10947  0.64488  1.0000
  C   C1666     1.0  0.61514  0.08285  0.62802  1.0000
  C   C1667     1.0  0.58142  0.12374  0.61758  1.0000
  C   C1668     1.0  0.65592  0.10719  0.61980  1.0000
  C   C1669     1.0  0.60673  0.10148  0.65921  1.0000
  C   C1670     1.0  0.62545  0.06284  0.63813  1.0000
  H   H2846     1.0  0.60833  0.13994  0.62018  1.0000
  H   H2847     1.0  0.61647  0.11945  0.60886  1.0000
  H   H2848     1.0  0.64398  0.09997  0.64203  1.0000
  H   H2849     1.0  0.63605  0.12804  0.63465  1.0000
  H   H2850     1.0  0.59159  0.12761  0.64477  1.0000
  H   H2851     1.0  0.58282  0.10148  0.64550  1.0000
  H   H2852     1.0  0.59786  0.07967  0.62796  1.0000
  H   H2853     1.0  0.62381  0.08137  0.61697  1.0000
  H   H2854     1.0  0.57781  0.10762  0.61574  1.0000
  H   H2855     1.0  0.56950  0.12950  0.62678  1.0000
  H   H2856     1.0  0.57783  0.13633  0.60811  1.0000
  H   H2857     1.0  0.65246  0.11934  0.61016  1.0000
  H   H2858     1.0  0.71102  0.98546  0.68293  1.0000
  S   S473      1.0  0.50444  0.15240  0.58361  1.0000
  S   S474      1.0  0.59343  0.31329  0.57953  1.0000
  H   H2859     1.0  0.95238  0.99710  0.56290  1.0000
  H   H2860     1.0  0.94576  0.22484  0.69119  1.0000
  H   H2861     1.0  0.90215  0.28077  0.59109  1.0000
  C   C1671     1.0  0.59693  0.30415  0.52928  1.0000
  C   C1672     1.0  0.60607  0.17308  0.72190  1.0000
  H   H2862     1.0  0.50524  0.08472  0.53929  1.0000
  H   H2863     1.0  0.94673  0.30173  0.62982  1.0000
  H   H2864     1.0  0.72620  0.31146  0.59952  1.0000
  H   H2865     1.0  0.98510  0.30044  0.49844  1.0000
  C   C1673     1.0  0.67569  0.99405  0.68310  1.0000
  H   H2866     1.0  0.50081  0.26884  0.64513  1.0000
  H   H2867     1.0  0.75260  0.20114  0.70271  1.0000
  H   H2868     1.0  0.63138  0.13331  0.72185  1.0000
  H   H2869     1.0  0.79486  0.16468  0.72117  1.0000
  C   C1674     1.0  0.73297  0.31080  0.64174  1.0000
  C   C1675     1.0  0.94090  0.21754  0.70251  1.0000
  C   C1676     1.0  0.73023  0.13100  0.71193  1.0000
  H   H2870     1.0  0.89877  0.29601  0.63680  1.0000
  H   H2871     1.0  0.62489  0.09743  0.72272  1.0000
  C   C1677     1.0  0.57598  0.15256  0.71918  1.0000
  C   C1678     1.0  0.91217  0.29393  0.59147  1.0000
  H   H2872     1.0  0.87194  0.23370  0.70843  1.0000
  H   H2873     1.0  0.52770  0.29681  0.52998  1.0000
  H   H2874     1.0  0.70327  0.99341  0.66576  1.0000
  H   H2875     1.0  0.98379  0.08873  0.53114  1.0000
  H   H2876     1.0  0.55598  0.30557  0.54918  1.0000
  C   C1679     1.0  0.88802  0.20903  0.72334  1.0000
  H   H2877     1.0  0.50385  0.11342  0.53127  1.0000
  H   H2878     1.0  0.71668  0.31282  0.61794  1.0000
  H   H2879     1.0  0.87157  0.99617  0.59487  1.0000
  H   H2880     1.0  0.92261  0.29753  0.58085  1.0000
  C   C1680     1.0  0.69890  0.98300  0.67630  1.0000
  H   H2881     1.0  0.61015  0.30768  0.54830  1.0000
  H   H2882     1.0  0.88262  0.98636  0.57805  1.0000
  H   H2883     1.0  0.74816  0.12488  0.70816  1.0000
  C   C1681     1.0  0.98788  0.98520  0.56271  1.0000
  H   H2884     1.0  0.73001  0.22180  0.70849  1.0000
  H   H2885     1.0  0.56864  0.99575  0.59086  1.0000
  H   H2886     1.0  0.83992  0.99587  0.58490  1.0000
  Fe  Fe238     1.0  0.98808  0.19859  0.63351  1.0000
  C   C1682     1.0  0.98623  0.26801  0.57909  1.0000
  H   H2887     1.0  0.54863  0.28114  0.61721  1.0000
  H   H2888     1.0  0.72450  0.12120  0.72242  1.0000
  C   C1683     1.0  0.79799  0.31603  0.66061  1.0000
  Fe  Fe239     1.0  0.83988  0.27202  0.82241  1.0000
  S   S475      1.0  0.85787  0.25370  0.84074  1.0000
  Fe  Fe240     1.0  0.79318  0.28021  0.81408  1.0000
  S   S476      1.0  0.75754  0.27204  0.81846  1.0000
  S   S477      1.0  0.82468  0.25680  0.80764  1.0000
  H   H2889     1.0  0.49140  0.02020  0.92127  1.0000
  H   H2890     1.0  0.62299  0.15121  0.74727  1.0000
  S   S478      1.0  0.51724  0.03071  0.94439  1.0000
  C   C1684     1.0  0.89544  0.25560  0.73371  1.0000
  S   S479      1.0  0.57223  0.02825  0.93932  1.0000
  C   C1685     1.0  0.95925  0.99955  0.97320  1.0000
  Fe  Fe241     1.0  0.54468  0.02098  0.95778  1.0000
  Fe  Fe242     1.0  0.54487  0.03468  0.92574  1.0000
  S   S480      1.0  0.54243  0.06080  0.90593  1.0000
  H   H2891     1.0  0.73453  0.23738  0.75069  1.0000
  S   S481      1.0  0.54870  0.99894  0.92216  1.0000
  C   C1686     1.0  0.52447  0.10305  0.89452  1.0000
  Fe  Fe243     1.0  0.68021  0.13298  0.81121  1.0000
  S   S482      1.0  0.64871  0.15338  0.80402  1.0000
  S   S483      1.0  0.67636  0.09797  0.82281  1.0000
  Fe  Fe244     1.0  0.70594  0.17291  0.80320  1.0000
  S   S484      1.0  0.67644  0.19639  0.79572  1.0000
  S   S485      1.0  0.74061  0.18254  0.80115  1.0000
  Fe  Fe245     1.0  0.65563  0.17958  0.81513  1.0000
  S   S486      1.0  0.62973  0.19720  0.83106  1.0000
  Fe  Fe246     1.0  0.67207  0.16814  0.78518  1.0000
  S   S487      1.0  0.66486  0.17776  0.76251  1.0000
  S   S488      1.0  0.68569  0.15833  0.82356  1.0000
  S   S489      1.0  0.70304  0.14554  0.79138  1.0000
  S   S490      1.0  0.51364  0.20009  0.87933  1.0000
  Fe  Fe247     1.0  0.50291  0.19739  0.85888  1.0000
  S   S491      1.0  0.52691  0.18565  0.83987  1.0000
  H   H2892     1.0  0.61538  0.25967  0.84285  1.0000
  S   S492      1.0  0.75651  0.01739  0.83050  1.0000
  C   C1687     1.0  0.51154  0.12438  0.89501  1.0000
  Fe  Fe248     1.0  0.87359  0.02891  0.91785  1.0000
  S   S493      1.0  0.90479  0.03226  0.90162  1.0000
  S   S494      1.0  0.83923  0.03105  0.91069  1.0000
  Fe  Fe249     1.0  0.89909  0.03089  0.94227  1.0000
  S   S495      1.0  0.93176  0.03460  0.92741  1.0000
  C   C1688     1.0  0.57975  0.25845  0.84437  1.0000
  Fe  Fe250     1.0  0.91088  0.05893  0.91284  1.0000
  S   S496      1.0  0.92377  0.08816  0.89697  1.0000
  Fe  Fe251     1.0  0.92341  0.00781  0.91732  1.0000
  C   C1689     1.0  0.94921  0.98350  0.95470  1.0000
  S   S497      1.0  0.87841  0.05732  0.92837  1.0000
  S   S498      1.0  0.89194  0.00234  0.93290  1.0000
  C   C1690     1.0  0.73110  0.98762  0.91105  1.0000
  S   S499      1.0  0.95624  0.23900  0.88460  1.0000
  S   S500      1.0  0.96196  0.24838  0.84251  1.0000
  S   S501      1.0  0.49804  0.26616  0.88071  1.0000
  H   H2893     1.0  0.83697  0.29792  0.73866  1.0000
  H   H2894     1.0  0.80520  0.05926  0.85892  1.0000
  H   H2895     1.0  0.97924  0.99296  0.92940  1.0000
  C   C1691     1.0  0.83062  0.24413  0.73849  1.0000
  H   H2896     1.0  0.66984  0.99207  0.93817  1.0000
  C   C1692     1.0  0.93244  0.11227  0.90034  1.0000
  C   C1693     1.0  0.92938  0.11764  0.91403  1.0000
  C   C1694     1.0  0.93493  0.13799  0.91598  1.0000
  C   C1695     1.0  0.94368  0.15303  0.90430  1.0000
  C   C1696     1.0  0.94699  0.14751  0.89064  1.0000
  C   C1697     1.0  0.94151  0.12716  0.88869  1.0000
  H   H2897     1.0  0.92230  0.10637  0.92306  1.0000
  H   H2898     1.0  0.95329  0.15915  0.88155  1.0000
  H   H2899     1.0  0.94380  0.12312  0.87807  1.0000
  C   C1698     1.0  0.61243  0.13780  0.74913  1.0000
  N   N121      1.0  0.75798  0.24614  0.76238  1.0000
  C   C1699     1.0  0.80537  0.01858  0.90014  1.0000
  C   C1700     1.0  0.82624  0.01133  0.90495  1.0000
  H   H2900     1.0  0.51055  0.13640  0.88534  1.0000
  H   H2901     1.0  0.77335  0.23699  0.73357  1.0000
  H   H2902     1.0  0.76750  0.01188  0.92549  1.0000
  H   H2903     1.0  0.79768  0.03589  0.90005  1.0000
  H   H2904     1.0  0.75912  0.20795  0.75063  1.0000
  H   H2905     1.0  0.74846  0.24882  0.78483  1.0000
  H   H2906     1.0  0.50710  0.01497  0.88666  1.0000
  S   S502      1.0  0.80745  0.29333  0.83010  1.0000
  C   C1701     1.0  0.69955  0.07665  0.82515  1.0000
  C   C1702     1.0  0.69614  0.05756  0.83530  1.0000
  C   C1703     1.0  0.71374  0.03973  0.83719  1.0000
  C   C1704     1.0  0.73482  0.04051  0.82867  1.0000
  C   C1705     1.0  0.73842  0.05971  0.81860  1.0000
  C   C1706     1.0  0.72085  0.07787  0.81691  1.0000
  H   H2907     1.0  0.67978  0.05645  0.84171  1.0000
  H   H2908     1.0  0.71081  0.02525  0.84511  1.0000
  H   H2909     1.0  0.75471  0.06047  0.81200  1.0000
  H   H2910     1.0  0.72362  0.09252  0.80903  1.0000
  C   C1707     1.0  0.60161  0.19249  0.83354  1.0000
  C   C1708     1.0  0.58801  0.19422  0.84678  1.0000
  C   C1709     1.0  0.56526  0.19139  0.84895  1.0000
  C   C1710     1.0  0.55583  0.18738  0.83780  1.0000
  C   C1711     1.0  0.56962  0.18497  0.82468  1.0000
  C   C1712     1.0  0.59249  0.18744  0.82256  1.0000
  H   H2911     1.0  0.59514  0.19762  0.85540  1.0000
  H   H2912     1.0  0.55498  0.19233  0.85924  1.0000
  H   H2913     1.0  0.56249  0.18165  0.81603  1.0000
  H   H2914     1.0  0.60288  0.18604  0.81231  1.0000
  H   H2915     1.0  0.69312  0.98828  0.94736  1.0000
  H   H2916     1.0  0.74085  0.13553  0.73936  1.0000
  C   C1713     1.0  0.66592  0.16390  0.73717  1.0000
  C   C1714     1.0  0.66808  0.15716  0.75158  1.0000
  C   C1715     1.0  0.67291  0.13434  0.75688  1.0000
  C   C1716     1.0  0.67543  0.11839  0.74780  1.0000
  H   H2917     1.0  0.78783  0.25811  0.74980  1.0000
  H   H2918     1.0  0.67467  0.12898  0.76797  1.0000
  H   H2919     1.0  0.67912  0.10074  0.75197  1.0000
  C   C1717     1.0  0.52602  0.08739  0.90702  1.0000
  C   C1718     1.0  0.51425  0.09303  0.92001  1.0000
  C   C1719     1.0  0.63270  0.99135  0.86881  1.0000
  H   H2920     1.0  0.90255  0.30123  0.84033  1.0000
  S   S503      1.0  0.84611  0.28853  0.76732  1.0000
  H   H2921     1.0  0.83077  0.00872  0.87242  1.0000
  H   H2922     1.0  0.51533  0.08113  0.92971  1.0000
  H   H2923     1.0  0.94704  0.01469  0.97015  1.0000
  H   H2924     1.0  0.74796  0.98988  0.90473  1.0000
  H   H2925     1.0  0.72261  0.05312  0.89477  1.0000
  H   H2926     1.0  0.82596  0.06749  0.83890  1.0000
  C   C1720     1.0  0.73453  0.24445  0.76038  1.0000
  H   H2927     1.0  0.69768  0.04256  0.90402  1.0000
  C   C1721     1.0  0.55720  0.30575  0.84891  1.0000
  C   C1722     1.0  0.83563  0.28047  0.74264  1.0000
  H   H2928     1.0  0.72411  0.15209  0.76006  1.0000
  H   H2929     1.0  0.87387  0.21494  0.73141  1.0000
  C   C1723     1.0  0.75287  0.24642  0.81458  1.0000
  C   C1724     1.0  0.73074  0.24226  0.81558  1.0000
  C   C1725     1.0  0.72665  0.22247  0.81185  1.0000
  C   C1726     1.0  0.74470  0.20672  0.80709  1.0000
  C   C1727     1.0  0.76677  0.21073  0.80634  1.0000
  C   C1728     1.0  0.77084  0.23044  0.81006  1.0000
  H   H2930     1.0  0.71673  0.25448  0.81911  1.0000
  H   H2931     1.0  0.70956  0.21952  0.81250  1.0000
  H   H2932     1.0  0.78083  0.19859  0.80272  1.0000
  H   H2933     1.0  0.78792  0.23329  0.80934  1.0000
  C   C1729     1.0  0.83830  0.27161  0.75681  1.0000
  C   C1730     1.0  0.83670  0.24903  0.76185  1.0000
  C   C1731     1.0  0.83317  0.23529  0.75266  1.0000
  S   S504      1.0  0.98689  0.19695  0.86928  1.0000
  H   H2934     1.0  0.78929  0.20636  0.74821  1.0000
  H   H2935     1.0  0.72950  0.21266  0.77478  1.0000
  H   H2936     1.0  0.83903  0.24198  0.77268  1.0000
  H   H2937     1.0  0.83254  0.21769  0.75654  1.0000
  Fe  Fe252     1.0  0.83373  0.28623  0.79112  1.0000
  C   C1732     1.0  0.76961  0.25980  0.74936  1.0000
  C   C1733     1.0  0.88674  0.25336  0.84090  1.0000
  C   C1734     1.0  0.90164  0.25970  0.82856  1.0000
  C   C1735     1.0  0.92469  0.25828  0.82919  1.0000
  C   C1736     1.0  0.93292  0.25049  0.84211  1.0000
  C   C1737     1.0  0.91789  0.24463  0.85448  1.0000
  C   C1738     1.0  0.89490  0.24628  0.85387  1.0000
  H   H2938     1.0  0.89553  0.26528  0.81851  1.0000
  H   H2939     1.0  0.93624  0.26291  0.81958  1.0000
  H   H2940     1.0  0.92399  0.23885  0.86450  1.0000
  H   H2941     1.0  0.88336  0.24211  0.86350  1.0000
  H   H2942     1.0  0.60489  0.23888  0.85712  1.0000
  N   N122      1.0  0.59711  0.15106  0.72535  1.0000
  C   C1739     1.0  0.77755  0.26505  0.77750  1.0000
  C   C1740     1.0  0.49205  0.04734  0.89369  1.0000
  H   H2943     1.0  0.98723  0.11023  0.89758  1.0000
  H   H2944     1.0  0.69169  0.02313  0.92988  1.0000
  Fe  Fe253     1.0  0.57392  0.99219  0.93713  1.0000
  C   C1741     1.0  0.66844  0.14795  0.72812  1.0000
  H   H2945     1.0  0.60653  0.13441  0.76079  1.0000
  H   H2946     1.0  0.74356  0.27457  0.77325  1.0000
  H   H2947     1.0  0.90185  0.31551  0.86926  1.0000
  H   H2948     1.0  0.77519  0.16283  0.73726  1.0000
  C   C1742     1.0  0.49987  0.13009  0.90802  1.0000
  H   H2949     1.0  0.98701  0.13049  0.87439  1.0000
  H   H2950     1.0  0.71270  0.14727  0.73808  1.0000
  C   C1743     1.0  0.53680  0.24447  0.83892  1.0000
  H   H2951     1.0  0.71817  0.02636  0.89239  1.0000
  H   H2952     1.0  0.55199  0.23863  0.83155  1.0000
  C   C1744     1.0  0.76779  0.25475  0.73467  1.0000
  H   H2953     1.0  0.85079  0.01139  0.85664  1.0000
  H   H2954     1.0  0.49219  0.11862  0.93057  1.0000
  H   H2955     1.0  0.90360  0.20449  0.72806  1.0000
  C   C1745     1.0  0.73492  0.99962  0.93380  1.0000
  Fe  Fe254     1.0  0.52283  0.99460  0.94179  1.0000
  C   C1746     1.0  0.71591  0.03761  0.90036  1.0000
  C   C1747     1.0  0.64029  0.00855  0.90241  1.0000
  S   S505      1.0  0.94891  0.17906  0.90715  1.0000
  H   H2956     1.0  0.98586  0.14766  0.85047  1.0000
  C   C1748     1.0  0.77691  0.16943  0.72574  1.0000
  C   C1749     1.0  0.72877  0.02715  0.91287  1.0000
  N   N123      1.0  0.81647  0.02561  0.85362  1.0000
  H   H2957     1.0  0.97011  0.02040  0.94721  1.0000
  C   C1750     1.0  0.79849  0.04366  0.85907  1.0000
  C   C1751     1.0  0.90680  0.30451  0.86106  1.0000
  C   C1752     1.0  0.82545  0.03161  0.83801  1.0000
  C   C1753     1.0  0.80578  0.00474  0.85544  1.0000
  C   C1754     1.0  0.77815  0.05066  0.85107  1.0000
  H   H2958     1.0  0.78530  0.27670  0.76849  1.0000
  C   C1755     1.0  0.83522  0.05373  0.83327  1.0000
  H   H2959     1.0  0.55015  0.16721  0.73545  1.0000
  H   H2960     1.0  0.54361  0.31026  0.84231  1.0000
  H   H2961     1.0  0.84673  0.05365  0.85847  1.0000
  H   H2962     1.0  0.79185  0.03828  0.87049  1.0000
  H   H2963     1.0  0.89051  0.23929  0.73903  1.0000
  H   H2964     1.0  0.74322  0.17050  0.75053  1.0000
  S   S506      1.0  0.89817  0.02270  0.96645  1.0000
  H   H2965     1.0  0.86444  0.28807  0.85601  1.0000
  H   H2966     1.0  0.72559  0.03980  0.92016  1.0000
  H   H2967     1.0  0.53261  0.23059  0.84757  1.0000
  H   H2968     1.0  0.58129  0.27096  0.83444  1.0000
  H   H2969     1.0  0.78316  0.05634  0.83952  1.0000
  H   H2970     1.0  0.76791  0.03705  0.85266  1.0000
  H   H2971     1.0  0.76690  0.06494  0.85542  1.0000
  H   H2972     1.0  0.79008  0.25013  0.78021  1.0000
  H   H2973     1.0  0.83929  0.01841  0.83453  1.0000
  C   C1756     1.0  0.62340  0.00025  0.91295  1.0000
  H   H2974     1.0  0.74696  0.02598  0.90829  1.0000
  Fe  Fe255     1.0  0.74670  0.99107  0.84916  1.0000
  H   H2975     1.0  0.83369  0.05995  0.82190  1.0000
  H   H2976     1.0  0.62287  0.12214  0.74614  1.0000
  H   H2977     1.0  0.81266  0.03156  0.83121  1.0000
  C   C1757     1.0  0.79445  0.00372  0.89537  1.0000
  N   N124      1.0  0.88178  0.17476  0.88329  1.0000
  C   C1758     1.0  0.88171  0.15521  0.89538  1.0000
  C   C1759     1.0  0.89197  0.19257  0.88757  1.0000
  C   C1760     1.0  0.89612  0.16671  0.87013  1.0000
  C   C1761     1.0  0.85772  0.18269  0.88100  1.0000
  C   C1762     1.0  0.87489  0.13374  0.89243  1.0000
  C   C1763     1.0  0.88028  0.20108  0.90151  1.0000
  C   C1764     1.0  0.90895  0.18375  0.85926  1.0000
  C   C1765     1.0  0.85312  0.20481  0.87081  1.0000
  H   H2978     1.0  0.89857  0.15050  0.89867  1.0000
  H   H2979     1.0  0.87000  0.15972  0.90504  1.0000
  H   H2980     1.0  0.89249  0.20755  0.87917  1.0000
  H   H2981     1.0  0.90989  0.18627  0.88880  1.0000
  H   H2982     1.0  0.90960  0.15279  0.87311  1.0000
  H   H2983     1.0  0.88597  0.15949  0.86423  1.0000
  H   H2984     1.0  0.85125  0.16994  0.87677  1.0000
  H   H2985     1.0  0.84651  0.18471  0.89131  1.0000
  H   H2986     1.0  0.88639  0.12663  0.88354  1.0000
  H   H2987     1.0  0.87600  0.12064  0.90202  1.0000
  H   H2988     1.0  0.85728  0.13641  0.89045  1.0000
  H   H2989     1.0  0.88814  0.21541  0.90270  1.0000
  H   H2990     1.0  0.86210  0.20717  0.90153  1.0000
  H   H2991     1.0  0.88288  0.18811  0.91097  1.0000
  H   H2992     1.0  0.91681  0.17607  0.84965  1.0000
  H   H2993     1.0  0.92287  0.18803  0.86362  1.0000
  H   H2994     1.0  0.89805  0.19933  0.85562  1.0000
  H   H2995     1.0  0.85698  0.21918  0.87478  1.0000
  H   H2996     1.0  0.83488  0.20845  0.87007  1.0000
  H   H2997     1.0  0.86203  0.20385  0.85984  1.0000
  H   H2998     1.0  0.85751  0.03393  0.87254  1.0000
  C   C1766     1.0  0.55644  0.17068  0.72386  1.0000
  H   H2999     1.0  0.54173  0.27864  0.83519  1.0000
  H   H3000     1.0  0.70445  0.22946  0.76976  1.0000
  H   H3001     1.0  0.58163  0.15949  0.74610  1.0000
  H   H3002     1.0  0.57392  0.30453  0.84205  1.0000
  H   H3003     1.0  0.78945  0.22543  0.76636  1.0000
  S   S507      1.0  0.85201  0.29917  0.80527  1.0000
  C   C1767     1.0  0.83597  0.98890  0.90500  1.0000
  C   C1768     1.0  0.77365  0.20610  0.75618  1.0000
  H   H3004     1.0  0.93217  0.14222  0.92658  1.0000
  C   C1769     1.0  0.68854  0.98857  0.93678  1.0000
  H   H3005     1.0  0.77437  0.18912  0.76270  1.0000
  C   C1770     1.0  0.69799  0.00723  0.92549  1.0000
  H   H3006     1.0  0.77907  0.26446  0.72639  1.0000
  Fe  Fe256     1.0  0.97561  0.23398  0.86305  1.0000
  C   C1771     1.0  0.85973  0.30487  0.85931  1.0000
  H   H3007     1.0  0.71340  0.17798  0.75018  1.0000
  H   H3008     1.0  0.52599  0.03481  0.88410  1.0000
  C   C1772     1.0  0.60087  0.25615  0.85132  1.0000
  H   H3009     1.0  0.85329  0.05116  0.83437  1.0000
  H   H3010     1.0  0.90208  0.28769  0.86552  1.0000
  H   H3011     1.0  0.91293  0.25627  0.73498  1.0000
  H   H3012     1.0  0.77860  0.00965  0.89157  1.0000
  H   H3013     1.0  0.90151  0.07013  0.96534  1.0000
  Fe  Fe257     1.0  0.96959  0.20263  0.89118  1.0000
  N   N125      1.0  0.61355  0.11969  0.85101  1.0000
  C   C1773     1.0  0.63099  0.13507  0.84565  1.0000
  C   C1774     1.0  0.61126  0.10863  0.83882  1.0000
  C   C1775     1.0  0.62040  0.10185  0.86302  1.0000
  C   C1776     1.0  0.59166  0.13334  0.85644  1.0000
  C   C1777     1.0  0.63767  0.14624  0.85690  1.0000
  C   C1778     1.0  0.59861  0.12362  0.82726  1.0000
  C   C1779     1.0  0.64353  0.08736  0.85966  1.0000
  C   C1780     1.0  0.57150  0.12046  0.86211  1.0000
  H   H3014     1.0  0.64674  0.12623  0.84016  1.0000
  H   H3015     1.0  0.62520  0.14884  0.83735  1.0000
  H   H3016     1.0  0.60290  0.09350  0.84266  1.0000
  H   H3017     1.0  0.62814  0.10216  0.83321  1.0000
  H   H3018     1.0  0.62028  0.10921  0.87269  1.0000
  H   H3019     1.0  0.60789  0.09003  0.86644  1.0000
  H   H3020     1.0  0.59354  0.14135  0.86543  1.0000
  H   H3021     1.0  0.58667  0.14778  0.84830  1.0000
  H   H3022     1.0  0.64490  0.13388  0.86536  1.0000
  H   H3023     1.0  0.65096  0.15653  0.85156  1.0000
  H   H3024     1.0  0.62347  0.15794  0.86160  1.0000
  H   H3025     1.0  0.59989  0.11434  0.81829  1.0000
  H   H3026     1.0  0.58042  0.12805  0.83132  1.0000
  H   H3027     1.0  0.60597  0.13912  0.82283  1.0000
  H   H3028     1.0  0.64667  0.07464  0.86915  1.0000
  H   H3029     1.0  0.65756  0.09735  0.85710  1.0000
  H   H3030     1.0  0.64409  0.07813  0.85079  1.0000
  H   H3031     1.0  0.57045  0.11444  0.87375  1.0000
  H   H3032     1.0  0.57211  0.10596  0.85676  1.0000
  H   H3033     1.0  0.55565  0.13177  0.86010  1.0000
  N   N126      1.0  0.55729  0.26288  0.85375  1.0000
  H   H3034     1.0  0.88449  0.26851  0.73958  1.0000
  C   C1781     1.0  0.55446  0.28427  0.85983  1.0000
  C   C1782     1.0  0.55405  0.24324  0.86559  1.0000
  H   H3035     1.0  0.72006  0.99039  0.90279  1.0000
  C   C1783     1.0  0.66132  0.99539  0.89949  1.0000
  C   C1784     1.0  0.49367  0.30025  0.89588  1.0000
  C   C1785     1.0  0.56199  0.24359  0.87972  1.0000
  H   H3036     1.0  0.52228  0.27119  0.85082  1.0000
  H   H3037     1.0  0.76302  0.27799  0.74911  1.0000
  S   S508      1.0  0.82632  0.22612  0.72743  1.0000
  H   H3038     1.0  0.56645  0.28336  0.86723  1.0000
  H   H3039     1.0  0.53749  0.28710  0.86646  1.0000
  H   H3040     1.0  0.53602  0.24127  0.86861  1.0000
  H   H3041     1.0  0.56249  0.22735  0.86195  1.0000
  Fe  Fe258     1.0  0.98868  0.24682  0.88896  1.0000
  H   H3042     1.0  0.82914  0.04718  0.87554  1.0000
  H   H3043     1.0  0.77349  0.27395  0.78684  1.0000
  H   H3044     1.0  0.63691  0.02517  0.89639  1.0000
  H   H3045     1.0  0.53335  0.09870  0.88442  1.0000
  S   S509      1.0  0.74368  0.00123  0.87047  1.0000
  H   H3046     1.0  0.72941  0.01331  0.94035  1.0000
  H   H3047     1.0  0.79614  0.00128  0.86636  1.0000
  H   H3048     1.0  0.57977  0.24609  0.87825  1.0000
  H   H3049     1.0  0.56046  0.22722  0.88673  1.0000
  H   H3050     1.0  0.55098  0.25654  0.88552  1.0000
  H   H3051     1.0  0.66229  0.18155  0.73300  1.0000
  H   H3052     1.0  0.62683  0.99281  0.85854  1.0000
  C   C1786     1.0  0.72775  0.16404  0.75008  1.0000
  H   H3053     1.0  0.79327  0.00690  0.84812  1.0000
  H   H3054     1.0  0.64042  0.00669  0.86791  1.0000
  H   H3055     1.0  0.71725  0.23751  0.78265  1.0000
  C   C1787     1.0  0.75563  0.25870  0.77471  1.0000
  S   S510      1.0  0.98753  0.27507  0.90153  1.0000
  H   H3056     1.0  0.92549  0.30200  0.85851  1.0000
  H   H3057     1.0  0.76592  0.21551  0.77709  1.0000
  N   N127      1.0  0.96891  0.98798  0.96046  1.0000
  C   C1788     1.0  0.72970  0.15185  0.73725  1.0000
  H   H3058     1.0  0.72449  0.26148  0.75859  1.0000
  S   S511      1.0  0.68154  0.00638  0.88584  1.0000
  C   C1789     1.0  0.83145  0.26687  0.73357  1.0000
  C   C1790     1.0  0.50118  0.11429  0.92048  1.0000
  N   N128      1.0  0.72320  0.00474  0.92093  1.0000
  H   H3059     1.0  0.86487  0.30240  0.86992  1.0000
  H   H3060     1.0  0.60714  0.01046  0.91500  1.0000
  H   H3061     1.0  0.59961  0.26844  0.85850  1.0000
  H   H3062     1.0  0.52263  0.24855  0.83273  1.0000
  H   H3063     1.0  0.75053  0.26032  0.73208  1.0000
  H   H3064     1.0  0.58112  0.13160  0.74458  1.0000
  C   C1791     1.0  0.72095  0.23019  0.77270  1.0000
  C   C1792     1.0  0.53908  0.26554  0.84471  1.0000
  C   C1793     1.0  0.59188  0.14503  0.74135  1.0000
  C   C1794     1.0  0.77185  0.22354  0.76605  1.0000
  H   H3065     1.0  0.82682  0.30847  0.85238  1.0000
  C   C1795     1.0  0.98143  0.00420  0.94951  1.0000
  Fe  Fe259     1.0  0.71241  0.98520  0.87587  1.0000
  H   H3066     1.0  0.68937  0.00856  0.91616  1.0000
  H   H3067     1.0  0.51813  0.02042  0.90159  1.0000
  C   C1796     1.0  0.51174  0.02803  0.89155  1.0000
  C   C1797     1.0  0.83532  0.02039  0.86241  1.0000
  S   S512      1.0  0.80146  0.30885  0.79684  1.0000
  C   C1798     1.0  0.84236  0.04017  0.86732  1.0000
  C   C1799     1.0  0.76091  0.99615  0.93060  1.0000
  H   H3068     1.0  0.82707  0.29757  0.87067  1.0000
  H   H3069     1.0  0.50170  0.30920  0.88609  1.0000
  H   H3070     1.0  0.58139  0.24244  0.84026  1.0000
  H   H3071     1.0  0.49484  0.04871  0.91920  1.0000
  H   H3072     1.0  0.76766  0.99073  0.94078  1.0000
  H   H3073     1.0  0.85196  0.98301  0.90868  1.0000
  H   H3074     1.0  0.93809  0.99947  0.95170  1.0000
  H   H3075     1.0  0.86810  0.30455  0.83182  1.0000
  H   H3076     1.0  0.59529  0.18564  0.72815  1.0000
  C   C1800     1.0  0.67320  0.12511  0.73339  1.0000
  H   H3077     1.0  0.73630  0.19615  0.72951  1.0000
  C   C1801     1.0  0.82205  0.98299  0.85286  1.0000
  H   H3078     1.0  0.49982  0.06153  0.89523  1.0000
  C   C1802     1.0  0.89703  0.31444  0.84726  1.0000
  H   H3079     1.0  0.59806  0.10548  0.73235  1.0000
  C   C1803     1.0  0.83383  0.31010  0.86180  1.0000
  H   H3080     1.0  0.61807  0.99186  0.87757  1.0000
  H   H3081     1.0  0.98654  0.08995  0.88660  1.0000
  S   S513      1.0  0.54830  0.98446  0.95661  1.0000
  H   H3082     1.0  0.73019  0.98455  0.94118  1.0000
  H   H3083     1.0  0.71049  0.19234  0.72529  1.0000
  H   H3084     1.0  0.62291  0.17103  0.72513  1.0000
  H   H3085     1.0  0.83107  0.98405  0.84176  1.0000
  H   H3086     1.0  0.77364  0.18798  0.72386  1.0000
  H   H3087     1.0  0.58535  0.02497  0.97301  1.0000
  H   H3088     1.0  0.76786  0.98289  0.92394  1.0000
  Fe  Fe260     1.0  0.57630  0.52108  0.03824  1.0000
  S   S514      1.0  0.56125  0.49331  0.05338  1.0000
  S   S515      1.0  0.59933  0.51053  0.01875  1.0000
  Fe  Fe261     1.0  0.55207  0.55654  0.05667  1.0000
  S   S516      1.0  0.53420  0.53156  0.07274  1.0000
  S   S517      1.0  0.55187  0.59286  0.05854  1.0000
  Fe  Fe262     1.0  0.56805  0.50971  0.07060  1.0000
  S   S518      1.0  0.58206  0.49243  0.09046  1.0000
  Fe  Fe263     1.0  0.52913  0.51751  0.05387  1.0000
  S   S519      1.0  0.58614  0.53528  0.05545  1.0000
  S   S520      1.0  0.54390  0.54472  0.03787  1.0000
  H   H3089     1.0  0.68086  0.36410  0.19029  1.0000
  H   H3090     1.0  0.62432  0.55841  0.06363  1.0000
  Fe  Fe264     1.0  0.69025  0.62144  0.18609  1.0000
  S   S521      1.0  0.70047  0.58441  0.18515  1.0000
  C   C1804     1.0  0.65745  0.36215  0.12286  1.0000
  C   C1805     1.0  0.92473  0.55549  0.98016  1.0000
  C   C1806     1.0  0.64551  0.38204  0.11332  1.0000
  Fe  Fe265     1.0  0.74561  0.48065  0.11697  1.0000
  S   S522      1.0  0.72698  0.48473  0.13898  1.0000
  S   S523      1.0  0.78390  0.47602  0.11199  1.0000
  Fe  Fe266     1.0  0.70205  0.48268  0.10539  1.0000
  S   S524      1.0  0.68043  0.48731  0.12631  1.0000
  S   S525      1.0  0.68798  0.48280  0.08542  1.0000
  Fe  Fe267     1.0  0.70330  0.51120  0.12752  1.0000
  S   S526      1.0  0.68934  0.54679  0.13087  1.0000
  Fe  Fe268     1.0  0.70581  0.46010  0.13575  1.0000
  S   S527      1.0  0.69165  0.43368  0.15339  1.0000
  S   S528      1.0  0.72329  0.50861  0.10579  1.0000
  S   S529      1.0  0.72619  0.45395  0.11462  1.0000
  H   H3091     1.0  0.59461  0.63857  0.15557  1.0000
  Fe  Fe269     1.0  0.88022  0.54815  0.07531  1.0000
  S   S530      1.0  0.91044  0.55315  0.08388  1.0000
  S   S531      1.0  0.84354  0.55331  0.08605  1.0000
  Fe  Fe270     1.0  0.90768  0.54023  0.04630  1.0000
  S   S532      1.0  0.94024  0.54458  0.05225  1.0000
  S   S533      1.0  0.90105  0.52774  0.02701  1.0000
  Fe  Fe271     1.0  0.92879  0.52391  0.07321  1.0000
  S   S534      1.0  0.95116  0.49606  0.08505  1.0000
  Fe  Fe272     1.0  0.92015  0.57367  0.06255  1.0000
  S   S535      1.0  0.93337  0.60708  0.05954  1.0000
  S   S536      1.0  0.89778  0.51721  0.06667  1.0000
  S   S537      1.0  0.88842  0.57107  0.05463  1.0000
  C   C1807     1.0  0.64657  0.40876  0.12864  1.0000
  C   C1808     1.0  0.58426  0.54725  0.97515  1.0000
  C   C1809     1.0  0.91009  0.53911  0.00910  1.0000
  C   C1810     1.0  0.90385  0.53052  0.99822  1.0000
  C   C1811     1.0  0.91112  0.53866  0.98380  1.0000
  C   C1812     1.0  0.50079  0.46868  0.06865  1.0000
  C   C1813     1.0  0.93090  0.56414  0.99105  1.0000
  C   C1814     1.0  0.92363  0.55598  0.00548  1.0000
  H   H3092     1.0  0.89334  0.51749  0.00095  1.0000
  H   H3093     1.0  0.55910  0.63087  0.06917  1.0000
  H   H3094     1.0  0.94141  0.57719  0.98832  1.0000
  H   H3095     1.0  0.92854  0.56271  0.01377  1.0000
  C   C1815     1.0  0.94653  0.61623  0.07180  1.0000
  C   C1816     1.0  0.95658  0.63580  0.06756  1.0000
  H   H3096     1.0  0.79684  0.52497  0.05697  1.0000
  C   C1817     1.0  0.96707  0.54155  0.09973  1.0000
  C   C1818     1.0  0.95648  0.61316  0.09532  1.0000
  C   C1819     1.0  0.94665  0.60489  0.08573  1.0000
  H   H3097     1.0  0.88209  0.61767  0.11391  1.0000
  H   H3098     1.0  0.62906  0.40595  0.13346  1.0000
  H   H3099     1.0  0.93889  0.58990  0.08917  1.0000
  H   H3100     1.0  0.49481  0.46225  0.01473  1.0000
  H   H3101     1.0  0.74245  0.39568  0.17395  1.0000
  H   H3102     1.0  0.51117  0.47654  0.07352  1.0000
  C   C1820     1.0  0.80010  0.49762  0.10416  1.0000
  C   C1821     1.0  0.82371  0.49240  0.10179  1.0000
  C   C1822     1.0  0.83726  0.50919  0.09598  1.0000
  C   C1823     1.0  0.82729  0.53141  0.09254  1.0000
  C   C1824     1.0  0.80368  0.53660  0.09472  1.0000
  C   C1825     1.0  0.79011  0.51979  0.10044  1.0000
  H   H3103     1.0  0.83159  0.47530  0.10464  1.0000
  H   H3104     1.0  0.85542  0.50499  0.09443  1.0000
  H   H3105     1.0  0.79585  0.55374  0.09193  1.0000
  H   H3106     1.0  0.77196  0.52400  0.10206  1.0000
  C   C1826     1.0  0.69159  0.40572  0.15127  1.0000
  C   C1827     1.0  0.70688  0.39565  0.14080  1.0000
  C   C1828     1.0  0.70731  0.37296  0.13997  1.0000
  C   C1829     1.0  0.69227  0.36018  0.14942  1.0000
  C   C1830     1.0  0.67652  0.37040  0.15963  1.0000
  C   C1831     1.0  0.67637  0.39301  0.16064  1.0000
  H   H3107     1.0  0.71875  0.40520  0.13357  1.0000
  H   H3108     1.0  0.71955  0.36520  0.13204  1.0000
  H   H3109     1.0  0.66472  0.36080  0.16690  1.0000
  H   H3110     1.0  0.66445  0.40069  0.16876  1.0000
  C   C1832     1.0  0.69772  0.57400  0.16997  1.0000
  C   C1833     1.0  0.69984  0.55078  0.17039  1.0000
  C   C1834     1.0  0.69782  0.54208  0.15835  1.0000
  C   C1835     1.0  0.69334  0.55666  0.14593  1.0000
  C   C1836     1.0  0.69143  0.57981  0.14549  1.0000
  C   C1837     1.0  0.69392  0.58845  0.15741  1.0000
  H   H3111     1.0  0.70293  0.53951  0.18008  1.0000
  H   H3112     1.0  0.69923  0.52418  0.15877  1.0000
  H   H3113     1.0  0.68834  0.59109  0.13581  1.0000
  H   H3114     1.0  0.69295  0.60628  0.15686  1.0000
  C   C1838     1.0  0.61152  0.48910  0.08881  1.0000
  C   C1839     1.0  0.62520  0.49133  0.07546  1.0000
  C   C1840     1.0  0.64868  0.48919  0.07450  1.0000
  C   C1841     1.0  0.65853  0.48522  0.08686  1.0000
  C   C1842     1.0  0.64480  0.48284  0.10016  1.0000
  C   C1843     1.0  0.62143  0.48446  0.10114  1.0000
  H   H3115     1.0  0.61774  0.49454  0.06587  1.0000
  H   H3116     1.0  0.65920  0.49088  0.06415  1.0000
  H   H3117     1.0  0.65218  0.47929  0.10971  1.0000
  H   H3118     1.0  0.61094  0.48246  0.11149  1.0000
  C   C1844     1.0  0.54005  0.60339  0.07448  1.0000
  C   C1845     1.0  0.54657  0.62290  0.07691  1.0000
  H   H3119     1.0  0.80803  0.51849  0.12838  1.0000
  C   C1846     1.0  0.52045  0.62225  0.09921  1.0000
  C   C1847     1.0  0.51426  0.60250  0.09691  1.0000
  C   C1848     1.0  0.52403  0.59306  0.08460  1.0000
  H   H3120     1.0  0.79972  0.53436  0.15272  1.0000
  S   S538      1.0  0.66219  0.63195  0.20327  1.0000
  H   H3121     1.0  0.51886  0.57805  0.08284  1.0000
  C   C1849     1.0  0.57602  0.55737  0.98731  1.0000
  C   C1850     1.0  0.58029  0.54608  0.00077  1.0000
  C   C1851     1.0  0.59325  0.52483  0.00208  1.0000
  C   C1852     1.0  0.60157  0.51473  0.98991  1.0000
  H   H3122     1.0  0.56636  0.57400  0.98632  1.0000
  H   H3123     1.0  0.57408  0.55410  0.01006  1.0000
  H   H3124     1.0  0.61171  0.49833  0.99089  1.0000
  H   H3125     1.0  0.64964  0.60504  0.16454  1.0000
  H   H3126     1.0  0.51885  0.52173  0.97891  1.0000
  H   H3127     1.0  0.51814  0.43948  0.01467  1.0000
  H   H3128     1.0  0.61872  0.42335  0.11032  1.0000
  N   N129      1.0  0.65158  0.40476  0.11338  1.0000
  C   C1853     1.0  0.96688  0.50586  0.99894  1.0000
  H   H3129     1.0  0.77496  0.54409  0.17070  1.0000
  H   H3130     1.0  0.96567  0.52190  0.99144  1.0000
  C   C1854     1.0  0.97859  0.48582  0.99142  1.0000
  H   H3131     1.0  0.64284  0.53649  0.09855  1.0000
  H   H3132     1.0  0.51631  0.46014  0.02541  1.0000
  H   H3133     1.0  0.76315  0.57668  0.15145  1.0000
  H   H3134     1.0  0.90730  0.62612  0.11613  1.0000
  H   H3135     1.0  0.58302  0.61103  0.09354  1.0000
  H   H3136     1.0  0.95833  0.54067  0.09089  1.0000
  C   C1855     1.0  0.98115  0.56570  0.06505  1.0000
  S   S539      1.0  0.67797  0.64771  0.16861  1.0000
  H   H3137     1.0  0.71613  0.37198  0.17059  1.0000
  H   H3138     1.0  0.72083  0.33259  0.21730  1.0000
  C   C1856     1.0  0.70540  0.33352  0.18737  1.0000
  H   H3139     1.0  0.63446  0.63235  0.16473  1.0000
  H   H3140     1.0  0.94994  0.50328  0.00487  1.0000
  H   H3141     1.0  0.53325  0.48772  0.02717  1.0000
  H   H3142     1.0  0.81641  0.54555  0.12083  1.0000
  H   H3143     1.0  0.83001  0.52784  0.13444  1.0000
  H   H3144     1.0  0.61951  0.55939  0.14865  1.0000
  H   H3145     1.0  0.72447  0.36053  0.20834  1.0000
  N   N130      1.0  0.59794  0.56177  0.09847  1.0000
  C   C1857     1.0  0.57295  0.56739  0.10349  1.0000
  C   C1858     1.0  0.60844  0.58189  0.09901  1.0000
  C   C1859     1.0  0.60693  0.54188  0.10870  1.0000
  C   C1860     1.0  0.60112  0.55614  0.08365  1.0000
  C   C1861     1.0  0.55896  0.54834  0.10490  1.0000
  C   C1862     1.0  0.60036  0.60366  0.08932  1.0000
  C   C1863     1.0  0.63247  0.53781  0.10909  1.0000
  C   C1864     1.0  0.62523  0.55363  0.07518  1.0000
  H   H3146     1.0  0.56968  0.57322  0.11401  1.0000
  H   H3147     1.0  0.56526  0.58149  0.09609  1.0000
  H   H3148     1.0  0.62703  0.57880  0.09626  1.0000
  H   H3149     1.0  0.60527  0.58555  0.11012  1.0000
  H   H3150     1.0  0.59868  0.54329  0.11985  1.0000
  H   H3151     1.0  0.60266  0.52619  0.10652  1.0000
  H   H3152     1.0  0.59521  0.53995  0.08403  1.0000
  H   H3153     1.0  0.59006  0.56827  0.07688  1.0000
  H   H3154     1.0  0.55931  0.54321  0.09448  1.0000
  H   H3155     1.0  0.56432  0.53349  0.11263  1.0000
  H   H3156     1.0  0.54106  0.55452  0.10883  1.0000
  C   C1865     1.0  0.97343  0.48016  0.07509  1.0000
  C   C1866     1.0  0.50935  0.50800  0.00780  1.0000
  C   C1867     1.0  0.98081  0.48772  0.06071  1.0000
  H   H3157     1.0  0.93400  0.49211  0.98930  1.0000
  H   H3158     1.0  0.98598  0.56837  0.09117  1.0000
  H   H3159     1.0  0.63364  0.53600  0.07700  1.0000
  H   H3160     1.0  0.63609  0.56469  0.07729  1.0000
  N   N131      1.0  0.61410  0.60749  0.16382  1.0000
  C   C1868     1.0  0.60434  0.61058  0.17899  1.0000
  C   C1869     1.0  0.59736  0.62051  0.15453  1.0000
  C   C1870     1.0  0.63594  0.61699  0.15992  1.0000
  C   C1871     1.0  0.61817  0.58272  0.16322  1.0000
  C   C1872     1.0  0.62024  0.60172  0.19013  1.0000
  C   C1873     1.0  0.57404  0.61290  0.15752  1.0000
  C   C1874     1.0  0.62551  0.57547  0.14842  1.0000
  H   H3161     1.0  0.66153  0.62894  0.14281  1.0000
  H   H3162     1.0  0.58921  0.60216  0.18292  1.0000
  H   H3163     1.0  0.56386  0.62284  0.14945  1.0000
  H   H3164     1.0  0.59844  0.62866  0.17967  1.0000
  H   H3165     1.0  0.63166  0.57403  0.16946  1.0000
  H   H3166     1.0  0.60329  0.57464  0.16869  1.0000
  H   H3167     1.0  0.61107  0.60506  0.20074  1.0000
  H   H3168     1.0  0.62578  0.58339  0.19105  1.0000
  H   H3169     1.0  0.63514  0.61046  0.18793  1.0000
  H   H3170     1.0  0.49828  0.50854  0.99982  1.0000
  H   H3171     1.0  0.56156  0.49204  0.98848  1.0000
  H   H3172     1.0  0.56455  0.61622  0.16804  1.0000
  H   H3173     1.0  0.64415  0.57272  0.14561  1.0000
  C   C1875     1.0  0.53468  0.50977  0.97759  1.0000
  C   C1876     1.0  0.98483  0.46029  0.08189  1.0000
  H   H3174     1.0  0.69898  0.33317  0.17742  1.0000
  H   H3175     1.0  0.73741  0.55511  0.12358  1.0000
  C   C1877     1.0  0.64910  0.43198  0.13132  1.0000
  H   H3176     1.0  0.51680  0.47368  0.99333  1.0000
  H   H3177     1.0  0.79625  0.52139  0.03468  1.0000
  C   C1878     1.0  0.79460  0.49049  0.06513  1.0000
  N   N132      1.0  0.83085  0.50695  0.05258  1.0000
  C   C1879     1.0  0.51317  0.45770  0.01498  1.0000
  H   H3178     1.0  0.80988  0.51428  0.07211  1.0000
  C   C1880     1.0  0.74700  0.37714  0.17603  1.0000
  H   H3179     1.0  0.79262  0.48446  0.05544  1.0000
  H   H3180     1.0  0.75747  0.37232  0.16609  1.0000
  H   H3181     1.0  0.63753  0.55082  0.11385  1.0000
  H   H3182     1.0  0.55111  0.50598  0.01677  1.0000
  S   S540      1.0  0.49856  0.50686  0.04852  1.0000
  H   H3183     1.0  0.75872  0.33543  0.16867  1.0000
  H   H3184     1.0  0.60365  0.62032  0.14306  1.0000
  C   C1881     1.0  0.77003  0.56287  0.12657  1.0000
  C   C1882     1.0  0.54438  0.49036  0.01670  1.0000
  N   N133      1.0  0.96835  0.48255  0.97910  1.0000
  C   C1883     1.0  0.96631  0.64417  0.07719  1.0000
  C   C1884     1.0  0.74608  0.56973  0.12278  1.0000
  N   N134      1.0  0.72806  0.34149  0.18389  1.0000
  S   S541      1.0  0.97732  0.64286  0.10406  1.0000
  H   H3185     1.0  0.57520  0.59502  0.15662  1.0000
  C   C1885     1.0  0.93188  0.47113  0.97458  1.0000
  C   C1886     1.0  0.73261  0.34289  0.20990  1.0000
  H   H3186     1.0  0.98245  0.56949  0.05328  1.0000
  S   S542      1.0  0.50687  0.63410  0.11445  1.0000
  N   N135      1.0  0.77213  0.54775  0.14064  1.0000
  H   H3187     1.0  0.78007  0.55474  0.11765  1.0000
  H   H3188     1.0  0.96907  0.52485  0.10652  1.0000
  C   C1887     1.0  0.74111  0.33184  0.17096  1.0000
  S   S543      1.0  0.69456  0.33140  0.14834  1.0000
  H   H3189     1.0  0.74768  0.55938  0.17487  1.0000
  H   H3190     1.0  0.51100  0.31754  0.13302  1.0000
  H   H3191     1.0  0.71437  0.37532  0.18835  1.0000
  H   H3192     1.0  0.90216  0.62448  0.09851  1.0000
  C   C1888     1.0  0.68604  0.34725  0.19626  1.0000
  H   H3193     1.0  0.52054  0.53299  0.01735  1.0000
  H   H3194     1.0  0.74500  0.52854  0.14267  1.0000
  H   H3195     1.0  0.77702  0.57860  0.12602  1.0000
  H   H3196     1.0  0.81569  0.55424  0.04370  1.0000
  H   H3197     1.0  0.81404  0.51317  0.01915  1.0000
  C   C1889     1.0  0.82945  0.50197  0.03815  1.0000
  C   C1890     1.0  0.54567  0.50351  0.99118  1.0000
  H   H3198     1.0  0.68990  0.34878  0.20667  1.0000
  C   C1891     1.0  0.56459  0.47128  0.01692  1.0000
  N   N136      1.0  0.53152  0.49322  0.00446  1.0000
  H   H3199     1.0  0.74712  0.34289  0.21527  1.0000
  H   H3200     1.0  0.80205  0.47650  0.07271  1.0000
  C   C1892     1.0  0.63651  0.42202  0.10477  1.0000
  C   C1893     1.0  0.67633  0.40454  0.10745  1.0000
  C   C1894     1.0  0.63651  0.41796  0.08954  1.0000
  C   C1895     1.0  0.68396  0.42706  0.10004  1.0000
  H   H3201     1.0  0.64958  0.37767  0.10239  1.0000
  H   H3202     1.0  0.64096  0.43893  0.10374  1.0000
  H   H3203     1.0  0.68676  0.39762  0.11597  1.0000
  H   H3204     1.0  0.68205  0.39306  0.09942  1.0000
  H   H3205     1.0  0.65367  0.41269  0.08396  1.0000
  H   H3206     1.0  0.62576  0.40517  0.08968  1.0000
  H   H3207     1.0  0.62922  0.43375  0.08322  1.0000
  H   H3208     1.0  0.67786  0.43307  0.08971  1.0000
  H   H3209     1.0  0.70264  0.42474  0.09763  1.0000
  H   H3210     1.0  0.67877  0.44048  0.10662  1.0000
  H   H3211     1.0  0.95629  0.60435  0.10612  1.0000
  H   H3212     1.0  0.52088  0.33643  0.11828  1.0000
  H   H3213     1.0  0.74979  0.53280  0.16971  1.0000
  C   C1896     1.0  0.81397  0.51922  0.02926  1.0000
  H   H3214     1.0  0.94514  0.46354  0.99430  1.0000
  H   H3215     1.0  0.75699  0.37306  0.18485  1.0000
  H   H3216     1.0  0.51818  0.54170  0.99868  1.0000
  H   H3217     1.0  0.82394  0.48539  0.03919  1.0000
  H   H3218     1.0  0.57326  0.47165  0.02594  1.0000
  H   H3219     1.0  0.63377  0.63853  0.13908  1.0000
  C   C1897     1.0  0.74127  0.33308  0.19599  1.0000
  H   H3220     1.0  0.54248  0.46018  0.99827  1.0000
  C   C1898     1.0  0.75799  0.55997  0.15217  1.0000
  H   H3221     1.0  0.86946  0.47268  0.04315  1.0000
  H   H3222     1.0  0.84638  0.50063  0.03140  1.0000
  H   H3223     1.0  0.55925  0.45456  0.01873  1.0000
  H   H3224     1.0  0.67098  0.33864  0.19847  1.0000
  H   H3225     1.0  0.75933  0.33508  0.19263  1.0000
  C   C1899     1.0  0.77232  0.50526  0.15089  1.0000
  C   C1900     1.0  0.79658  0.54444  0.14238  1.0000
  C   C1901     1.0  0.84487  0.48703  0.06008  1.0000
  C   C1902     1.0  0.81345  0.53340  0.13078  1.0000
  C   C1903     1.0  0.80802  0.51033  0.06173  1.0000
  H   H3226     1.0  0.83710  0.47159  0.06159  1.0000
  H   H3227     1.0  0.82024  0.53552  0.02626  1.0000
  H   H3228     1.0  0.60128  0.60119  0.07817  1.0000
  H   H3229     1.0  0.73565  0.58193  0.12935  1.0000
  H   H3230     1.0  0.85231  0.52550  0.05996  1.0000
  H   H3231     1.0  0.64353  0.43282  0.14284  1.0000
  C   C1904     1.0  0.86917  0.48089  0.05245  1.0000
  C   C1905     1.0  0.64472  0.62379  0.14394  1.0000
  H   H3232     1.0  0.65414  0.34619  0.12049  1.0000
  H   H3233     1.0  0.81803  0.55171  0.06223  1.0000
  H   H3234     1.0  0.83859  0.56353  0.04877  1.0000
  H   H3235     1.0  0.66692  0.43456  0.12910  1.0000
  C   C1906     1.0  0.76375  0.52616  0.14052  1.0000
  H   H3236     1.0  0.74003  0.56337  0.15080  1.0000
  H   H3237     1.0  0.87818  0.49550  0.04891  1.0000
  H   H3238     1.0  0.62702  0.38212  0.11661  1.0000
  H   H3239     1.0  0.63846  0.44586  0.12552  1.0000
  H   H3240     1.0  0.97218  0.50292  0.05534  1.0000
  H   H3241     1.0  0.97692  0.50764  0.00697  1.0000
  S   S544      1.0  0.71377  0.64194  0.19102  1.0000
  C   C1907     1.0  0.96622  0.63292  0.09117  1.0000
  H   H3242     1.0  0.49980  0.50091  0.01815  1.0000
  H   H3243     1.0  0.53210  0.32737  0.09490  1.0000
  H   H3244     1.0  0.65778  0.39661  0.13520  1.0000
  H   H3245     1.0  0.64686  0.60999  0.13778  1.0000
  C   C1908     1.0  0.94483  0.47748  0.98508  1.0000
  C   C1909     1.0  0.84251  0.52721  0.05112  1.0000
  H   H3246     1.0  0.84587  0.48976  0.07098  1.0000
  H   H3247     1.0  0.61132  0.61630  0.08911  1.0000
  H   H3248     1.0  0.67597  0.36162  0.12097  1.0000
  C   C1910     1.0  0.72516  0.36666  0.17987  1.0000
  H   H3249     1.0  0.80176  0.56085  0.14254  1.0000
  H   H3250     1.0  0.65082  0.36234  0.13434  1.0000
  H   H3251     1.0  0.85510  0.52870  0.04120  1.0000
  H   H3252     1.0  0.98275  0.53025  0.07041  1.0000
  C   C1911     1.0  0.52679  0.47112  0.00213  1.0000
  H   H3253     1.0  0.77740  0.49613  0.07063  1.0000
  H   H3254     1.0  0.97921  0.45436  0.09302  1.0000
  H   H3255     1.0  0.87890  0.46872  0.05992  1.0000
  H   H3256     1.0  0.55115  0.51889  0.99294  1.0000
  H   H3257     1.0  0.63676  0.52163  0.11607  1.0000
  C   C1912     1.0  0.75799  0.54801  0.16763  1.0000
  H   H3258     1.0  0.50159  0.59462  0.10459  1.0000
  C   C1913     1.0  0.82758  0.55032  0.05141  1.0000
  H   H3259     1.0  0.90619  0.53194  0.97552  1.0000
  H   H3260     1.0  0.73356  0.33981  0.16126  1.0000
  H   H3261     1.0  0.76846  0.52136  0.12969  1.0000
  C   C1914     1.0  0.53693  0.63221  0.08927  1.0000
  H   H3262     1.0  0.75808  0.49600  0.15583  1.0000
  C   C1915     1.0  0.89443  0.62925  0.10903  1.0000
  C   C1916     1.0  0.51085  0.53232  0.00893  1.0000
  H   H3263     1.0  0.61823  0.58715  0.13975  1.0000
  C   C1917     1.0  0.52303  0.31829  0.12281  1.0000
  H   H3264     1.0  0.77937  0.50857  0.15981  1.0000
  H   H3265     1.0  0.78481  0.49342  0.14493  1.0000
  H   H3266     1.0  0.74724  0.57826  0.11154  1.0000
  H   H3267     1.0  0.95590  0.55325  0.10641  1.0000
  H   H3268     1.0  0.57720  0.47333  0.00711  1.0000
  H   H3269     1.0  0.53170  0.49481  0.97379  1.0000
  H   H3270     1.0  0.91508  0.46755  0.98032  1.0000
  H   H3271     1.0  0.96299  0.56555  0.06914  1.0000
  H   H3272     1.0  0.55843  0.32367  0.11883  1.0000
  C   C1918     1.0  0.59687  0.52581  0.97648  1.0000
  H   H3273     1.0  0.97682  0.44666  0.97924  1.0000
  H   H3274     1.0  0.49361  0.54123  0.01199  1.0000
  H   H3275     1.0  0.98644  0.57987  0.06837  1.0000
  H   H3276     1.0  0.54219  0.64713  0.09109  1.0000
  C   C1919     1.0  0.49426  0.44796  0.07531  1.0000
  H   H3277     1.0  0.95665  0.64466  0.05678  1.0000
  C   C1920     1.0  0.49311  0.47958  0.05606  1.0000
  H   H3278     1.0  0.97880  0.47046  0.99966  1.0000
  H   H3279     1.0  0.49529  0.34018  0.09330  1.0000
  H   H3280     1.0  0.49975  0.43992  0.08527  1.0000
  C   C1921     1.0  0.98990  0.55002  0.09435  1.0000
  H   H3281     1.0  0.49103  0.62787  0.06178  1.0000
  Fe  Fe273     1.0  0.66152  0.62554  0.33593  1.0000
  S   S545      1.0  0.66626  0.59410  0.32626  1.0000
  H   H3282     1.0  0.98019  0.47709  0.45750  1.0000
  C   C1922     1.0  0.95069  0.37358  0.47212  1.0000
  S   S546      1.0  0.70731  0.61451  0.30346  1.0000
  Fe  Fe274     1.0  0.67008  0.61710  0.30529  1.0000
  S   S547      1.0  0.65375  0.61213  0.28733  1.0000
  Fe  Fe275     1.0  0.70318  0.59384  0.32531  1.0000
  S   S548      1.0  0.72934  0.56281  0.32877  1.0000
  S   S549      1.0  0.69852  0.62360  0.33663  1.0000
  C   C1923     1.0  0.86626  0.43590  0.40987  1.0000
  H   H3283     1.0  0.96216  0.43211  0.45813  1.0000
  Fe  Fe276     1.0  0.88861  0.37609  0.42480  1.0000
  S   S550      1.0  0.91501  0.38758  0.40693  1.0000
  S   S551      1.0  0.85102  0.37959  0.42439  1.0000
  Fe  Fe277     1.0  0.92295  0.35937  0.44532  1.0000
  S   S552      1.0  0.95221  0.36912  0.42882  1.0000
  Fe  Fe278     1.0  0.92861  0.40082  0.42321  1.0000
  S   S553      1.0  0.93530  0.43673  0.41962  1.0000
  Fe  Fe279     1.0  0.93627  0.35491  0.41398  1.0000
  S   S554      1.0  0.95534  0.33684  0.39594  1.0000
  S   S555      1.0  0.90038  0.39191  0.44063  1.0000
  S   S556      1.0  0.90891  0.34247  0.43095  1.0000
  Fe  Fe280     1.0  0.51847  0.36785  0.43954  1.0000
  S   S557      1.0  0.52487  0.33396  0.45282  1.0000
  Fe  Fe281     1.0  0.56774  0.36563  0.42630  1.0000
  C   C1924     1.0  0.97683  0.42498  0.42852  1.0000
  S   S558      1.0  0.59021  0.38493  0.40883  1.0000
  H   H3284     1.0  0.80370  0.63706  0.28998  1.0000
  H   H3285     1.0  0.63759  0.41434  0.41396  1.0000
  Fe  Fe282     1.0  0.55494  0.34584  0.45755  1.0000
  S   S559      1.0  0.53795  0.35623  0.41949  1.0000
  S   S560      1.0  0.54736  0.38033  0.44519  1.0000
  C   C1925     1.0  0.69711  0.46960  0.30568  1.0000
  Fe  Fe283     1.0  0.72098  0.43893  0.36767  1.0000
  S   S561      1.0  0.74934  0.42568  0.35170  1.0000
  S   S562      1.0  0.70065  0.47371  0.36742  1.0000
  Fe  Fe284     1.0  0.71624  0.39213  0.38434  1.0000
  S   S563      1.0  0.74465  0.37511  0.36978  1.0000
  S   S564      1.0  0.69615  0.37303  0.40338  1.0000
  Fe  Fe285     1.0  0.76269  0.40364  0.37071  1.0000
  S   S565      1.0  0.80055  0.40022  0.37050  1.0000
  Fe  Fe286     1.0  0.72920  0.39831  0.35212  1.0000
  S   S566      1.0  0.72037  0.39094  0.33192  1.0000
  S   S567      1.0  0.73540  0.41886  0.38671  1.0000
  S   S568      1.0  0.69981  0.41333  0.36666  1.0000
  H   H3286     1.0  0.78250  0.59522  0.33053  1.0000
  H   H3287     1.0  0.85446  0.41528  0.43868  1.0000
  H   H3288     1.0  0.63836  0.43173  0.42642  1.0000
  C   C1926     1.0  0.71837  0.36313  0.33047  1.0000
  C   C1927     1.0  0.72495  0.34511  0.34074  1.0000
  H   H3289     1.0  0.56248  0.63920  0.32119  1.0000
  C   C1928     1.0  0.83738  0.33658  0.38983  1.0000
  H   H3290     1.0  0.67575  0.41751  0.42133  1.0000
  H   H3291     1.0  0.73195  0.34800  0.34956  1.0000
  H   H3292     1.0  0.68454  0.64469  0.27883  1.0000
  C   C1929     1.0  0.61968  0.37865  0.40709  1.0000
  C   C1930     1.0  0.63249  0.38711  0.39429  1.0000
  C   C1931     1.0  0.65598  0.38483  0.39291  1.0000
  C   C1932     1.0  0.66689  0.37417  0.40436  1.0000
  C   C1933     1.0  0.65413  0.36490  0.41701  1.0000
  C   C1934     1.0  0.63054  0.36711  0.41839  1.0000
  H   H3293     1.0  0.62412  0.39586  0.38549  1.0000
  H   H3294     1.0  0.66554  0.39165  0.38305  1.0000
  H   H3295     1.0  0.66246  0.35646  0.42590  1.0000
  H   H3296     1.0  0.62075  0.36052  0.42831  1.0000
  C   C1935     1.0  0.83725  0.38625  0.40928  1.0000
  C   C1936     1.0  0.84897  0.39110  0.39548  1.0000
  C   C1937     1.0  0.83738  0.39581  0.38374  1.0000
  C   C1938     1.0  0.81403  0.39563  0.38567  1.0000
  C   C1939     1.0  0.80230  0.39108  0.39949  1.0000
  C   C1940     1.0  0.81387  0.38645  0.41123  1.0000
  H   H3297     1.0  0.86695  0.39104  0.39383  1.0000
  H   H3298     1.0  0.84656  0.39936  0.37307  1.0000
  H   H3299     1.0  0.78435  0.39083  0.40112  1.0000
  H   H3300     1.0  0.80467  0.38272  0.42187  1.0000
  H   H3301     1.0  0.87421  0.42154  0.41701  1.0000
  H   H3302     1.0  0.69063  0.32642  0.39147  1.0000
  C   C1941     1.0  0.96348  0.46463  0.42309  1.0000
  C   C1942     1.0  0.96023  0.44233  0.42405  1.0000
  H   H3303     1.0  0.50046  0.41038  0.41674  1.0000
  H   H3304     1.0  0.80759  0.58959  0.31252  1.0000
  H   H3305     1.0  0.92228  0.33728  0.37262  1.0000
  H   H3306     1.0  0.95074  0.47815  0.41961  1.0000
  H   H3307     1.0  0.67395  0.35510  0.37413  1.0000
  H   H3308     1.0  0.64827  0.47868  0.37918  1.0000
  C   C1943     1.0  0.64493  0.46240  0.37740  1.0000
  C   C1944     1.0  0.67575  0.33758  0.37229  1.0000
  C   C1945     1.0  0.66452  0.62632  0.27055  1.0000
  C   C1946     1.0  0.70949  0.35902  0.31900  1.0000
  H   H3309     1.0  0.95674  0.51005  0.46100  1.0000
  H   H3310     1.0  0.89029  0.46671  0.41360  1.0000
  H   H3311     1.0  0.68806  0.53363  0.31042  1.0000
  H   H3312     1.0  0.65908  0.44786  0.34410  1.0000
  C   C1947     1.0  0.72140  0.53824  0.33979  1.0000
  C   C1948     1.0  0.73739  0.51872  0.34121  1.0000
  C   C1949     1.0  0.73140  0.49879  0.34973  1.0000
  C   C1950     1.0  0.70937  0.49833  0.35694  1.0000
  C   C1951     1.0  0.69345  0.51786  0.35559  1.0000
  C   C1952     1.0  0.69940  0.53771  0.34702  1.0000
  H   H3313     1.0  0.75446  0.51904  0.33568  1.0000
  H   H3314     1.0  0.74382  0.48386  0.35076  1.0000
  H   H3315     1.0  0.67640  0.51766  0.36116  1.0000
  H   H3316     1.0  0.68700  0.55265  0.34608  1.0000
  H   H3317     1.0  0.90135  0.43693  0.39934  1.0000
  H   H3318     1.0  0.82126  0.32992  0.39133  1.0000
  H   H3319     1.0  0.58219  0.61639  0.28018  1.0000
  N   N137      1.0  0.69982  0.47506  0.31977  1.0000
  C   C1953     1.0  0.63457  0.34106  0.37201  1.0000
  C   C1954     1.0  0.67952  0.64147  0.26938  1.0000
  H   H3320     1.0  0.50821  0.41719  0.45289  1.0000
  H   H3321     1.0  0.67951  0.47541  0.30364  1.0000
  C   C1955     1.0  0.78957  0.56962  0.30434  1.0000
  C   C1956     1.0  0.76244  0.61236  0.31343  1.0000
  C   C1957     1.0  0.76704  0.60712  0.32892  1.0000
  H   H3322     1.0  0.58433  0.61989  0.33698  1.0000
  H   H3323     1.0  0.76749  0.62267  0.33301  1.0000
  N   N138      1.0  0.78245  0.61281  0.30165  1.0000
  C   C1958     1.0  0.66079  0.35035  0.35005  1.0000
  H   H3324     1.0  0.75637  0.45143  0.31997  1.0000
  C   C1959     1.0  0.79918  0.59156  0.30310  1.0000
  H   H3325     1.0  0.87384  0.34689  0.40358  1.0000
  H   H3326     1.0  0.75148  0.60043  0.31233  1.0000
  H   H3327     1.0  0.75373  0.63632  0.27274  1.0000
  H   H3328     1.0  0.67784  0.44696  0.42030  1.0000
  C   C1960     1.0  0.79391  0.63292  0.30082  1.0000
  H   H3329     1.0  0.78305  0.56854  0.29461  1.0000
  H   H3330     1.0  0.80326  0.55521  0.30577  1.0000
  H   H3331     1.0  0.77626  0.56734  0.31377  1.0000
  H   H3332     1.0  0.90872  0.36532  0.36873  1.0000
  H   H3333     1.0  0.70440  0.37286  0.31098  1.0000
  C   C1961     1.0  0.90805  0.34967  0.37659  1.0000
  H   H3334     1.0  0.59106  0.62890  0.37260  1.0000
  H   H3335     1.0  0.65922  0.38525  0.34001  1.0000
  H   H3336     1.0  0.75323  0.59878  0.33578  1.0000
  H   H3337     1.0  0.67652  0.37805  0.35345  1.0000
  N   N139      1.0  0.65800  0.33478  0.36414  1.0000
  H   H3338     1.0  0.60636  0.61087  0.29866  1.0000
  C   C1962     1.0  0.75958  0.63732  0.28274  1.0000
  H   H3339     1.0  0.81316  0.59214  0.29387  1.0000
  H   H3340     1.0  0.64732  0.34999  0.34386  1.0000
  C   C1963     1.0  0.98315  0.46957  0.42660  1.0000
  C   C1964     1.0  0.88501  0.34199  0.37777  1.0000
  H   H3341     1.0  0.59471  0.59929  0.32509  1.0000
  N   N140      1.0  0.85772  0.45560  0.41759  1.0000
  H   H3342     1.0  0.66094  0.45254  0.37302  1.0000
  H   H3343     1.0  0.88141  0.45664  0.39012  1.0000
  C   C1965     1.0  0.64097  0.47069  0.40863  1.0000
  H   H3344     1.0  0.80334  0.62677  0.32243  1.0000
  C   C1966     1.0  0.66656  0.63357  0.24474  1.0000
  H   H3345     1.0  0.66724  0.44281  0.32622  1.0000
  H   H3346     1.0  0.88715  0.48282  0.43519  1.0000
  H   H3347     1.0  0.83034  0.46420  0.43448  1.0000
  H   H3348     1.0  0.61213  0.60498  0.33640  1.0000
  H   H3349     1.0  0.53117  0.42386  0.46000  1.0000
  C   C1967     1.0  0.77394  0.61480  0.28772  1.0000
  H   H3350     1.0  0.67632  0.51333  0.30427  1.0000
  C   C1968     1.0  0.84712  0.43151  0.44218  1.0000
  H   H3351     1.0  0.83973  0.46034  0.39094  1.0000
  H   H3352     1.0  0.83839  0.48884  0.41420  1.0000
  H   H3353     1.0  0.72058  0.46487  0.33630  1.0000
  H   H3354     1.0  0.82381  0.48713  0.39311  1.0000
  C   C1969     1.0  0.67917  0.47192  0.33080  1.0000
  H   H3355     1.0  0.65476  0.47974  0.40229  1.0000
  C   C1970     1.0  0.68259  0.51685  0.31350  1.0000
  H   H3356     1.0  0.66870  0.51828  0.32264  1.0000
  N   N141      1.0  0.64318  0.44794  0.40433  1.0000
  H   H3357     1.0  0.51019  0.44544  0.45335  1.0000
  S   S569      1.0  0.63445  0.62902  0.35530  1.0000
  C   C1971     1.0  0.60652  0.43534  0.41978  1.0000
  H   H3358     1.0  0.64321  0.46896  0.41995  1.0000
  H   H3359     1.0  0.85230  0.42913  0.40708  1.0000
  H   H3360     1.0  0.82622  0.61929  0.30844  1.0000
  H   H3361     1.0  0.67679  0.34472  0.34327  1.0000
  C   C1972     1.0  0.88422  0.43975  0.39645  1.0000
  H   H3362     1.0  0.87235  0.35709  0.37933  1.0000
  H   H3363     1.0  0.66086  0.32883  0.39474  1.0000
  H   H3364     1.0  0.62136  0.49899  0.39660  1.0000
  H   H3365     1.0  0.85925  0.47668  0.44152  1.0000
  Fe  Fe287     1.0  0.54673  0.32317  0.43317  1.0000
  H   H3366     1.0  0.69980  0.33414  0.30916  1.0000
  Fe  Fe288     1.0  0.69966  0.64430  0.31481  1.0000
  C   C1973     1.0  0.68050  0.43290  0.41422  1.0000
  H   H3367     1.0  0.61448  0.33097  0.39257  1.0000
  H   H3368     1.0  0.59995  0.45070  0.42455  1.0000
  H   H3369     1.0  0.75113  0.62870  0.31252  1.0000
  H   H3370     1.0  0.93295  0.44086  0.46307  1.0000
  H   H3371     1.0  0.70666  0.50350  0.32756  1.0000
  C   C1974     1.0  0.59904  0.61282  0.32969  1.0000
  S   S570      1.0  0.92429  0.34407  0.46840  1.0000
  C   C1975     1.0  0.72257  0.32322  0.33960  1.0000
  H   H3372     1.0  0.81701  0.46319  0.40576  1.0000
  C   C1976     1.0  0.70338  0.44474  0.30359  1.0000
  H   H3373     1.0  0.95562  0.37602  0.46067  1.0000
  H   H3374     1.0  0.66154  0.63043  0.23527  1.0000
  H   H3375     1.0  0.76330  0.60170  0.28823  1.0000
  H   H3376     1.0  0.91065  0.35361  0.38680  1.0000
  H   H3377     1.0  0.70798  0.47893  0.29683  1.0000
  H   H3378     1.0  0.74796  0.48104  0.31770  1.0000
  H   H3379     1.0  0.86107  0.48398  0.40047  1.0000
  H   H3380     1.0  0.66389  0.48235  0.32712  1.0000
  C   C1977     1.0  0.68166  0.64863  0.24356  1.0000
  C   C1978     1.0  0.83117  0.47101  0.39902  1.0000
  H   H3381     1.0  0.64602  0.38202  0.35829  1.0000
  H   H3382     1.0  0.69257  0.44135  0.29648  1.0000
  C   C1979     1.0  0.51297  0.42815  0.45932  1.0000
  H   H3383     1.0  0.61530  0.45576  0.39219  1.0000
  H   H3384     1.0  0.88619  0.44655  0.42900  1.0000
  H   H3385     1.0  0.74330  0.46500  0.30490  1.0000
  H   H3386     1.0  0.63384  0.35597  0.37711  1.0000
  H   H3387     1.0  0.62236  0.34621  0.36437  1.0000
  H   H3388     1.0  0.81611  0.64779  0.31005  1.0000
  H   H3389     1.0  0.70111  0.43230  0.31338  1.0000
  H   H3390     1.0  0.82648  0.44246  0.42597  1.0000
  C   C1980     1.0  0.65793  0.62252  0.25822  1.0000
  C   C1981     1.0  0.70691  0.33710  0.31792  1.0000
  H   H3391     1.0  0.69284  0.33400  0.36598  1.0000
  H   H3392     1.0  0.95037  0.46159  0.45489  1.0000
  H   H3393     1.0  0.60396  0.47901  0.40709  1.0000
  C   C1982     1.0  0.94978  0.44568  0.46245  1.0000
  C   C1983     1.0  0.71337  0.31911  0.32828  1.0000
  S   S571      1.0  0.66235  0.64851  0.31497  1.0000
  H   H3394     1.0  0.88389  0.33821  0.36713  1.0000
  H   H3395     1.0  0.83217  0.42833  0.45034  1.0000
  H   H3396     1.0  0.67727  0.45063  0.39330  1.0000
  C   C1984     1.0  0.72020  0.46136  0.32549  1.0000
  H   H3397     1.0  0.68078  0.47768  0.34077  1.0000
  C   C1985     1.0  0.67322  0.44804  0.33502  1.0000
  C   C1986     1.0  0.81070  0.63117  0.31115  1.0000
  C   C1987     1.0  0.74314  0.46511  0.31634  1.0000
  H   H3398     1.0  0.63395  0.46586  0.36909  1.0000
  C   C1988     1.0  0.87728  0.46149  0.42275  1.0000
  H   H3399     1.0  0.64633  0.61083  0.25906  1.0000
  H   H3400     1.0  0.78825  0.61205  0.27890  1.0000
  H   H3401     1.0  0.69885  0.42918  0.41040  1.0000
  H   H3402     1.0  0.72089  0.44139  0.29791  1.0000
  H   H3403     1.0  0.50593  0.38473  0.46746  1.0000
  C   C1989     1.0  0.63239  0.43173  0.41627  1.0000
  C   C1990     1.0  0.63343  0.44886  0.39101  1.0000
  H   H3404     1.0  0.61469  0.49738  0.41530  1.0000
  C   C1991     1.0  0.61889  0.48696  0.40668  1.0000
  C   C1992     1.0  0.59108  0.62391  0.29928  1.0000
  C   C1993     1.0  0.87150  0.48054  0.43174  1.0000
  H   H3405     1.0  0.59833  0.43503  0.41056  1.0000
  H   H3406     1.0  0.63423  0.43167  0.38875  1.0000
  H   H3407     1.0  0.68723  0.43554  0.33868  1.0000
  H   H3408     1.0  0.86516  0.49670  0.42546  1.0000
  C   C1994     1.0  0.83950  0.44925  0.42980  1.0000
  H   H3409     1.0  0.67051  0.42318  0.39646  1.0000
  C   C1995     1.0  0.66050  0.37529  0.35074  1.0000
  H   H3410     1.0  0.60131  0.42115  0.42796  1.0000
  H   H3411     1.0  0.85911  0.43701  0.44757  1.0000
  H   H3412     1.0  0.88358  0.42802  0.38917  1.0000
  C   C1996     1.0  0.70275  0.49941  0.31771  1.0000
  H   H3413     1.0  0.71974  0.44313  0.32713  1.0000
  H   H3414     1.0  0.71733  0.50304  0.30930  1.0000
  S   S572      1.0  0.57779  0.33190  0.43900  1.0000
  H   H3415     1.0  0.89841  0.32694  0.40534  1.0000
  C   C1997     1.0  0.66794  0.43867  0.40129  1.0000
  C   C1998     1.0  0.84774  0.47566  0.40793  1.0000
  H   H3416     1.0  0.57718  0.61479  0.30530  1.0000
  H   H3417     1.0  0.83756  0.34949  0.38012  1.0000
  C   C1999     1.0  0.59007  0.64374  0.36458  1.0000
  C   C2000     1.0  0.62460  0.32285  0.38359  1.0000
  H   H3418     1.0  0.97455  0.40777  0.42930  1.0000
  C   C2001     1.0  0.67603  0.32343  0.38717  1.0000
  H   H3419     1.0  0.62536  0.62368  0.31311  1.0000
  H   H3420     1.0  0.83708  0.34457  0.39920  1.0000
  H   H3421     1.0  0.74430  0.64107  0.29055  1.0000
  C   C2002     1.0  0.95706  0.49816  0.47117  1.0000
  H   H3422     1.0  0.85142  0.32679  0.42066  1.0000
  C   C2003     1.0  0.60854  0.63125  0.31818  1.0000
  C   C2004     1.0  0.60921  0.64810  0.35458  1.0000
  H   H3423     1.0  0.98807  0.60712  0.39123  1.0000
  H   H3424     1.0  0.78122  0.64803  0.30242  1.0000
  C   C2005     1.0  0.88064  0.32882  0.40357  1.0000
  C   C2006     1.0  0.58659  0.63090  0.28381  1.0000
  H   H3425     1.0  0.57251  0.64482  0.28262  1.0000
  C   C2007     1.0  0.97658  0.47876  0.46900  1.0000
  H   H3426     1.0  0.98548  0.48680  0.42582  1.0000
  N   N142      1.0  0.59407  0.64214  0.30700  1.0000
  H   H3427     1.0  0.60206  0.63539  0.27654  1.0000
  H   H3428     1.0  0.61194  0.64370  0.32402  1.0000
  N   N143      1.0  0.87993  0.32251  0.38935  1.0000
  H   H3429     1.0  0.59353  0.36630  0.47307  1.0000
  C   C2008     1.0  0.85726  0.31736  0.38810  1.0000
  Fe  Fe289     1.0  0.92968  0.38761  0.55876  1.0000
  S   S573      1.0  0.94984  0.36234  0.54547  1.0000
  S   S574      1.0  0.89836  0.37909  0.57378  1.0000
  Fe  Fe290     1.0  0.96573  0.41786  0.55175  1.0000
  Fe  Fe291     1.0  0.95875  0.39211  0.52933  1.0000
  H   H3430     1.0  0.72695  0.37004  0.61351  1.0000
  C   C2009     1.0  0.97536  0.45783  0.49369  1.0000
  S   S575      1.0  0.93569  0.41715  0.54167  1.0000
  S   S576      1.0  0.95812  0.39014  0.56969  1.0000
  H   H3431     1.0  0.96878  0.32660  0.50144  1.0000
  Fe  Fe292     1.0  0.76503  0.45849  0.63004  1.0000
  S   S577      1.0  0.75390  0.46346  0.60856  1.0000
  S   S578      1.0  0.75599  0.48706  0.64346  1.0000
  Fe  Fe293     1.0  0.78367  0.40884  0.62845  1.0000
  S   S579      1.0  0.77413  0.41044  0.60699  1.0000
  S   S580      1.0  0.80472  0.37666  0.63684  1.0000
  Fe  Fe294     1.0  0.78752  0.44312  0.60189  1.0000
  S   S581      1.0  0.81131  0.45210  0.58159  1.0000
  Fe  Fe295     1.0  0.74136  0.43011  0.61544  1.0000
  S   S582      1.0  0.70597  0.42308  0.61470  1.0000
  S   S583      1.0  0.79938  0.44036  0.62275  1.0000
  S   S584      1.0  0.75010  0.42636  0.63752  1.0000
  S   S585      1.0  0.98919  0.39495  0.53827  1.0000
  H   H3432     1.0  0.69477  0.39343  0.49849  1.0000
  C   C2010     1.0  0.49388  0.38816  0.47720  1.0000
  H   H3433     1.0  0.92975  0.35019  0.59617  1.0000
  C   C2011     1.0  0.58799  0.36520  0.48444  1.0000
  H   H3434     1.0  0.77109  0.36082  0.62469  1.0000
  H   H3435     1.0  0.50096  0.33126  0.61067  1.0000
  H   H3436     1.0  0.50800  0.35651  0.48979  1.0000
  Fe  Fe296     1.0  0.62706  0.38512  0.56607  1.0000
  S   S586      1.0  0.59815  0.37563  0.58296  1.0000
  S   S587      1.0  0.66265  0.39100  0.56786  1.0000
  Fe  Fe297     1.0  0.60141  0.38142  0.54180  1.0000
  S   S588      1.0  0.57064  0.37213  0.55691  1.0000
  S   S589      1.0  0.60785  0.38443  0.51756  1.0000
  Fe  Fe298     1.0  0.57588  0.39876  0.56853  1.0000
  S   S590      1.0  0.54668  0.42193  0.57860  1.0000
  Fe  Fe299     1.0  0.59497  0.34979  0.57009  1.0000
  S   S591      1.0  0.60483  0.41004  0.55241  1.0000
  S   S592      1.0  0.62557  0.35730  0.55420  1.0000
  Fe  Fe300     1.0  0.81850  0.57502  0.67316  1.0000
  S   S593      1.0  0.83178  0.60431  0.65826  1.0000
  S   S594      1.0  0.82030  0.54401  0.66252  1.0000
  Fe  Fe301     1.0  0.81179  0.60021  0.69892  1.0000
  S   S595      1.0  0.82398  0.63087  0.68550  1.0000
  Fe  Fe302     1.0  0.80318  0.62562  0.67004  1.0000
  H   H3437     1.0  0.93123  0.40084  0.59684  1.0000
  Fe  Fe303     1.0  0.85133  0.60682  0.67514  1.0000
  S   S596      1.0  0.88836  0.61006  0.67273  1.0000
  S   S597      1.0  0.78877  0.59646  0.68407  1.0000
  S   S598      1.0  0.84030  0.57606  0.68944  1.0000
  C   C2012     1.0  0.89236  0.46783  0.57651  1.0000
  H   H3438     1.0  0.71083  0.38065  0.63732  1.0000
  H   H3439     1.0  0.98045  0.58742  0.62726  1.0000
  C   C2013     1.0  0.57804  0.54070  0.56500  1.0000
  H   H3440     1.0  0.50230  0.54262  0.58548  1.0000
  C   C2014     1.0  0.68045  0.40312  0.50478  1.0000
  C   C2015     1.0  0.96019  0.38453  0.48046  1.0000
  H   H3441     1.0  0.98653  0.33078  0.53433  1.0000
  H   H3442     1.0  0.96763  0.31756  0.55916  1.0000
  H   H3443     1.0  0.93161  0.62343  0.67029  1.0000
  C   C2016     1.0  0.57012  0.35365  0.49099  1.0000
  C   C2017     1.0  0.56313  0.35242  0.50576  1.0000
  C   C2018     1.0  0.57420  0.36212  0.51401  1.0000
  C   C2019     1.0  0.59255  0.37303  0.50754  1.0000
  C   C2020     1.0  0.59920  0.37477  0.49270  1.0000
  H   H3444     1.0  0.51613  0.33171  0.62487  1.0000
  H   H3445     1.0  0.54898  0.34397  0.51083  1.0000
  H   H3446     1.0  0.56867  0.36097  0.52537  1.0000
  H   H3447     1.0  0.61329  0.38330  0.48758  1.0000
  C   C2021     1.0  0.93528  0.35908  0.47862  1.0000
  C   C2022     1.0  0.76329  0.34065  0.66684  1.0000
  H   H3448     1.0  0.94189  0.45276  0.50569  1.0000
  N   N144      1.0  0.97425  0.45652  0.47840  1.0000
  S   S599      1.0  0.79892  0.60275  0.72228  1.0000
  H   H3449     1.0  0.96987  0.64026  0.60033  1.0000
  C   C2023     1.0  0.50882  0.47898  0.55040  1.0000
  C   C2024     1.0  0.52807  0.46569  0.54434  1.0000
  C   C2025     1.0  0.53956  0.44781  0.55283  1.0000
  C   C2026     1.0  0.53190  0.44326  0.56747  1.0000
  C   C2027     1.0  0.51243  0.45633  0.57348  1.0000
  H   H3450     1.0  0.95942  0.50734  0.47948  1.0000
  H   H3451     1.0  0.53430  0.46941  0.53306  1.0000
  H   H3452     1.0  0.55450  0.43777  0.54811  1.0000
  H   H3453     1.0  0.55576  0.40949  0.48736  1.0000
  C   C2028     1.0  0.93935  0.33630  0.59064  1.0000
  C   C2029     1.0  0.65673  0.43010  0.52833  1.0000
  H   H3454     1.0  0.52619  0.56414  0.57142  1.0000
  H   H3455     1.0  0.94773  0.62494  0.60169  1.0000
  H   H3456     1.0  0.87867  0.43842  0.60992  1.0000
  H   H3457     1.0  0.82843  0.59581  0.62305  1.0000
  H   H3458     1.0  0.87916  0.46141  0.57261  1.0000
  H   H3459     1.0  0.98754  0.46900  0.49414  1.0000
  H   H3460     1.0  0.90533  0.42321  0.58083  1.0000
  H   H3461     1.0  0.68483  0.42032  0.50301  1.0000
  C   C2030     1.0  0.77421  0.50261  0.64871  1.0000
  C   C2031     1.0  0.76496  0.51834  0.65793  1.0000
  C   C2032     1.0  0.77871  0.53098  0.66238  1.0000
  C   C2033     1.0  0.80195  0.52830  0.65754  1.0000
  C   C2034     1.0  0.81115  0.51265  0.64828  1.0000
  C   C2035     1.0  0.79744  0.49990  0.64390  1.0000
  H   H3462     1.0  0.74708  0.52049  0.66184  1.0000
  H   H3463     1.0  0.77142  0.54247  0.66976  1.0000
  H   H3464     1.0  0.82909  0.51028  0.64452  1.0000
  H   H3465     1.0  0.80489  0.48790  0.63685  1.0000
  C   C2036     1.0  0.69441  0.41397  0.60152  1.0000
  C   C2037     1.0  0.67147  0.41151  0.60420  1.0000
  C   C2038     1.0  0.66145  0.40451  0.59411  1.0000
  C   C2039     1.0  0.67428  0.39976  0.58115  1.0000
  C   C2040     1.0  0.69729  0.40202  0.57853  1.0000
  C   C2041     1.0  0.70730  0.40908  0.58861  1.0000
  H   H3466     1.0  0.66129  0.41507  0.61415  1.0000
  H   H3467     1.0  0.64379  0.40279  0.59635  1.0000
  H   H3468     1.0  0.70745  0.39840  0.56858  1.0000
  H   H3469     1.0  0.72494  0.41085  0.58635  1.0000
  C   C2042     1.0  0.95389  0.38161  0.49532  1.0000
  C   C2043     1.0  0.49184  0.36500  0.48644  1.0000
  C   C2044     1.0  0.97538  0.58852  0.60576  1.0000
  H   H3470     1.0  0.66947  0.43356  0.53406  1.0000
  C   C2045     1.0  0.92917  0.35589  0.49351  1.0000
  C   C2046     1.0  0.93821  0.36737  0.50184  1.0000
  C   C2047     1.0  0.94897  0.31648  0.60120  1.0000
  H   H3471     1.0  0.74660  0.34329  0.67298  1.0000
  H   H3472     1.0  0.91715  0.34475  0.49857  1.0000
  H   H3473     1.0  0.93303  0.36523  0.51326  1.0000
  C   C2048     1.0  0.87381  0.39910  0.57524  1.0000
  C   C2049     1.0  0.87126  0.41868  0.56525  1.0000
  C   C2050     1.0  0.85170  0.43461  0.56704  1.0000
  C   C2051     1.0  0.83486  0.43123  0.57892  1.0000
  C   C2052     1.0  0.83742  0.41159  0.58884  1.0000
  C   C2053     1.0  0.85676  0.39553  0.58694  1.0000
  H   H3474     1.0  0.88426  0.42149  0.55614  1.0000
  H   H3475     1.0  0.84971  0.44971  0.55929  1.0000
  H   H3476     1.0  0.82463  0.40885  0.59809  1.0000
  H   H3477     1.0  0.85863  0.38045  0.59472  1.0000
  C   C2054     1.0  0.80645  0.33387  0.65108  1.0000
  C   C2055     1.0  0.79338  0.35512  0.64928  1.0000
  C   C2056     1.0  0.77176  0.35854  0.65720  1.0000
  H   H3478     1.0  0.50181  0.44127  0.47873  1.0000
  H   H3479     1.0  0.76169  0.37495  0.65598  1.0000
  H   H3480     1.0  0.91661  0.32871  0.62295  1.0000
  N   N145      1.0  0.68051  0.46868  0.64657  1.0000
  C   C2057     1.0  0.68191  0.44386  0.65195  1.0000
  C   C2058     1.0  0.66092  0.47622  0.63855  1.0000
  C   C2059     1.0  0.67705  0.48175  0.65870  1.0000
  C   C2060     1.0  0.70238  0.47284  0.63706  1.0000
  C   C2061     1.0  0.69749  0.43419  0.66318  1.0000
  C   C2062     1.0  0.66258  0.46576  0.62505  1.0000
  C   C2063     1.0  0.65588  0.47858  0.66998  1.0000
  C   C2064     1.0  0.70311  0.49687  0.62885  1.0000
  H   H3481     1.0  0.66497  0.43923  0.65652  1.0000
  H   H3482     1.0  0.68805  0.43419  0.64299  1.0000
  H   H3483     1.0  0.65808  0.49477  0.63551  1.0000
  H   H3484     1.0  0.64504  0.47202  0.64543  1.0000
  H   H3485     1.0  0.69203  0.47789  0.66424  1.0000
  H   H3486     1.0  0.67548  0.50003  0.65469  1.0000
  H   H3487     1.0  0.71642  0.46905  0.64332  1.0000
  H   H3488     1.0  0.70714  0.46130  0.62906  1.0000
  H   H3489     1.0  0.69008  0.43906  0.67371  1.0000
  H   H3490     1.0  0.69988  0.41559  0.66462  1.0000
  H   H3491     1.0  0.71438  0.43928  0.65997  1.0000
  H   H3492     1.0  0.66270  0.44740  0.62765  1.0000
  H   H3493     1.0  0.64751  0.47289  0.61992  1.0000
  H   H3494     1.0  0.67748  0.46940  0.61701  1.0000
  H   H3495     1.0  0.65655  0.48694  0.67908  1.0000
  H   H3496     1.0  0.65464  0.46078  0.67432  1.0000
  H   H3497     1.0  0.64029  0.48667  0.66568  1.0000
  H   H3498     1.0  0.69139  0.50145  0.62098  1.0000
  H   H3499     1.0  0.72030  0.49784  0.62275  1.0000
  H   H3500     1.0  0.69989  0.50954  0.63601  1.0000
  H   H3501     1.0  0.93764  0.45874  0.48184  1.0000
  H   H3502     1.0  0.97582  0.34626  0.51895  1.0000
  H   H3503     1.0  0.94423  0.48185  0.49846  1.0000
  H   H3504     1.0  0.75133  0.58243  0.61460  1.0000
  H   H3505     1.0  0.92425  0.60582  0.61603  1.0000
  H   H3506     1.0  0.51090  0.55914  0.54351  1.0000
  H   H3507     1.0  0.90795  0.45740  0.60991  1.0000
  H   H3508     1.0  0.64200  0.40234  0.52549  1.0000
  C   C2065     1.0  0.98534  0.62289  0.64052  1.0000
  H   H3509     1.0  0.90642  0.60972  0.71336  1.0000
  H   H3510     1.0  0.75204  0.33896  0.59799  1.0000
  H   H3511     1.0  0.78180  0.57867  0.61046  1.0000
  H   H3512     1.0  0.93180  0.62820  0.63617  1.0000
  H   H3513     1.0  0.76435  0.64565  0.63132  1.0000
  H   H3514     1.0  0.75413  0.63657  0.68303  1.0000
  H   H3515     1.0  0.97250  0.39522  0.47530  1.0000
  H   H3516     1.0  0.69935  0.34995  0.53603  1.0000
  H   H3517     1.0  0.67470  0.33764  0.53707  1.0000
  H   H3518     1.0  0.57615  0.55701  0.56878  1.0000
  C   C2066     1.0  0.50936  0.52474  0.58565  1.0000
  H   H3519     1.0  0.73468  0.60813  0.63604  1.0000
  H   H3520     1.0  0.61324  0.63552  0.69601  1.0000
  H   H3521     1.0  0.90532  0.48176  0.55481  1.0000
  C   C2067     1.0  0.49933  0.33139  0.62220  1.0000
  H   H3522     1.0  0.95808  0.32395  0.60763  1.0000
  H   H3523     1.0  0.67285  0.36162  0.54541  1.0000
  H   H3524     1.0  0.58078  0.54387  0.55322  1.0000
  C   C2068     1.0  0.52519  0.39714  0.48619  1.0000
  C   C2069     1.0  0.74733  0.32827  0.60842  1.0000
  H   H3525     1.0  0.95217  0.43143  0.48429  1.0000
  C   C2070     1.0  0.95319  0.46571  0.50318  1.0000
  H   H3526     1.0  0.79550  0.62001  0.63123  1.0000
  H   H3527     1.0  0.98696  0.64247  0.61961  1.0000
  H   H3528     1.0  0.82319  0.33114  0.64501  1.0000
  C   C2071     1.0  0.89933  0.63427  0.66338  1.0000
  C   C2072     1.0  0.97379  0.63487  0.62767  1.0000
  H   H3529     1.0  0.53586  0.39161  0.47643  1.0000
  C   C2073     1.0  0.92698  0.60029  0.62718  1.0000
  H   H3530     1.0  0.86024  0.47918  0.60608  1.0000
  H   H3531     1.0  0.77684  0.61135  0.65367  1.0000
  H   H3532     1.0  0.76641  0.36534  0.60676  1.0000
  H   H3533     1.0  0.64007  0.43683  0.53401  1.0000
  H   H3534     1.0  0.90994  0.60318  0.63363  1.0000
  C   C2074     1.0  0.91186  0.31716  0.61682  1.0000
  H   H3535     1.0  0.79720  0.32584  0.62164  1.0000
  H   H3536     1.0  0.90412  0.40801  0.60661  1.0000
  C   C2075     1.0  0.65769  0.40474  0.52879  1.0000
  C   C2076     1.0  0.87615  0.44687  0.59899  1.0000
  C   C2077     1.0  0.72146  0.38392  0.51868  1.0000
  H   H3537     1.0  0.54301  0.56739  0.55447  1.0000
  H   H3538     1.0  0.93990  0.47342  0.60170  1.0000
  H   H3539     1.0  0.98385  0.49279  0.55791  1.0000
  C   C2078     1.0  0.91313  0.43207  0.58720  1.0000
  H   H3540     1.0  0.84184  0.45905  0.60803  1.0000
  H   H3541     1.0  0.65444  0.38750  0.49888  1.0000
  H   H3542     1.0  0.49380  0.55921  0.56094  1.0000
  H   H3543     1.0  0.92930  0.43524  0.58040  1.0000
  H   H3544     1.0  0.53515  0.41038  0.50323  1.0000
  H   H3545     1.0  0.65603  0.39703  0.54015  1.0000
  H   H3546     1.0  0.80495  0.34889  0.60869  1.0000
  C   C2079     1.0  0.50078  0.47403  0.56495  1.0000
  C   C2080     1.0  0.89390  0.62217  0.70797  1.0000
  C   C2081     1.0  0.72418  0.32223  0.60781  1.0000
  H   H3547     1.0  0.88506  0.48523  0.57827  1.0000
  H   H3548     1.0  0.95862  0.58325  0.60767  1.0000
  H   H3549     1.0  0.50514  0.58358  0.55184  1.0000
  Fe  Fe304     1.0  0.97869  0.36683  0.55526  1.0000
  H   H3550     1.0  0.81610  0.58061  0.63930  1.0000
  H   H3551     1.0  0.70068  0.41366  0.52439  1.0000
  C   C2082     1.0  0.91161  0.46960  0.56374  1.0000
  H   H3552     1.0  0.65222  0.62595  0.69843  1.0000
  H   H3553     1.0  0.87921  0.61368  0.70849  1.0000
  H   H3554     1.0  0.71978  0.36932  0.51403  1.0000
  S   S600      1.0  0.96626  0.39590  0.50526  1.0000
  H   H3555     1.0  0.97314  0.61667  0.64977  1.0000
  C   C2083     1.0  0.69880  0.39568  0.52588  1.0000
  C   C2084     1.0  0.49827  0.42734  0.47415  1.0000
  C   C2085     1.0  0.75278  0.32285  0.63370  1.0000
  C   C2086     1.0  0.76894  0.35206  0.61613  1.0000
  C   C2087     1.0  0.65964  0.40419  0.49771  1.0000
  H   H3556     1.0  0.64517  0.41611  0.50197  1.0000
  H   H3557     1.0  0.65835  0.43950  0.51735  1.0000
  S   S601      1.0  0.50443  0.62089  0.61011  1.0000
  C   C2088     1.0  0.68096  0.35384  0.53594  1.0000
  H   H3558     1.0  0.49375  0.58056  0.60390  1.0000
  H   H3559     1.0  0.94547  0.32856  0.52799  1.0000
  C   C2089     1.0  0.81357  0.58759  0.62825  1.0000
  C   C2090     1.0  0.91905  0.41518  0.60039  1.0000
  H   H3560     1.0  0.87013  0.43443  0.59421  1.0000
  H   H3561     1.0  0.93003  0.48934  0.58589  1.0000
  H   H3562     1.0  0.75183  0.61706  0.61993  1.0000
  C   C2091     1.0  0.95498  0.63463  0.60775  1.0000
  H   H3563     1.0  0.95362  0.34310  0.58324  1.0000
  H   H3564     1.0  0.65796  0.36713  0.52113  1.0000
  H   H3565     1.0  0.69713  0.39044  0.53766  1.0000
  C   C2092     1.0  0.79203  0.60501  0.62761  1.0000
  C   C2093     1.0  0.67554  0.36870  0.52191  1.0000
  H   H3566     1.0  0.90178  0.62628  0.69671  1.0000
  N   N146      1.0  0.77058  0.59753  0.63613  1.0000
  H   H3567     1.0  0.73278  0.37742  0.52674  1.0000
  C   C2094     1.0  0.62470  0.64546  0.68798  1.0000
  C   C2095     1.0  0.76814  0.57475  0.63353  1.0000
  C   C2096     1.0  0.77148  0.59601  0.65172  1.0000
  H   H3568     1.0  0.92617  0.47572  0.56606  1.0000
  H   H3569     1.0  0.85018  0.47369  0.59076  1.0000
  C   C2097     1.0  0.76717  0.57300  0.61800  1.0000
  C   C2098     1.0  0.74927  0.59272  0.66209  1.0000
  C   C2099     1.0  0.75095  0.61438  0.63169  1.0000
  H   H3570     1.0  0.79049  0.61053  0.61617  1.0000
  S   S602      1.0  0.55645  0.33971  0.48144  1.0000
  H   H3571     1.0  0.52107  0.51939  0.59351  1.0000
  H   H3572     1.0  0.78205  0.56185  0.63710  1.0000
  H   H3573     1.0  0.75266  0.56899  0.64005  1.0000
  H   H3574     1.0  0.78461  0.58204  0.65517  1.0000
  H   H3575     1.0  0.59178  0.31661  0.52013  1.0000
  C   C2100     1.0  0.85626  0.46607  0.60095  1.0000
  H   H3576     1.0  0.54844  0.32946  0.57220  1.0000
  C   C2101     1.0  0.53744  0.41307  0.49140  1.0000
  H   H3577     1.0  0.81360  0.57364  0.62247  1.0000
  H   H3578     1.0  0.50639  0.45277  0.58479  1.0000
  H   H3579     1.0  0.76742  0.55513  0.61726  1.0000
  H   H3580     1.0  0.75289  0.57951  0.67125  1.0000
  H   H3581     1.0  0.73618  0.58768  0.65745  1.0000
  H   H3582     1.0  0.74219  0.60815  0.66679  1.0000
  C   C2102     1.0  0.64655  0.64377  0.69422  1.0000
  H   H3583     1.0  0.50016  0.43255  0.50545  1.0000
  H   H3584     1.0  0.58779  0.63524  0.68065  1.0000
  H   H3585     1.0  0.49088  0.39252  0.50638  1.0000
  H   H3586     1.0  0.66378  0.41030  0.48612  1.0000
  H   H3587     1.0  0.94833  0.60289  0.64150  1.0000
  H   H3588     1.0  0.50703  0.52107  0.56429  1.0000
  H   H3589     1.0  0.94276  0.46036  0.58675  1.0000
  N   N147      1.0  0.53872  0.53299  0.56302  1.0000
  C   C2103     1.0  0.52060  0.51943  0.57078  1.0000
  C   C2104     1.0  0.54666  0.52596  0.54856  1.0000
  C   C2105     1.0  0.52992  0.55773  0.56108  1.0000
  C   C2106     1.0  0.55753  0.52867  0.57166  1.0000
  H   H3590     1.0  0.79229  0.32847  0.60340  1.0000
  C   C2107     1.0  0.56219  0.50320  0.54835  1.0000
  C   C2108     1.0  0.50878  0.56498  0.55389  1.0000
  H   H3591     1.0  0.72885  0.35813  0.64593  1.0000
  H   H3592     1.0  0.52744  0.50128  0.57236  1.0000
  H   H3593     1.0  0.55548  0.53875  0.54096  1.0000
  H   H3594     1.0  0.53207  0.52486  0.54352  1.0000
  H   H3595     1.0  0.95703  0.46803  0.51352  1.0000
  N   N148      1.0  0.50110  0.40525  0.48404  1.0000
  H   H3596     1.0  0.55140  0.53434  0.58215  1.0000
  H   H3597     1.0  0.56342  0.51040  0.57455  1.0000
  C   C2109     1.0  0.97916  0.60038  0.61760  1.0000
  C   C2110     1.0  0.93128  0.47264  0.59273  1.0000
  C   C2111     1.0  0.92162  0.63641  0.66393  1.0000
  H   H3598     1.0  0.55508  0.48956  0.55608  1.0000
  H   H3599     1.0  0.56434  0.49845  0.53761  1.0000
  H   H3600     1.0  0.57918  0.50409  0.55043  1.0000
  H   H3601     1.0  0.74535  0.63747  0.64740  1.0000
  N   N149      1.0  0.74888  0.33977  0.62061  1.0000
  S   S603      1.0  0.97072  0.45234  0.55428  1.0000
  H   H3602     1.0  0.59362  0.53001  0.56806  1.0000
  H   H3603     1.0  0.71250  0.35004  0.62533  1.0000
  H   H3604     1.0  0.91722  0.45341  0.55976  1.0000
  C   C2112     1.0  0.90767  0.46625  0.59878  1.0000
  H   H3605     1.0  0.89648  0.48232  0.60023  1.0000
  C   C2113     1.0  0.94251  0.61359  0.63190  1.0000
  H   H3606     1.0  0.92879  0.33162  0.58396  1.0000
  H   H3607     1.0  0.62960  0.63600  0.67885  1.0000
  H   H3608     1.0  0.93338  0.58205  0.62894  1.0000
  H   H3609     1.0  0.68606  0.36061  0.51303  1.0000
  N   N150      1.0  0.67820  0.39305  0.52033  1.0000
  C   C2114     1.0  0.79196  0.33763  0.61226  1.0000
  N   N151      1.0  0.89788  0.45341  0.59024  1.0000
  H   H3610     1.0  0.92716  0.42262  0.60729  1.0000
  H   H3611     1.0  0.90354  0.32850  0.60837  1.0000
  N   N152      1.0  0.96223  0.62057  0.62113  1.0000
  H   H3612     1.0  0.75906  0.33029  0.64148  1.0000
  H   H3613     1.0  0.72977  0.39584  0.51008  1.0000
  H   H3614     1.0  0.60995  0.33155  0.53463  1.0000
  H   H3615     1.0  0.53253  0.43096  0.48733  1.0000
  H   H3616     1.0  0.71223  0.33746  0.60460  1.0000
  C   C2115     1.0  0.74902  0.63783  0.63573  1.0000
  C   C2116     1.0  0.72738  0.36972  0.63578  1.0000
  C   C2117     1.0  0.49075  0.61617  0.59658  1.0000
  H   H3617     1.0  0.98180  0.44105  0.49942  1.0000
  H   H3618     1.0  0.74030  0.38094  0.63356  1.0000
  C   C2118     1.0  0.60021  0.31799  0.54026  1.0000
  C   C2119     1.0  0.72837  0.35719  0.62325  1.0000
  H   H3619     1.0  0.87844  0.31736  0.62951  1.0000
  H   H3620     1.0  0.52623  0.38159  0.49417  1.0000
  C   C2120     1.0  0.95300  0.44805  0.47748  1.0000
  C   C2121     1.0  0.88783  0.64285  0.71560  1.0000
  H   H3621     1.0  0.97816  0.59911  0.59514  1.0000
  H   H3622     1.0  0.49510  0.51509  0.58954  1.0000
  H   H3623     1.0  0.58409  0.32618  0.54568  1.0000
  H   H3624     1.0  0.55486  0.31666  0.53115  1.0000
  S   S604      1.0  0.49619  0.50244  0.53962  1.0000
  H   H3625     1.0  0.84913  0.63893  0.70657  1.0000
  C   C2122     1.0  0.99000  0.33364  0.52248  1.0000
  H   H3626     1.0  0.71627  0.32121  0.64161  1.0000
  H   H3627     1.0  0.96179  0.64924  0.63139  1.0000
  H   H3628     1.0  0.98810  0.57317  0.60519  1.0000
  C   C2123     1.0  0.77638  0.31933  0.66851  1.0000
  C   C2124     1.0  0.98565  0.31648  0.50204  1.0000
  H   H3629     1.0  0.94021  0.49302  0.47372  1.0000
  H   H3630     1.0  0.90375  0.64922  0.71553  1.0000
  H   H3631     1.0  0.66054  0.64935  0.68601  1.0000
  H   H3632     1.0  0.73478  0.64905  0.63128  1.0000
  Fe  Fe305     1.0  0.58083  0.54287  0.94057  1.0000
  S   S605      1.0  0.54955  0.54915  0.93065  1.0000
  S   S606      1.0  0.57900  0.56216  0.95846  1.0000
  Fe  Fe306     1.0  0.60594  0.51058  0.92052  1.0000
  S   S607      1.0  0.57630  0.51399  0.90917  1.0000
  S   S608      1.0  0.63668  0.48460  0.91559  1.0000
  Fe  Fe307     1.0  0.57293  0.55092  0.90984  1.0000
  S   S609      1.0  0.56825  0.57709  0.89026  1.0000
  Fe  Fe308     1.0  0.55536  0.51199  0.93094  1.0000
  S   S610      1.0  0.52661  0.49276  0.94097  1.0000
  S   S611      1.0  0.60415  0.54763  0.91967  1.0000
  S   S612      1.0  0.58510  0.50563  0.94238  1.0000
  S   S613      1.0  0.85982  0.62558  0.80264  1.0000
  H   H3633     1.0  0.71352  0.48734  0.93820  1.0000
  C   C2125     1.0  0.87135  0.52796  0.85128  1.0000
  H   H3634     1.0  0.83459  0.53893  0.87164  1.0000
  H   H3635     1.0  0.51308  0.60368  0.87309  1.0000
  S   S614      1.0  0.81888  0.35649  0.81302  1.0000
  C   C2126     1.0  0.57034  0.64318  0.91153  1.0000
  C   C2127     1.0  0.60718  0.60928  0.90111  1.0000
  H   H3636     1.0  0.69398  0.38275  0.83935  1.0000
  S   S615      1.0  0.80324  0.61636  0.82927  1.0000
  Fe  Fe309     1.0  0.82426  0.63741  0.81193  1.0000
  Fe  Fe310     1.0  0.94699  0.55422  0.91182  1.0000
  S   S616      1.0  0.91638  0.57154  0.92422  1.0000
  C   C2128     1.0  0.85286  0.60433  0.74079  1.0000
  Fe  Fe311     1.0  0.94188  0.50870  0.93019  1.0000
  S   S617      1.0  0.91044  0.52260  0.94391  1.0000
  Fe  Fe312     1.0  0.90067  0.54162  0.92317  1.0000
  S   S618      1.0  0.86641  0.54760  0.91627  1.0000
  Fe  Fe313     1.0  0.92918  0.55084  0.94369  1.0000
  S   S619      1.0  0.93066  0.52547  0.90947  1.0000
  S   S620      1.0  0.96120  0.53573  0.93119  1.0000
  Fe  Fe314     1.0  0.76285  0.48872  0.87629  1.0000
  S   S621      1.0  0.77852  0.45612  0.88782  1.0000
  S   S622      1.0  0.73144  0.51161  0.88448  1.0000
  Fe  Fe315     1.0  0.80323  0.49088  0.85261  1.0000
  S   S623      1.0  0.82188  0.45816  0.86202  1.0000
  S   S624      1.0  0.82131  0.51083  0.83317  1.0000
  Fe  Fe316     1.0  0.78868  0.44560  0.86607  1.0000
  S   S625      1.0  0.78518  0.40951  0.86530  1.0000
  Fe  Fe317     1.0  0.81052  0.47105  0.88275  1.0000
  S   S626      1.0  0.83572  0.46574  0.89780  1.0000
  S   S627      1.0  0.77061  0.47747  0.85481  1.0000
  S   S628      1.0  0.79427  0.50451  0.87311  1.0000
  C   C2129     1.0  0.78300  0.48613  0.92047  1.0000
  C   C2130     1.0  0.85773  0.52466  0.91149  1.0000
  C   C2131     1.0  0.83782  0.52789  0.90567  1.0000
  C   C2132     1.0  0.83120  0.51008  0.90105  1.0000
  C   C2133     1.0  0.84404  0.48876  0.90273  1.0000
  C   C2134     1.0  0.86370  0.48547  0.90878  1.0000
  C   C2135     1.0  0.87069  0.50341  0.91299  1.0000
  H   H3637     1.0  0.82769  0.54428  0.90455  1.0000
  H   H3638     1.0  0.81609  0.51278  0.89635  1.0000
  H   H3639     1.0  0.87365  0.46899  0.91016  1.0000
  H   H3640     1.0  0.88601  0.50074  0.91751  1.0000
  H   H3641     1.0  0.56733  0.59948  0.91823  1.0000
  C   C2136     1.0  0.81673  0.60954  0.73271  1.0000
  H   H3642     1.0  0.64573  0.40833  0.93081  1.0000
  H   H3643     1.0  0.77021  0.50586  0.94211  1.0000
  S   S629      1.0  0.96714  0.57255  0.89256  1.0000
  C   C2137     1.0  0.80884  0.58700  0.83055  1.0000
  C   C2138     1.0  0.82748  0.57650  0.82219  1.0000
  C   C2139     1.0  0.83143  0.55306  0.82332  1.0000
  C   C2140     1.0  0.81659  0.54002  0.83263  1.0000
  C   C2141     1.0  0.79804  0.55048  0.84108  1.0000
  C   C2142     1.0  0.79425  0.57391  0.84007  1.0000
  H   H3644     1.0  0.83885  0.58642  0.81487  1.0000
  H   H3645     1.0  0.84598  0.54502  0.81691  1.0000
  H   H3646     1.0  0.78635  0.54060  0.84819  1.0000
  H   H3647     1.0  0.77976  0.58195  0.84655  1.0000
  H   H3648     1.0  0.93335  0.63423  0.84024  1.0000
  H   H3649     1.0  0.61376  0.61555  0.94278  1.0000
  C   C2143     1.0  0.86519  0.32189  0.83437  1.0000
  C   C2144     1.0  0.84381  0.61827  0.75107  1.0000
  C   C2145     1.0  0.82123  0.62813  0.75199  1.0000
  C   C2146     1.0  0.80769  0.62359  0.74293  1.0000
  C   C2147     1.0  0.53714  0.64062  0.87986  1.0000
  H   H3650     1.0  0.79011  0.63091  0.74387  1.0000
  C   C2148     1.0  0.81166  0.37030  0.82808  1.0000
  C   C2149     1.0  0.81329  0.39319  0.82627  1.0000
  C   C2150     1.0  0.80607  0.40530  0.83770  1.0000
  C   C2151     1.0  0.79710  0.39458  0.85107  1.0000
  C   C2152     1.0  0.79613  0.37150  0.85299  1.0000
  C   C2153     1.0  0.80328  0.35942  0.84154  1.0000
  H   H3651     1.0  0.81976  0.40175  0.81588  1.0000
  H   H3652     1.0  0.80690  0.42305  0.83609  1.0000
  H   H3653     1.0  0.78917  0.36311  0.86331  1.0000
  H   H3654     1.0  0.80168  0.34188  0.84303  1.0000
  C   C2154     1.0  0.52041  0.47203  0.93264  1.0000
  C   C2155     1.0  0.50511  0.45785  0.94017  1.0000
  H   H3655     1.0  0.97906  0.35106  0.90674  1.0000
  C   C2156     1.0  0.51209  0.43663  0.92063  1.0000
  C   C2157     1.0  0.52712  0.45104  0.91300  1.0000
  C   C2158     1.0  0.53110  0.46884  0.91893  1.0000
  H   H3656     1.0  0.86295  0.53475  0.84181  1.0000
  N   N153      1.0  0.58217  0.62647  0.92234  1.0000
  H   H3657     1.0  0.53569  0.44840  0.90248  1.0000
  H   H3658     1.0  0.54256  0.47998  0.91295  1.0000
  C   C2159     1.0  0.75514  0.50042  0.93967  1.0000
  H   H3659     1.0  0.74750  0.46461  0.92818  1.0000
  H   H3660     1.0  0.70873  0.35501  0.83732  1.0000
  C   C2160     1.0  0.66263  0.49239  0.90629  1.0000
  C   C2161     1.0  0.66612  0.51474  0.90335  1.0000
  C   C2162     1.0  0.68719  0.52032  0.89640  1.0000
  C   C2163     1.0  0.70492  0.50367  0.89226  1.0000
  C   C2164     1.0  0.70139  0.48132  0.89501  1.0000
  C   C2165     1.0  0.68032  0.47571  0.90207  1.0000
  H   H3661     1.0  0.65265  0.52771  0.90653  1.0000
  H   H3662     1.0  0.68980  0.53764  0.89430  1.0000
  H   H3663     1.0  0.71494  0.46836  0.89189  1.0000
  H   H3664     1.0  0.67775  0.45838  0.90431  1.0000
  C   C2166     1.0  0.54952  0.60243  0.89103  1.0000
  C   C2167     1.0  0.53269  0.60539  0.90277  1.0000
  C   C2168     1.0  0.51827  0.62597  0.90310  1.0000
  H   H3665     1.0  0.78341  0.44954  0.92451  1.0000
  C   C2169     1.0  0.96484  0.60891  0.90594  1.0000
  C   C2170     1.0  0.55159  0.62007  0.87955  1.0000
  H   H3666     1.0  0.53068  0.59176  0.91155  1.0000
  C   C2171     1.0  0.86223  0.50582  0.85787  1.0000
  H   H3667     1.0  0.56667  0.44955  0.97021  1.0000
  H   H3668     1.0  0.56453  0.61787  0.87040  1.0000
  H   H3669     1.0  0.88037  0.59229  0.83573  1.0000
  H   H3670     1.0  0.61456  0.60486  0.92220  1.0000
  H   H3671     1.0  0.87357  0.35464  0.82257  1.0000
  H   H3672     1.0  0.78705  0.48490  0.90890  1.0000
  H   H3673     1.0  0.76437  0.55219  0.90779  1.0000
  H   H3674     1.0  0.60103  0.44266  0.95334  1.0000
  H   H3675     1.0  0.92716  0.62294  0.89135  1.0000
  H   H3676     1.0  0.60002  0.62185  0.89269  1.0000
  H   H3677     1.0  0.88202  0.63641  0.72699  1.0000
  H   H3678     1.0  0.74015  0.53104  0.94863  1.0000
  H   H3679     1.0  0.72393  0.52550  0.93651  1.0000
  C   C2172     1.0  0.75577  0.51860  0.91399  1.0000
  C   C2173     1.0  0.98251  0.46161  0.92878  1.0000
  C   C2174     1.0  0.56533  0.44778  0.95921  1.0000
  C   C2175     1.0  0.50088  0.44023  0.93417  1.0000
  H   H3680     1.0  0.75950  0.42154  0.81393  1.0000
  C   C2176     1.0  0.98503  0.61111  0.88182  1.0000
  C   C2177     1.0  0.91240  0.62947  0.88576  1.0000
  H   H3681     1.0  0.77642  0.38248  0.81039  1.0000
  C   C2178     1.0  0.97028  0.62985  0.90666  1.0000
  H   H3682     1.0  0.96364  0.36903  0.89336  1.0000
  N   N154      1.0  0.74371  0.37793  0.82290  1.0000
  H   H3683     1.0  0.79494  0.49650  0.92232  1.0000
  C   C2179     1.0  0.50035  0.59339  0.87930  1.0000
  H   H3684     1.0  0.76608  0.41838  0.79567  1.0000
  H   H3685     1.0  0.88399  0.61455  0.88218  1.0000
  H   H3686     1.0  0.71855  0.37813  0.80970  1.0000
  H   H3687     1.0  0.96857  0.40312  0.89413  1.0000
  H   H3688     1.0  0.72346  0.50915  0.95381  1.0000
  H   H3689     1.0  0.68881  0.36784  0.82628  1.0000
  N   N155      1.0  0.86785  0.54521  0.86098  1.0000
  C   C2180     1.0  0.84291  0.55275  0.86479  1.0000
  C   C2181     1.0  0.87982  0.56454  0.85340  1.0000
  C   C2182     1.0  0.87727  0.53547  0.87451  1.0000
  C   C2183     1.0  0.83608  0.57294  0.87287  1.0000
  C   C2184     1.0  0.87066  0.57821  0.84006  1.0000
  C   C2185     1.0  0.90221  0.52460  0.87271  1.0000
  H   H3690     1.0  0.87986  0.57638  0.86079  1.0000
  H   H3691     1.0  0.89787  0.55855  0.84971  1.0000
  H   H3692     1.0  0.87574  0.54847  0.88136  1.0000
  H   H3693     1.0  0.86746  0.52254  0.88098  1.0000
  H   H3694     1.0  0.73735  0.42060  0.80402  1.0000
  C   C2186     1.0  0.99011  0.63224  0.88246  1.0000
  H   H3695     1.0  0.92879  0.48505  0.96575  1.0000
  H   H3696     1.0  0.87282  0.56803  0.83147  1.0000
  H   H3697     1.0  0.85278  0.58581  0.84239  1.0000
  H   H3698     1.0  0.90525  0.50992  0.86713  1.0000
  H   H3699     1.0  0.90690  0.51836  0.88346  1.0000
  H   H3700     1.0  0.91363  0.53670  0.86718  1.0000
  H   H3701     1.0  0.88948  0.52374  0.84689  1.0000
  H   H3702     1.0  0.84374  0.50854  0.86123  1.0000
  C   C2187     1.0  0.75477  0.41355  0.80579  1.0000
  C   C2188     1.0  0.86530  0.34516  0.85214  1.0000
  H   H3703     1.0  0.59905  0.59412  0.90292  1.0000
  H   H3704     1.0  0.89168  0.63656  0.86138  1.0000
  H   H3705     1.0  0.55009  0.43998  0.95997  1.0000
  C   C2189     1.0  0.89887  0.60995  0.88768  1.0000
  H   H3706     1.0  0.49665  0.46032  0.95075  1.0000
  C   C2190     1.0  0.98548  0.40692  0.88900  1.0000
  H   H3707     1.0  0.87049  0.49647  0.86693  1.0000
  H   H3708     1.0  0.84248  0.56965  0.88314  1.0000
  H   H3709     1.0  0.50765  0.57560  0.87877  1.0000
  H   H3710     1.0  0.98501  0.40912  0.87737  1.0000
  H   H3711     1.0  0.83466  0.55694  0.85513  1.0000
  Fe  Fe318     1.0  0.84921  0.64119  0.78150  1.0000
  H   H3712     1.0  0.74152  0.38831  0.85780  1.0000
  H   H3713     1.0  0.76115  0.51531  0.90283  1.0000
  H   H3714     1.0  0.89249  0.60528  0.89920  1.0000
  H   H3715     1.0  0.86331  0.33446  0.87567  1.0000
  C   C2191     1.0  0.58468  0.63764  0.93442  1.0000
  H   H3716     1.0  0.70928  0.47634  0.92349  1.0000
  H   H3717     1.0  0.77064  0.35059  0.82691  1.0000
  N   N156      1.0  0.58800  0.42911  0.93791  1.0000
  C   C2192     1.0  0.58711  0.43361  0.95284  1.0000
  C   C2193     1.0  0.60912  0.41275  0.93462  1.0000
  C   C2194     1.0  0.56742  0.41880  0.93782  1.0000
  C   C2195     1.0  0.58800  0.45117  0.92797  1.0000
  H   H3718     1.0  0.84691  0.32793  0.83449  1.0000
  C   C2196     1.0  0.63150  0.42141  0.93393  1.0000
  C   C2197     1.0  0.56825  0.40530  0.92579  1.0000
  C   C2198     1.0  0.59258  0.45051  0.91182  1.0000
  H   H3719     1.0  0.81741  0.57629  0.87537  1.0000
  H   H3720     1.0  0.85461  0.36306  0.87017  1.0000
  H   H3721     1.0  0.61024  0.40697  0.92433  1.0000
  H   H3722     1.0  0.60894  0.39717  0.94266  1.0000
  H   H3723     1.0  0.56355  0.40702  0.94791  1.0000
  H   H3724     1.0  0.55229  0.43188  0.93742  1.0000
  H   H3725     1.0  0.57155  0.46211  0.93000  1.0000
  H   H3726     1.0  0.60005  0.46108  0.93021  1.0000
  C   C2199     1.0  0.98288  0.64159  0.89493  1.0000
  S   S630      1.0  0.86141  0.62291  0.76240  1.0000
  H   H3727     1.0  0.75206  0.36169  0.85266  1.0000
  H   H3728     1.0  0.84795  0.35251  0.85011  1.0000
  H   H3729     1.0  0.98953  0.42917  0.90358  1.0000
  C   C2200     1.0  0.70209  0.37141  0.83155  1.0000
  H   H3730     1.0  0.55132  0.40067  0.92644  1.0000
  H   H3731     1.0  0.58001  0.38931  0.92707  1.0000
  H   H3732     1.0  0.57238  0.41491  0.91506  1.0000
  H   H3733     1.0  0.57669  0.45161  0.90764  1.0000
  H   H3734     1.0  0.60438  0.43582  0.90865  1.0000
  H   H3735     1.0  0.60087  0.46509  0.90620  1.0000
  S   S631      1.0  0.95559  0.47243  0.93698  1.0000
  N   N157      1.0  0.75890  0.49700  0.92433  1.0000
  C   C2201     1.0  0.75827  0.38774  0.80958  1.0000
  H   H3736     1.0  0.87589  0.35670  0.84475  1.0000
  H   H3737     1.0  0.54584  0.62133  0.94461  1.0000
  H   H3738     1.0  0.58652  0.60835  0.95155  1.0000
  C   C2202     1.0  0.96647  0.50319  0.96790  1.0000
  C   C2203     1.0  0.78987  0.46244  0.92858  1.0000
  H   H3739     1.0  0.74422  0.34484  0.83609  1.0000
  H   H3740     1.0  0.62518  0.60412  0.89685  1.0000
  H   H3741     1.0  0.96798  0.38414  0.91522  1.0000
  H   H3742     1.0  0.90180  0.64204  0.89201  1.0000
  H   H3743     1.0  0.98527  0.48926  0.91153  1.0000
  H   H3744     1.0  0.63368  0.42486  0.94437  1.0000
  C   C2204     1.0  0.75035  0.33942  0.81454  1.0000
  N   N158      1.0  0.92025  0.63991  0.87064  1.0000
  H   H3745     1.0  0.63325  0.43654  0.92575  1.0000
  H   H3746     1.0  0.80852  0.45822  0.92660  1.0000
  H   H3747     1.0  0.75347  0.48421  0.94688  1.0000
  H   H3748     1.0  0.82756  0.32686  0.86489  1.0000
  H   H3749     1.0  0.58942  0.41757  0.96039  1.0000
  H   H3750     1.0  0.55589  0.31994  0.85477  1.0000
  H   H3751     1.0  0.87104  0.33537  0.81175  1.0000
  H   H3752     1.0  0.73787  0.52612  0.91426  1.0000
  C   C2205     1.0  0.76868  0.53705  0.91564  1.0000
  H   H3753     1.0  0.49765  0.59523  0.89068  1.0000
  C   C2206     1.0  0.52042  0.64364  0.89165  1.0000
  C   C2207     1.0  0.57028  0.60630  0.92742  1.0000
  H   H3754     1.0  0.87033  0.59663  0.74001  1.0000
  H   H3755     1.0  0.74665  0.47956  0.91063  1.0000
  C   C2208     1.0  0.74004  0.37721  0.85030  1.0000
  H   H3756     1.0  0.76410  0.54205  0.92633  1.0000
  C   C2209     1.0  0.97917  0.35725  0.89522  1.0000
  H   H3757     1.0  0.54641  0.51824  0.96891  1.0000
  H   H3758     1.0  0.58120  0.59205  0.93282  1.0000
  N   N159      1.0  0.80753  0.56537  0.78271  1.0000
  C   C2210     1.0  0.79863  0.57887  0.76971  1.0000
  C   C2211     1.0  0.83008  0.57189  0.78289  1.0000
  C   C2212     1.0  0.79186  0.57011  0.79616  1.0000
  C   C2213     1.0  0.80951  0.54083  0.78198  1.0000
  C   C2214     1.0  0.77474  0.57620  0.76804  1.0000
  C   C2215     1.0  0.84992  0.56231  0.77225  1.0000
  C   C2216     1.0  0.78648  0.59489  0.79822  1.0000
  C   C2217     1.0  0.81920  0.52443  0.79430  1.0000
  H   H3759     1.0  0.79855  0.59699  0.76943  1.0000
  H   H3760     1.0  0.80989  0.57475  0.75981  1.0000
  H   H3761     1.0  0.83504  0.56709  0.79362  1.0000
  H   H3762     1.0  0.82928  0.59046  0.78061  1.0000
  H   H3763     1.0  0.77566  0.56383  0.79699  1.0000
  H   H3764     1.0  0.79899  0.56070  0.80568  1.0000
  H   H3765     1.0  0.79267  0.53629  0.78218  1.0000
  H   H3766     1.0  0.81920  0.53663  0.77163  1.0000
  H   H3767     1.0  0.76185  0.58117  0.77704  1.0000
  H   H3768     1.0  0.77029  0.58752  0.75825  1.0000
  H   H3769     1.0  0.77381  0.55902  0.76651  1.0000
  H   H3770     1.0  0.86474  0.57053  0.77208  1.0000
  H   H3771     1.0  0.85498  0.54408  0.77548  1.0000
  H   H3772     1.0  0.84616  0.56556  0.76125  1.0000
  H   H3773     1.0  0.77570  0.59612  0.80873  1.0000
  H   H3774     1.0  0.77704  0.60547  0.79004  1.0000
  H   H3775     1.0  0.80190  0.60185  0.79838  1.0000
  H   H3776     1.0  0.80558  0.52013  0.80325  1.0000
  H   H3777     1.0  0.83175  0.53096  0.79858  1.0000
  H   H3778     1.0  0.82822  0.50882  0.79040  1.0000
  C   C2218     1.0  0.59599  0.62230  0.94645  1.0000
  H   H3779     1.0  0.90617  0.32861  0.84188  1.0000
  H   H3780     1.0  0.72266  0.37344  0.85279  1.0000
  H   H3781     1.0  0.86557  0.49475  0.84964  1.0000
  H   H3782     1.0  0.89578  0.33108  0.81966  1.0000
  H   H3783     1.0  0.76386  0.39208  0.83401  1.0000
  C   C2219     1.0  0.98795  0.51381  0.96177  1.0000
  H   H3784     1.0  0.96050  0.49956  0.95855  1.0000
  H   H3785     1.0  0.60351  0.51802  0.96713  1.0000
  H   H3786     1.0  0.95514  0.60000  0.91506  1.0000
  H   H3787     1.0  0.90963  0.59470  0.88428  1.0000
  H   H3788     1.0  0.73262  0.34025  0.81320  1.0000
  S   S632      1.0  0.50867  0.41355  0.91333  1.0000
  H   H3789     1.0  0.56297  0.46493  0.95314  1.0000
  C   C2220     1.0  0.60563  0.61854  0.91507  1.0000
  C   C2221     1.0  0.74374  0.48164  0.92206  1.0000
  C   C2222     1.0  0.97242  0.59938  0.89355  1.0000
  H   H3790     1.0  0.92417  0.60881  0.86223  1.0000
  H   H3791     1.0  0.81412  0.63902  0.75979  1.0000
  H   H3792     1.0  0.71167  0.50518  0.92106  1.0000
  H   H3793     1.0  0.78471  0.46113  0.94025  1.0000
  C   C2223     1.0  0.74614  0.38931  0.83494  1.0000
  C   C2224     1.0  0.73453  0.51751  0.94466  1.0000
  H   H3794     1.0  0.96480  0.63697  0.91637  1.0000
  C   C2225     1.0  0.71823  0.48845  0.92651  1.0000
  H   H3795     1.0  0.78713  0.53211  0.91330  1.0000
  H   H3796     1.0  0.51071  0.63932  0.84431  1.0000
  H   H3797     1.0  0.95581  0.64278  0.84675  1.0000
  H   H3798     1.0  0.84151  0.58848  0.86641  1.0000
  C   C2226     1.0  0.93439  0.62158  0.86303  1.0000
  S   S633      1.0  0.93497  0.56562  0.96220  1.0000
  H   H3799     1.0  0.94785  0.61244  0.86917  1.0000
  C   C2227     1.0  0.54723  0.60948  0.93714  1.0000
  C   C2228     1.0  0.71973  0.38249  0.82016  1.0000
  C   C2229     1.0  0.75252  0.35321  0.82581  1.0000
  H   H3800     1.0  0.97988  0.40216  0.92353  1.0000
  H   H3801     1.0  0.56444  0.63441  0.90423  1.0000
  H   H3802     1.0  0.54460  0.59332  0.94412  1.0000
  H   H3803     1.0  0.88424  0.35229  0.86749  1.0000
  H   H3804     1.0  0.95766  0.61470  0.84386  1.0000
  H   H3805     1.0  0.73595  0.40633  0.83429  1.0000
  H   H3806     1.0  0.75670  0.32153  0.81816  1.0000
  C   C2230     1.0  0.98721  0.43002  0.89243  1.0000
  H   H3807     1.0  0.50528  0.62816  0.91222  1.0000
  H   H3808     1.0  0.71340  0.40077  0.81896  1.0000
  C   C2231     1.0  0.83944  0.60006  0.73160  1.0000
  H   H3809     1.0  0.75578  0.38140  0.80006  1.0000
  H   H3810     1.0  0.61600  0.63235  0.91252  1.0000
  H   H3811     1.0  0.53331  0.61453  0.93082  1.0000
  C   C2232     1.0  0.86726  0.34857  0.86720  1.0000
  Fe  Fe319     1.0  0.81885  0.31970  0.81227  1.0000
  C   C2233     1.0  0.87734  0.33665  0.82154  1.0000
  H   H3812     1.0  0.94046  0.45583  0.97018  1.0000
  H   H3813     1.0  0.98470  0.37284  0.92874  1.0000
  H   H3814     1.0  0.76077  0.34438  0.80413  1.0000
  H   H3815     1.0  0.97709  0.46276  0.96198  1.0000
  C   C2234     1.0  0.94582  0.62911  0.84764  1.0000
  H   H3816     1.0  0.97136  0.44164  0.89092  1.0000
  H   H3817     1.0  0.59610  0.63218  0.95492  1.0000
  H   H3818     1.0  0.97885  0.34234  0.89036  1.0000
  C   C2235     1.0  0.98303  0.38610  0.91930  1.0000
  N   N160      1.0  0.87183  0.32173  0.84864  1.0000
  H   H3819     1.0  0.49679  0.64053  0.86791  1.0000
  C   C2236     1.0  0.98146  0.46257  0.97264  1.0000
  H   H3820     1.0  0.98307  0.53218  0.95876  1.0000
  H   H3821     1.0  0.56827  0.64556  0.93967  1.0000
  H   H3822     1.0  0.98476  0.43173  0.94451  1.0000
  C   C2237     1.0  0.49473  0.63220  0.84755  1.0000
  H   H3823     1.0  0.49988  0.61408  0.84747  1.0000
  H   H3824     1.0  0.98104  0.57705  0.94259  1.0000
  H   H3825     1.0  0.84405  0.64565  0.72392  1.0000
  H   H3826     1.0  0.95306  0.51654  0.97166  1.0000
  H   H3827     1.0  0.84653  0.58904  0.72386  1.0000
  H   H3828     1.0  0.99035  0.60048  0.93068  1.0000
  C   C2238     1.0  0.85620  0.90246  0.11339  1.0000
  C   C2239     1.0  0.49317  0.90914  0.99735  1.0000
  H   H3829     1.0  0.67618  0.76480  0.14475  1.0000
  C   C2240     1.0  0.84193  0.85661  0.20908  1.0000
  H   H3830     1.0  0.76632  0.67783  0.19744  1.0000
  S   S634      1.0  0.72215  0.69010  0.15934  1.0000
  S   S635      1.0  0.67132  0.68352  0.19113  1.0000
  H   H3831     1.0  0.64261  0.71312  0.14016  1.0000
  S   S636      1.0  0.53414  0.69030  0.10369  1.0000
  H   H3832     1.0  0.60901  0.76510  0.13358  1.0000
  S   S637      1.0  0.51529  0.72786  0.12482  1.0000
  C   C2241     1.0  0.91519  0.67048  0.10723  1.0000
  H   H3833     1.0  0.63648  0.70716  0.16892  1.0000
  Fe  Fe320     1.0  0.54188  0.69736  0.12409  1.0000
  H   H3834     1.0  0.58398  0.98149  0.00076  1.0000
  H   H3835     1.0  0.58693  0.74837  0.13843  1.0000
  H   H3836     1.0  0.71800  0.96833  0.13377  1.0000
  H   H3837     1.0  0.67131  0.91207  0.15049  1.0000
  H   H3838     1.0  0.55806  0.95217  0.03469  1.0000
  Fe  Fe321     1.0  0.78135  0.77901  0.17508  1.0000
  S   S638      1.0  0.79331  0.79790  0.18926  1.0000
  S   S639      1.0  0.74472  0.77469  0.17937  1.0000
  Fe  Fe322     1.0  0.82808  0.76744  0.15867  1.0000
  S   S640      1.0  0.84379  0.78551  0.17135  1.0000
  S   S641      1.0  0.84735  0.74530  0.14279  1.0000
  Fe  Fe323     1.0  0.82192  0.76951  0.19040  1.0000
  H   H3839     1.0  0.94107  0.68431  0.09057  1.0000
  Fe  Fe324     1.0  0.81396  0.81271  0.16908  1.0000
  S   S642      1.0  0.82130  0.84843  0.16628  1.0000
  S   S643      1.0  0.80830  0.74938  0.17797  1.0000
  S   S644      1.0  0.79985  0.79590  0.15469  1.0000
  C   C2242     1.0  0.67454  0.71515  0.14476  1.0000
  H   H3840     1.0  0.97719  0.95869  0.97586  1.0000
  H   H3841     1.0  0.79012  0.93786  0.11124  1.0000
  C   C2243     1.0  0.49291  0.80431  0.09578  1.0000
  C   C2244     1.0  0.65070  0.72667  0.14228  1.0000
  C   C2245     1.0  0.83340  0.81988  0.20524  1.0000
  S   S645      1.0  0.75798  0.93385  0.13965  1.0000
  C   C2246     1.0  0.66397  0.76513  0.15481  1.0000
  H   H3842     1.0  0.50332  0.77019  0.10524  1.0000
  S   S646      1.0  0.95256  0.74535  0.12725  1.0000
  S   S647      1.0  0.98348  0.68213  0.12773  1.0000
  H   H3843     1.0  0.67385  0.69989  0.15296  1.0000
  H   H3844     1.0  0.53261  0.68246  0.07488  1.0000
  C   C2247     1.0  0.70593  0.93512  0.12328  1.0000
  H   H3845     1.0  0.89706  0.69279  0.06613  1.0000
  H   H3846     1.0  0.69716  0.92129  0.12226  1.0000
  H   H3847     1.0  0.60507  0.94590  0.03154  1.0000
  H   H3848     1.0  0.52540  0.91219  0.00368  1.0000
  H   H3849     1.0  0.62982  0.72284  0.19127  1.0000
  H   H3850     1.0  0.92611  0.65394  0.10731  1.0000
  C   C2248     1.0  0.80335  0.87201  0.15901  1.0000
  C   C2249     1.0  0.78424  0.86974  0.15379  1.0000
  C   C2250     1.0  0.77048  0.88888  0.14796  1.0000
  C   C2251     1.0  0.77572  0.91042  0.14724  1.0000
  C   C2252     1.0  0.79478  0.91271  0.15252  1.0000
  C   C2253     1.0  0.80853  0.89356  0.15837  1.0000
  H   H3851     1.0  0.78007  0.85324  0.15424  1.0000
  H   H3852     1.0  0.75573  0.88696  0.14394  1.0000
  H   H3853     1.0  0.79876  0.92923  0.15225  1.0000
  H   H3854     1.0  0.82321  0.89547  0.16247  1.0000
  C   C2254     1.0  0.87644  0.74584  0.13780  1.0000
  C   C2255     1.0  0.89033  0.72778  0.13208  1.0000
  C   C2256     1.0  0.91377  0.72744  0.12864  1.0000
  C   C2257     1.0  0.92328  0.74540  0.13062  1.0000
  C   C2258     1.0  0.90932  0.76358  0.13611  1.0000
  C   C2259     1.0  0.88600  0.76372  0.13981  1.0000
  H   H3855     1.0  0.88299  0.71379  0.13072  1.0000
  H   H3856     1.0  0.92453  0.71322  0.12470  1.0000
  H   H3857     1.0  0.91662  0.77753  0.13764  1.0000
  H   H3858     1.0  0.87540  0.77781  0.14403  1.0000
  H   H3859     1.0  0.75422  0.70556  0.18971  1.0000
  H   H3860     1.0  0.55606  0.91221  0.02868  1.0000
  H   H3861     1.0  0.52477  0.97393  0.99973  1.0000
  H   H3862     1.0  0.55528  0.69007  0.15453  1.0000
  H   H3863     1.0  0.87532  0.69640  0.11179  1.0000
  C   C2260     1.0  0.60535  0.74788  0.13776  1.0000
  N   N161      1.0  0.69142  0.94972  0.13350  1.0000
  S   S648      1.0  0.98317  0.71084  0.09532  1.0000
  H   H3864     1.0  0.64228  0.97575  0.12028  1.0000
  H   H3865     1.0  0.73264  0.76305  0.21965  1.0000
  C   C2261     1.0  0.55279  0.95149  0.00810  1.0000
  H   H3866     1.0  0.91379  0.70126  0.07706  1.0000
  H   H3867     1.0  0.65724  0.72265  0.17014  1.0000
  C   C2262     1.0  0.71392  0.94662  0.10806  1.0000
  H   H3868     1.0  0.62761  0.77164  0.15980  1.0000
  Fe  Fe325     1.0  0.69899  0.66932  0.17515  1.0000
  C   C2263     1.0  0.72821  0.71374  0.16488  1.0000
  C   C2264     1.0  0.71274  0.72504  0.17471  1.0000
  C   C2265     1.0  0.71774  0.74405  0.17882  1.0000
  C   C2266     1.0  0.73849  0.75151  0.17344  1.0000
  C   C2267     1.0  0.75403  0.74016  0.16366  1.0000
  C   C2268     1.0  0.74874  0.72152  0.15924  1.0000
  H   H3869     1.0  0.69681  0.71934  0.17902  1.0000
  H   H3870     1.0  0.70563  0.75282  0.18634  1.0000
  H   H3871     1.0  0.77004  0.74587  0.15940  1.0000
  H   H3872     1.0  0.76074  0.71292  0.15158  1.0000
  C   C2269     1.0  0.60471  0.67580  0.16793  1.0000
  C   C2270     1.0  0.61972  0.67704  0.15508  1.0000
  C   C2271     1.0  0.61149  0.68316  0.14207  1.0000
  C   C2272     1.0  0.58825  0.68791  0.14181  1.0000
  C   C2273     1.0  0.57324  0.68636  0.15463  1.0000
  C   C2274     1.0  0.75066  0.69014  0.19715  1.0000
  H   H3873     1.0  0.63766  0.67353  0.15516  1.0000
  H   H3874     1.0  0.62315  0.68428  0.13215  1.0000
  H   H3875     1.0  0.63840  0.77113  0.14187  1.0000
  H   H3876     1.0  0.86123  0.95520  0.09176  1.0000
  H   H3877     1.0  0.72232  0.93362  0.10145  1.0000
  N   N162      1.0  0.83676  0.91976  0.10913  1.0000
  C   C2275     1.0  0.81636  0.90792  0.11202  1.0000
  C   C2276     1.0  0.84123  0.92820  0.09334  1.0000
  C   C2277     1.0  0.83160  0.93896  0.11746  1.0000
  H   H3878     1.0  0.80420  0.85558  0.19756  1.0000
  H   H3879     1.0  0.71047  0.93742  0.15092  1.0000
  H   H3880     1.0  0.68991  0.90684  0.16328  1.0000
  H   H3881     1.0  0.82007  0.89251  0.10699  1.0000
  H   H3882     1.0  0.81163  0.90213  0.12363  1.0000
  H   H3883     1.0  0.84231  0.91428  0.08724  1.0000
  H   H3884     1.0  0.60717  0.96208  0.00569  1.0000
  H   H3885     1.0  0.86203  0.69247  0.08314  1.0000
  H   H3886     1.0  0.82165  0.93402  0.12811  1.0000
  C   C2278     1.0  0.58147  0.68041  0.16765  1.0000
  C   C2279     1.0  0.85883  0.69709  0.09393  1.0000
  H   H3887     1.0  0.49510  0.97773  0.98048  1.0000
  H   H3888     1.0  0.84886  0.90439  0.13645  1.0000
  H   H3889     1.0  0.84103  0.87994  0.13187  1.0000
  C   C2280     1.0  0.70024  0.97157  0.13184  1.0000
  H   H3890     1.0  0.60038  0.74990  0.15998  1.0000
  H   H3891     1.0  0.50126  0.91393  0.01756  1.0000
  H   H3892     1.0  0.68810  0.98207  0.15293  1.0000
  H   H3893     1.0  0.94395  0.68554  0.10824  1.0000
  H   H3894     1.0  0.54036  0.94445  0.01698  1.0000
  S   S649      1.0  0.49961  0.94353  0.03798  1.0000
  H   H3895     1.0  0.92297  0.70523  0.10039  1.0000
  H   H3896     1.0  0.72667  0.95739  0.10797  1.0000
  C   C2281     1.0  0.94639  0.70818  0.16304  1.0000
  C   C2282     1.0  0.78322  0.83869  0.21496  1.0000
  C   C2283     1.0  0.57434  0.91132  0.02862  1.0000
  C   C2284     1.0  0.59155  0.96011  0.03337  1.0000
  C   C2285     1.0  0.93134  0.68762  0.10103  1.0000
  H   H3897     1.0  0.87822  0.92807  0.08958  1.0000
  H   H3898     1.0  0.70113  0.90219  0.14558  1.0000
  H   H3899     1.0  0.88363  0.72602  0.20503  1.0000
  C   C2286     1.0  0.90343  0.66699  0.08460  1.0000
  H   H3900     1.0  0.58214  0.89354  0.02857  1.0000
  H   H3901     1.0  0.60676  0.73268  0.18188  1.0000
  H   H3902     1.0  0.73893  0.68255  0.19269  1.0000
  C   C2287     1.0  0.86245  0.93935  0.08763  1.0000
  C   C2288     1.0  0.49839  0.66106  0.06163  1.0000
  H   H3903     1.0  0.50162  0.66746  0.08688  1.0000
  N   N163      1.0  0.91101  0.72720  0.17829  1.0000
  C   C2289     1.0  0.93317  0.72962  0.16853  1.0000
  C   C2290     1.0  0.89895  0.75051  0.17984  1.0000
  C   C2291     1.0  0.89746  0.71537  0.17135  1.0000
  C   C2292     1.0  0.91622  0.71358  0.19226  1.0000
  H   H3904     1.0  0.82415  0.80585  0.21055  1.0000
  C   C2293     1.0  0.91093  0.76461  0.18675  1.0000
  C   C2294     1.0  0.87164  0.71902  0.17582  1.0000
  C   C2295     1.0  0.89633  0.71084  0.20453  1.0000
  H   H3905     1.0  0.93063  0.74241  0.15895  1.0000
  H   H3906     1.0  0.94490  0.73584  0.17381  1.0000
  H   H3907     1.0  0.88188  0.75042  0.18621  1.0000
  H   H3908     1.0  0.89598  0.76012  0.16921  1.0000
  H   H3909     1.0  0.90019  0.72084  0.15963  1.0000
  H   H3910     1.0  0.90327  0.69697  0.17298  1.0000
  H   H3911     1.0  0.92412  0.69624  0.19076  1.0000
  H   H3912     1.0  0.92938  0.71992  0.19625  1.0000
  H   H3913     1.0  0.78727  0.82091  0.21354  1.0000
  H   H3914     1.0  0.96253  0.71219  0.15642  1.0000
  H   H3915     1.0  0.86371  0.94412  0.07589  1.0000
  H   H3916     1.0  0.90006  0.78099  0.18768  1.0000
  H   H3917     1.0  0.91358  0.75654  0.19767  1.0000
  H   H3918     1.0  0.92708  0.76834  0.18013  1.0000
  H   H3919     1.0  0.86429  0.70763  0.17096  1.0000
  H   H3920     1.0  0.86084  0.79176  0.20534  1.0000
  H   H3921     1.0  0.86615  0.71561  0.18744  1.0000
  H   H3922     1.0  0.82709  0.94113  0.09006  1.0000
  C   C2296     1.0  0.57073  0.96023  0.02650  1.0000
  H   H3923     1.0  0.90263  0.70781  0.21486  1.0000
  H   H3924     1.0  0.59870  0.97592  0.02941  1.0000
  C   C2297     1.0  0.84594  0.86675  0.19313  1.0000
  Fe  Fe326     1.0  0.97770  0.71812  0.11775  1.0000
  H   H3925     1.0  0.52048  0.94713  0.08412  1.0000
  H   H3926     1.0  0.57696  0.91587  0.03868  1.0000
  H   H3927     1.0  0.88938  0.70815  0.09538  1.0000
  C   C2298     1.0  0.59072  0.96333  0.00205  1.0000
  H   H3928     1.0  0.86840  0.94277  0.11436  1.0000
  C   C2299     1.0  0.52028  0.95510  0.07318  1.0000
  H   H3929     1.0  0.66268  0.78163  0.15823  1.0000
  C   C2300     1.0  0.79471  0.92178  0.10711  1.0000
  N   N164      1.0  0.57503  0.95027  0.01300  1.0000
  C   C2301     1.0  0.51028  0.94571  0.06420  1.0000
  H   H3930     1.0  0.86892  0.81535  0.20989  1.0000
  H   H3931     1.0  0.76915  0.84657  0.20904  1.0000
  C   C2302     1.0  0.62481  0.73362  0.18145  1.0000
  H   H3932     1.0  0.85955  0.87722  0.19114  1.0000
  H   H3933     1.0  0.61359  0.73655  0.12999  1.0000
  C   C2303     1.0  0.53210  0.68911  0.06350  1.0000
  H   H3934     1.0  0.58083  0.95729  0.98237  1.0000
  N   N165      1.0  0.75058  0.71007  0.21852  1.0000
  C   C2304     1.0  0.64050  0.76185  0.15268  1.0000
  H   H3935     1.0  0.78362  0.69988  0.20681  1.0000
  H   H3936     1.0  0.55449  0.94097  0.99968  1.0000
  H   H3937     1.0  0.66218  0.95843  0.10923  1.0000
  C   C2305     1.0  0.66701  0.95300  0.13170  1.0000
  S   S650      1.0  0.61431  0.66874  0.18447  1.0000
  C   C2306     1.0  0.50940  0.90572  0.00824  1.0000
  H   H3938     1.0  0.60380  0.92432  0.01626  1.0000
  H   H3939     1.0  0.82877  0.82434  0.19437  1.0000
  H   H3940     1.0  0.84607  0.68751  0.10092  1.0000
  Fe  Fe327     1.0  0.50549  0.71875  0.10576  1.0000
  C   C2307     1.0  0.63959  0.72460  0.16839  1.0000
  C   C2308     1.0  0.77519  0.70050  0.21799  1.0000
  H   H3941     1.0  0.75949  0.76479  0.20924  1.0000
  H   H3942     1.0  0.62713  0.75090  0.18191  1.0000
  C   C2309     1.0  0.51345  0.93509  0.97794  1.0000
  H   H3943     1.0  0.88806  0.69645  0.20400  1.0000
  N   N166      1.0  0.63611  0.73813  0.15407  1.0000
  H   H3944     1.0  0.79603  0.92482  0.09535  1.0000
  H   H3945     1.0  0.65567  0.95933  0.14099  1.0000
  H   H3946     1.0  0.51336  0.88754  0.01232  1.0000
  H   H3947     1.0  0.50305  0.93049  0.06821  1.0000
  H   H3948     1.0  0.54226  0.70302  0.06054  1.0000
  H   H3949     1.0  0.60578  0.93910  0.98748  1.0000
  C   C2310     1.0  0.85175  0.94872  0.12018  1.0000
  H   H3950     1.0  0.49705  0.81142  0.10417  1.0000
  H   H3951     1.0  0.92566  0.68087  0.06596  1.0000
  H   H3952     1.0  0.93735  0.70209  0.15597  1.0000
  C   C2311     1.0  0.58566  0.92602  0.01544  1.0000
  C   C2312     1.0  0.74768  0.73322  0.20982  1.0000
  Fe  Fe328     1.0  0.65139  0.65965  0.18603  1.0000
  H   H3953     1.0  0.60647  0.72225  0.15614  1.0000
  C   C2313     1.0  0.85353  0.89171  0.12924  1.0000
  C   C2314     1.0  0.69330  0.93779  0.14847  1.0000
  H   H3954     1.0  0.82044  0.95310  0.11213  1.0000
  H   H3955     1.0  0.54052  0.67610  0.05691  1.0000
  C   C2315     1.0  0.54139  0.97507  0.00226  1.0000
  Fe  Fe329     1.0  0.51059  0.66868  0.11794  1.0000
  C   C2316     1.0  0.68854  0.91337  0.15192  1.0000
  H   H3956     1.0  0.85120  0.71504  0.09299  1.0000
  C   C2317     1.0  0.61171  0.73910  0.15273  1.0000
  H   H3957     1.0  0.68454  0.72624  0.14776  1.0000
  C   C2318     1.0  0.88053  0.69382  0.10048  1.0000
  H   H3958     1.0  0.86719  0.65351  0.10264  1.0000
  H   H3959     1.0  0.56290  0.97808  0.02459  1.0000
  H   H3960     1.0  0.67091  0.75295  0.16342  1.0000
  H   H3961     1.0  0.84888  0.96725  0.11706  1.0000
  C   C2319     1.0  0.91014  0.68686  0.07309  1.0000
  H   H3962     1.0  0.60678  0.96779  0.97991  1.0000
  Fe  Fe330     1.0  0.76647  0.96924  0.13308  1.0000
  H   H3963     1.0  0.49826  0.94885  0.00363  1.0000
  H   H3964     1.0  0.85132  0.85373  0.18619  1.0000
  H   H3965     1.0  0.56974  0.67949  0.17756  1.0000
  H   H3966     1.0  0.86418  0.73627  0.17161  1.0000
  H   H3967     1.0  0.83078  0.87791  0.18984  1.0000
  H   H3968     1.0  0.76004  0.73390  0.19976  1.0000
  H   H3969     1.0  0.78048  0.91221  0.11140  1.0000
  H   H3970     1.0  0.72165  0.92676  0.12744  1.0000
  C   C2320     1.0  0.59610  0.95622  0.98719  1.0000
  S   S651      1.0  0.83871  0.75186  0.20921  1.0000
  S   S652      1.0  0.57874  0.69623  0.12528  1.0000
  S   S653      1.0  0.51992  0.67394  0.13835  1.0000
  C   C2321     1.0  0.53053  0.97433  0.06797  1.0000
  N   N167      1.0  0.89554  0.67157  0.09965  1.0000
  H   H3971     1.0  0.91802  0.65330  0.08433  1.0000
  H   H3972     1.0  0.68401  0.70948  0.13478  1.0000
  H   H3973     1.0  0.65256  0.73860  0.13209  1.0000
  H   H3974     1.0  0.87230  0.90916  0.11096  1.0000
  H   H3975     1.0  0.85917  0.88861  0.10700  1.0000
  H   H3976     1.0  0.53633  0.90296  0.98126  1.0000
  H   H3977     1.0  0.52427  0.94271  0.98314  1.0000
  H   H3978     1.0  0.58651  0.95849  0.04512  1.0000
  H   H3979     1.0  0.89012  0.66055  0.08080  1.0000
  C   C2322     1.0  0.51006  0.95580  0.05001  1.0000
  H   H3980     1.0  0.95073  0.69456  0.17178  1.0000
  H   H3981     1.0  0.68153  0.94686  0.15647  1.0000
  H   H3982     1.0  0.86645  0.81459  0.19173  1.0000
  H   H3983     1.0  0.86981  0.88165  0.13156  1.0000
  H   H3984     1.0  0.58560  0.91792  0.00610  1.0000
  H   H3985     1.0  0.69996  0.95648  0.10282  1.0000
  H   H3986     1.0  0.85269  0.94557  0.13174  1.0000
  C   C2323     1.0  0.66023  0.96811  0.11808  1.0000
  H   H3987     1.0  0.66171  0.93663  0.13175  1.0000
  C   C2324     1.0  0.88197  0.65360  0.10776  1.0000
  H   H3988     1.0  0.50333  0.71447  0.06457  1.0000
  C   C2325     1.0  0.49642  0.78092  0.09642  1.0000
  H   H3989     1.0  0.79165  0.72978  0.21738  1.0000
  H   H3990     1.0  0.87499  0.65697  0.11878  1.0000
  H   H3991     1.0  0.79878  0.86788  0.21328  1.0000
  H   H3992     1.0  0.66932  0.98260  0.11449  1.0000
  C   C2326     1.0  0.51944  0.97559  0.04499  1.0000
  H   H3993     1.0  0.51492  0.65329  0.06473  1.0000
  H   H3994     1.0  0.72179  0.70190  0.21145  1.0000
  C   C2327     1.0  0.73971  0.69485  0.21221  1.0000
  C   C2328     1.0  0.85883  0.81033  0.20307  1.0000
  H   H3995     1.0  0.73084  0.73711  0.20639  1.0000
  H   H3996     1.0  0.90913  0.67228  0.11862  1.0000
  H   H3997     1.0  0.79649  0.77710  0.22102  1.0000
  H   H3998     1.0  0.85866  0.84980  0.21211  1.0000
  C   C2329     1.0  0.74952  0.75313  0.21702  1.0000
  N   N168      1.0  0.82596  0.83960  0.21313  1.0000
  H   H3999     1.0  0.49819  0.89495  0.99128  1.0000
  H   H4000     1.0  0.97382  0.65932  0.07381  1.0000
  H   H4001     1.0  0.73923  0.67825  0.21922  1.0000
  C   C2330     1.0  0.50791  0.69818  0.06057  1.0000
  N   N169      1.0  0.49157  0.93146  0.98768  1.0000
  H   H4002     1.0  0.83567  0.87082  0.21514  1.0000
  C   C2331     1.0  0.80344  0.85149  0.20934  1.0000
  S   S654      1.0  0.49385  0.74221  0.08657  1.0000
  S   S655      1.0  0.49137  0.87920  0.04516  1.0000
  H   H4003     1.0  0.50110  0.66367  0.04976  1.0000
  H   H4004     1.0  0.70117  0.98080  0.12085  1.0000
  Fe  Fe331     1.0  0.68471  0.65473  0.20679  1.0000
  H   H4005     1.0  0.50884  0.70239  0.04878  1.0000
  C   C2332     1.0  0.49088  0.77156  0.08571  1.0000
  Fe  Fe332     1.0  0.49242  0.70381  0.13751  1.0000
  S   S656      1.0  0.79845  0.98234  0.13288  1.0000
  H   H4006     1.0  0.92388  0.97564  0.97368  1.0000
  H   H4007     1.0  0.55117  0.98256  0.99223  1.0000
  C   C2333     1.0  0.71375  0.71735  0.23614  1.0000
  H   H4008     1.0  0.74931  0.90221  0.33377  1.0000
  C   C2334     1.0  0.60658  0.65946  0.29699  1.0000
  S   S657      1.0  0.97143  0.70848  0.38119  1.0000
  H   H4009     1.0  0.62293  0.90305  0.44781  1.0000
  H   H4010     1.0  0.98596  0.67208  0.44372  1.0000
  H   H4011     1.0  0.69958  0.66433  0.25510  1.0000
  S   S658      1.0  0.95101  0.69049  0.35026  1.0000
  H   H4012     1.0  0.95488  0.89813  0.37869  1.0000
  H   H4013     1.0  0.96497  0.85734  0.35492  1.0000
  H   H4014     1.0  0.50256  0.92304  0.45693  1.0000
  Fe  Fe333     1.0  0.81938  0.72418  0.31202  1.0000
  S   S659      1.0  0.84223  0.73180  0.29112  1.0000
  S   S660      1.0  0.80699  0.69114  0.32136  1.0000
  Fe  Fe334     1.0  0.81855  0.77003  0.32025  1.0000
  S   S661      1.0  0.84043  0.78170  0.29987  1.0000
  S   S662      1.0  0.80865  0.78701  0.33982  1.0000
  Fe  Fe335     1.0  0.81969  0.76515  0.28921  1.0000
  S   S663      1.0  0.80463  0.78250  0.26952  1.0000
  Fe  Fe336     1.0  0.86117  0.74757  0.30350  1.0000
  S   S664      1.0  0.89882  0.74726  0.30132  1.0000
  S   S665      1.0  0.79568  0.75650  0.30948  1.0000
  S   S666      1.0  0.84045  0.73685  0.32445  1.0000
  Fe  Fe337     1.0  0.97383  0.86568  0.42016  1.0000
  S   S667      1.0  0.97025  0.90191  0.40999  1.0000
  H   H4015     1.0  0.56332  0.67631  0.29513  1.0000
  Fe  Fe338     1.0  0.93988  0.87553  0.44635  1.0000
  S   S668      1.0  0.93265  0.91221  0.43802  1.0000
  H   H4016     1.0  0.63156  0.91380  0.46823  1.0000
  Fe  Fe339     1.0  0.93316  0.90136  0.41710  1.0000
  S   S669      1.0  0.91122  0.91814  0.40064  1.0000
  Fe  Fe340     1.0  0.97014  0.90964  0.43170  1.0000
  S   S670      1.0  0.93670  0.86465  0.42595  1.0000
  Fe  Fe341     1.0  0.78663  0.90590  0.35767  1.0000
  S   S671      1.0  0.77474  0.88525  0.37855  1.0000
  S   S672      1.0  0.79791  0.89206  0.33700  1.0000
  Fe  Fe342     1.0  0.77816  0.94948  0.37015  1.0000
  S   S673      1.0  0.76573  0.93182  0.39201  1.0000
  Fe  Fe343     1.0  0.79504  0.90491  0.38740  1.0000
  S   S674      1.0  0.81650  0.88787  0.40421  1.0000
  Fe  Fe344     1.0  0.74657  0.91396  0.38122  1.0000
  S   S675      1.0  0.70870  0.91358  0.38655  1.0000
  S   S676      1.0  0.80883  0.92372  0.36627  1.0000
  S   S677      1.0  0.75708  0.93346  0.35957  1.0000
  Fe  Fe345     1.0  0.61333  0.84483  0.42717  1.0000
  S   S678      1.0  0.59591  0.81552  0.43858  1.0000
  S   S679      1.0  0.65161  0.84002  0.42370  1.0000
  Fe  Fe346     1.0  0.56900  0.87538  0.42342  1.0000
  S   S680      1.0  0.54842  0.84876  0.43451  1.0000
  S   S681      1.0  0.55265  0.90862  0.41265  1.0000
  Fe  Fe347     1.0  0.57253  0.84130  0.45031  1.0000
  C   C2335     1.0  0.67864  0.87068  0.46779  1.0000
  Fe  Fe348     1.0  0.57323  0.82541  0.42185  1.0000
  S   S682      1.0  0.56308  0.80616  0.40666  1.0000
  S   S683      1.0  0.59134  0.86986  0.44007  1.0000
  S   S684      1.0  0.59256  0.85281  0.40968  1.0000
  C   C2336     1.0  0.55628  0.97616  0.41443  1.0000
  H   H4017     1.0  0.75088  0.83074  0.38546  1.0000
  H   H4018     1.0  0.55936  0.75060  0.37375  1.0000
  Fe  Fe349     1.0  0.51427  0.69303  0.37150  1.0000
  S   S685      1.0  0.54223  0.69533  0.35244  1.0000
  S   S686      1.0  0.52130  0.67706  0.39329  1.0000
  C   C2337     1.0  0.52867  0.92171  0.42275  1.0000
  C   C2338     1.0  0.52435  0.91589  0.43755  1.0000
  H   H4019     1.0  0.84897  0.80261  0.23190  1.0000
  C   C2339     1.0  0.56950  0.65818  0.36407  1.0000
  H   H4020     1.0  0.78360  0.78888  0.24477  1.0000
  C   C2340     1.0  0.97430  0.73425  0.43638  1.0000
  H   H4021     1.0  0.53554  0.90270  0.44294  1.0000
  C   C2341     1.0  0.82288  0.83210  0.22905  1.0000
  H   H4022     1.0  0.57087  0.67709  0.42050  1.0000
  C   C2342     1.0  0.54770  0.78342  0.41009  1.0000
  C   C2343     1.0  0.54276  0.77124  0.42372  1.0000
  C   C2344     1.0  0.53085  0.75299  0.42580  1.0000
  C   C2345     1.0  0.52359  0.74688  0.41433  1.0000
  C   C2346     1.0  0.52813  0.75938  0.40076  1.0000
  C   C2347     1.0  0.54033  0.77739  0.39864  1.0000
  H   H4023     1.0  0.54831  0.77571  0.43263  1.0000
  C   C2348     1.0  0.80705  0.77191  0.22918  1.0000
  H   H4024     1.0  0.62273  0.67138  0.33697  1.0000
  H   H4025     1.0  0.97844  0.70743  0.30588  1.0000
  H   H4026     1.0  0.52223  0.75515  0.39191  1.0000
  H   H4027     1.0  0.54410  0.96408  0.41708  1.0000
  C   C2349     1.0  0.50660  0.87143  0.39388  1.0000
  H   H4028     1.0  0.95628  0.82452  0.41459  1.0000
  H   H4029     1.0  0.95487  0.89202  0.46777  1.0000
  C   C2350     1.0  0.69324  0.89333  0.39758  1.0000
  C   C2351     1.0  0.70355  0.87422  0.40562  1.0000
  C   C2352     1.0  0.69058  0.85799  0.41357  1.0000
  C   C2353     1.0  0.66723  0.86090  0.41370  1.0000
  C   C2354     1.0  0.65686  0.88024  0.40594  1.0000
  C   C2355     1.0  0.66984  0.89634  0.39789  1.0000
  H   H4030     1.0  0.72153  0.87180  0.40554  1.0000
  H   H4031     1.0  0.69871  0.84306  0.41957  1.0000
  H   H4032     1.0  0.63889  0.88266  0.40597  1.0000
  H   H4033     1.0  0.66174  0.91111  0.39173  1.0000
  C   C2356     1.0  0.88511  0.90925  0.40194  1.0000
  C   C2357     1.0  0.87606  0.89536  0.41402  1.0000
  C   C2358     1.0  0.85503  0.88872  0.41461  1.0000
  C   C2359     1.0  0.84304  0.89594  0.40316  1.0000
  C   C2360     1.0  0.85248  0.90933  0.39100  1.0000
  C   C2361     1.0  0.87337  0.91604  0.39041  1.0000
  H   H4034     1.0  0.88510  0.88993  0.42295  1.0000
  H   H4035     1.0  0.84790  0.87819  0.42403  1.0000
  H   H4036     1.0  0.84379  0.91432  0.38198  1.0000
  H   H4037     1.0  0.88060  0.92633  0.38092  1.0000
  C   C2362     1.0  0.80757  0.81610  0.33853  1.0000
  C   C2363     1.0  0.80586  0.82506  0.35103  1.0000
  C   C2364     1.0  0.80371  0.84829  0.35058  1.0000
  C   C2365     1.0  0.80278  0.86276  0.33765  1.0000
  C   C2366     1.0  0.80507  0.85378  0.32507  1.0000
  C   C2367     1.0  0.80755  0.83047  0.32549  1.0000
  H   H4038     1.0  0.80585  0.81402  0.36114  1.0000
  H   H4039     1.0  0.80249  0.85500  0.36026  1.0000
  H   H4040     1.0  0.80451  0.86489  0.31501  1.0000
  H   H4041     1.0  0.80886  0.82367  0.31580  1.0000
  C   C2368     1.0  0.79974  0.77848  0.24264  1.0000
  C   C2369     1.0  0.81334  0.77194  0.25332  1.0000
  C   C2370     1.0  0.83408  0.75830  0.25057  1.0000
  H   H4042     1.0  0.75938  0.83163  0.34672  1.0000
  H   H4043     1.0  0.84468  0.75322  0.25873  1.0000
  C   C2371     1.0  0.81861  0.95982  0.39393  1.0000
  C   C2372     1.0  0.68801  0.65262  0.25592  1.0000
  C   C2373     1.0  0.50572  0.92745  0.44546  1.0000
  H   H4044     1.0  0.95564  0.76745  0.43865  1.0000
  N   N170      1.0  0.65835  0.87241  0.46070  1.0000
  H   H4045     1.0  0.53992  0.87436  0.39871  1.0000
  H   H4046     1.0  0.65964  0.81501  0.46095  1.0000
  H   H4047     1.0  0.55476  0.65434  0.37164  1.0000
  C   C2374     1.0  0.84145  0.75184  0.23708  1.0000
  H   H4048     1.0  0.72938  0.88608  0.33093  1.0000
  C   C2375     1.0  0.93693  0.70638  0.33650  1.0000
  C   C2376     1.0  0.94512  0.72493  0.32773  1.0000
  C   C2377     1.0  0.93355  0.73705  0.31677  1.0000
  C   C2378     1.0  0.91328  0.73125  0.31487  1.0000
  C   C2379     1.0  0.90494  0.71291  0.32378  1.0000
  C   C2380     1.0  0.91695  0.70028  0.33438  1.0000
  H   H4049     1.0  0.96047  0.72978  0.32927  1.0000
  H   H4050     1.0  0.94007  0.75123  0.30988  1.0000
  H   H4051     1.0  0.88944  0.70820  0.32232  1.0000
  H   H4052     1.0  0.91053  0.68592  0.34112  1.0000
  H   H4053     1.0  0.54476  0.65558  0.30174  1.0000
  H   H4054     1.0  0.67986  0.84741  0.36326  1.0000
  H   H4055     1.0  0.94785  0.84047  0.34928  1.0000
  H   H4056     1.0  0.97766  0.69619  0.29074  1.0000
  C   C2381     1.0  0.74823  0.66836  0.32291  1.0000
  C   C2382     1.0  0.76847  0.67209  0.32631  1.0000
  C   C2383     1.0  0.78081  0.68806  0.31751  1.0000
  C   C2384     1.0  0.77268  0.70047  0.30539  1.0000
  C   C2385     1.0  0.75267  0.69649  0.30188  1.0000
  C   C2386     1.0  0.96745  0.81550  0.40685  1.0000
  H   H4057     1.0  0.59180  0.68996  0.30650  1.0000
  H   H4058     1.0  0.78206  0.71285  0.29856  1.0000
  H   H4059     1.0  0.96036  0.72744  0.44418  1.0000
  H   H4060     1.0  0.81015  0.82062  0.23249  1.0000
  H   H4061     1.0  0.66292  0.87369  0.36604  1.0000
  H   H4062     1.0  0.52730  0.74349  0.43636  1.0000
  H   H4063     1.0  0.67897  0.85901  0.37931  1.0000
  H   H4064     1.0  0.63949  0.69365  0.36831  1.0000
  C   C2387     1.0  0.60850  0.68029  0.30316  1.0000
  C   C2388     1.0  0.56793  0.67717  0.35357  1.0000
  C   C2389     1.0  0.58720  0.68184  0.34376  1.0000
  H   H4065     1.0  0.56675  0.97130  0.42308  1.0000
  H   H4066     1.0  0.58620  0.69668  0.33574  1.0000
  S   S687      1.0  0.71640  0.67479  0.30513  1.0000
  C   C2390     1.0  0.87312  0.97954  0.35798  1.0000
  H   H4067     1.0  0.97223  0.82764  0.35695  1.0000
  H   H4068     1.0  0.76921  0.65158  0.28039  1.0000
  H   H4069     1.0  0.54394  0.78683  0.38807  1.0000
  C   C2391     1.0  0.72288  0.84559  0.34879  1.0000
  C   C2392     1.0  0.95778  0.84151  0.35752  1.0000
  H   H4070     1.0  0.74678  0.71944  0.23961  1.0000
  H   H4071     1.0  0.74667  0.70592  0.29236  1.0000
  Fe  Fe350     1.0  0.98464  0.74103  0.37306  1.0000
  C   C2393     1.0  0.73940  0.70944  0.23385  1.0000
  H   H4072     1.0  0.98664  0.73630  0.44297  1.0000
  H   H4073     1.0  0.54303  0.73508  0.36719  1.0000
  H   H4074     1.0  0.75179  0.85150  0.33165  1.0000
  H   H4075     1.0  0.72037  0.90883  0.34114  1.0000
  H   H4076     1.0  0.97564  0.69307  0.41614  1.0000
  C   C2394     1.0  0.60785  0.66749  0.34438  1.0000
  H   H4077     1.0  0.95590  0.83626  0.38025  1.0000
  N   N171      1.0  0.98476  0.71810  0.42610  1.0000
  C   C2395     1.0  0.96487  0.75830  0.42992  1.0000
  C   C2396     1.0  0.98965  0.81962  0.40260  1.0000
  H   H4078     1.0  0.53983  0.87084  0.38094  1.0000
  C   C2397     1.0  0.67923  0.86297  0.36761  1.0000
  C   C2398     1.0  0.82814  0.75893  0.22629  1.0000
  C   C2399     1.0  0.63739  0.87666  0.47145  1.0000
  C   C2400     1.0  0.65804  0.85102  0.45537  1.0000
  H   H4079     1.0  0.77691  0.83968  0.22639  1.0000
  H   H4080     1.0  0.60169  0.68424  0.40265  1.0000
  H   H4081     1.0  0.70333  0.84648  0.45624  1.0000
  C   C2401     1.0  0.70167  0.86357  0.45882  1.0000
  H   H4082     1.0  0.74465  0.82401  0.33468  1.0000
  H   H4083     1.0  0.61812  0.67615  0.31211  1.0000
  H   H4084     1.0  0.71143  0.85211  0.34078  1.0000
  S   S688      1.0  0.50924  0.72340  0.41743  1.0000
  H   H4085     1.0  0.59881  0.66617  0.28732  1.0000
  H   H4086     1.0  0.95294  0.75888  0.42257  1.0000
  H   H4087     1.0  0.85771  0.74164  0.23495  1.0000
  S   S689      1.0  0.97733  0.87341  0.44130  1.0000
  H   H4088     1.0  0.98440  0.74296  0.40684  1.0000
  H   H4089     1.0  0.93779  0.70855  0.41341  1.0000
  H   H4090     1.0  0.70448  0.70476  0.23397  1.0000
  H   H4091     1.0  0.62394  0.65174  0.29289  1.0000
  N   N172      1.0  0.92441  0.85647  0.37576  1.0000
  H   H4092     1.0  0.91802  0.89196  0.37681  1.0000
  C   C2402     1.0  0.90760  0.85713  0.36610  1.0000
  C   C2403     1.0  0.94395  0.83832  0.37262  1.0000
  C   C2404     1.0  0.91410  0.85136  0.39122  1.0000
  H   H4093     1.0  0.54953  0.71853  0.39134  1.0000
  C   C2405     1.0  0.88559  0.87370  0.36860  1.0000
  H   H4094     1.0  0.57225  0.73254  0.36047  1.0000
  C   C2406     1.0  0.90119  0.83112  0.39534  1.0000
  H   H4095     1.0  0.85322  0.97642  0.40116  1.0000
  C   C2407     1.0  0.65936  0.89116  0.44816  1.0000
  H   H4096     1.0  0.90308  0.84019  0.36675  1.0000
  H   H4097     1.0  0.91502  0.86201  0.35477  1.0000
  S   S690      1.0  0.98656  0.93448  0.43909  1.0000
  H   H4098     1.0  0.93820  0.82177  0.37412  1.0000
  H   H4099     1.0  0.92727  0.84802  0.39817  1.0000
  H   H4100     1.0  0.90236  0.86608  0.39471  1.0000
  H   H4101     1.0  0.73863  0.65627  0.32982  1.0000
  H   H4102     1.0  0.66265  0.90666  0.45124  1.0000
  N   N173      1.0  0.49380  0.86636  0.40875  1.0000
  H   H4103     1.0  0.87646  0.87068  0.37964  1.0000
  H   H4104     1.0  0.88869  0.89133  0.36590  1.0000
  H   H4105     1.0  0.87406  0.87171  0.36149  1.0000
  H   H4106     1.0  0.67599  0.82587  0.47067  1.0000
  H   H4107     1.0  0.58080  0.95312  0.40278  1.0000
  H   H4108     1.0  0.71522  0.86331  0.46506  1.0000
  H   H4109     1.0  0.88548  0.83427  0.39069  1.0000
  H   H4110     1.0  0.89608  0.82817  0.40710  1.0000
  H   H4111     1.0  0.91158  0.81551  0.39235  1.0000
  N   N174      1.0  0.58587  0.70932  0.38710  1.0000
  C   C2408     1.0  0.58534  0.68899  0.39862  1.0000
  C   C2409     1.0  0.60338  0.70296  0.37472  1.0000
  C   C2410     1.0  0.56311  0.71463  0.38239  1.0000
  C   C2411     1.0  0.59069  0.72856  0.39315  1.0000
  C   C2412     1.0  0.62704  0.69293  0.37829  1.0000
  C   C2413     1.0  0.51394  0.93863  0.41584  1.0000
  C   C2414     1.0  0.60271  0.74658  0.38268  1.0000
  H   H4112     1.0  0.58287  0.67418  0.39429  1.0000
  H   H4113     1.0  0.98216  0.69457  0.45415  1.0000
  H   H4114     1.0  0.60541  0.71739  0.36603  1.0000
  H   H4115     1.0  0.59791  0.69034  0.36979  1.0000
  H   H4116     1.0  0.50295  0.88958  0.38959  1.0000
  H   H4117     1.0  0.55029  0.69087  0.40984  1.0000
  H   H4118     1.0  0.57484  0.73740  0.39862  1.0000
  H   H4119     1.0  0.60137  0.72240  0.40163  1.0000
  H   H4120     1.0  0.63238  0.70204  0.38561  1.0000
  C   C2415     1.0  0.55511  0.66641  0.30481  1.0000
  H   H4121     1.0  0.97851  0.76790  0.42429  1.0000
  H   H4122     1.0  0.51705  0.94287  0.40436  1.0000
  H   H4123     1.0  0.74225  0.69205  0.23981  1.0000
  C   C2416     1.0  0.49535  0.95022  0.42375  1.0000
  H   H4124     1.0  0.62063  0.74015  0.37911  1.0000
  H   H4125     1.0  0.60249  0.76085  0.38828  1.0000
  H   H4126     1.0  0.59455  0.75349  0.37323  1.0000
  N   N175      1.0  0.88385  0.76464  0.35270  1.0000
  C   C2417     1.0  0.90704  0.77103  0.34735  1.0000
  C   C2418     1.0  0.87172  0.76888  0.34003  1.0000
  C   C2419     1.0  0.88663  0.74003  0.35897  1.0000
  C   C2420     1.0  0.87223  0.77876  0.36388  1.0000
  C   C2421     1.0  0.92401  0.76424  0.35796  1.0000
  C   C2422     1.0  0.86803  0.79336  0.33245  1.0000
  C   C2423     1.0  0.86702  0.72724  0.35932  1.0000
  C   C2424     1.0  0.84749  0.77645  0.37008  1.0000
  H   H4127     1.0  0.91500  0.76349  0.33768  1.0000
  H   H4128     1.0  0.90609  0.78945  0.34398  1.0000
  H   H4129     1.0  0.85487  0.76361  0.34286  1.0000
  H   H4130     1.0  0.88096  0.75846  0.33191  1.0000
  H   H4131     1.0  0.90141  0.73067  0.35287  1.0000
  H   H4132     1.0  0.89034  0.73745  0.37004  1.0000
  H   H4133     1.0  0.88118  0.77471  0.37322  1.0000
  H   H4134     1.0  0.87325  0.79686  0.36011  1.0000
  H   H4135     1.0  0.92832  0.74578  0.36074  1.0000
  H   H4136     1.0  0.94002  0.77049  0.35286  1.0000
  H   H4137     1.0  0.85795  0.79435  0.32388  1.0000
  H   H4138     1.0  0.85821  0.80484  0.33971  1.0000
  H   H4139     1.0  0.88406  0.79928  0.32717  1.0000
  H   H4140     1.0  0.85052  0.73556  0.36408  1.0000
  H   H4141     1.0  0.87027  0.71034  0.36573  1.0000
  H   H4142     1.0  0.86607  0.72454  0.34845  1.0000
  H   H4143     1.0  0.84634  0.76220  0.37900  1.0000
  H   H4144     1.0  0.83747  0.77467  0.36212  1.0000
  H   H4145     1.0  0.83899  0.79211  0.37410  1.0000
  C   C2425     1.0  0.78973  0.71324  0.22405  1.0000
  C   C2426     1.0  0.97393  0.78776  0.39098  1.0000
  H   H4146     1.0  0.63588  0.88332  0.43585  1.0000
  H   H4147     1.0  0.74972  0.82018  0.36980  1.0000
  H   H4148     1.0  0.64126  0.91140  0.43176  1.0000
  H   H4149     1.0  0.94240  0.79672  0.40433  1.0000
  N   N176      1.0  0.72197  0.86249  0.35845  1.0000
  C   C2427     1.0  0.95174  0.88049  0.38072  1.0000
  H   H4150     1.0  0.71351  0.84014  0.37830  1.0000
  H   H4151     1.0  0.54376  0.67902  0.31075  1.0000
  C   C2428     1.0  0.93208  0.87904  0.37318  1.0000
  H   H4152     1.0  0.81627  0.84674  0.23469  1.0000
  H   H4153     1.0  0.62207  0.87517  0.46726  1.0000
  H   H4154     1.0  0.93573  0.72911  0.42446  1.0000
  S   S691      1.0  0.98805  0.73743  0.35005  1.0000
  H   H4155     1.0  0.70503  0.87547  0.44882  1.0000
  S   S692      1.0  0.69286  0.66286  0.22689  1.0000
  S   S693      1.0  0.49382  0.72470  0.37846  1.0000
  C   C2429     1.0  0.74055  0.68023  0.31051  1.0000
  H   H4156     1.0  0.83897  0.81568  0.24716  1.0000
  S   S694      1.0  0.96263  0.76984  0.38293  1.0000
  H   H4157     1.0  0.82268  0.97245  0.37144  1.0000
  H   H4158     1.0  0.69803  0.88994  0.36616  1.0000
  C   C2430     1.0  0.72631  0.85107  0.37310  1.0000
  H   H4159     1.0  0.62767  0.67495  0.38305  1.0000
  H   H4160     1.0  0.51858  0.83952  0.41702  1.0000
  C   C2431     1.0  0.74604  0.83796  0.34011  1.0000
  H   H4161     1.0  0.56702  0.70698  0.41628  1.0000
  C   C2432     1.0  0.96745  0.70562  0.42322  1.0000
  H   H4162     1.0  0.61788  0.69163  0.29473  1.0000
  H   H4163     1.0  0.64205  0.85182  0.45130  1.0000
  S   S695      1.0  0.92421  0.86099  0.46836  1.0000
  C   C2433     1.0  0.86164  0.98109  0.39004  1.0000
  H   H4164     1.0  0.70899  0.73373  0.22956  1.0000
  C   C2434     1.0  0.73845  0.87876  0.35263  1.0000
  C   C2435     1.0  0.74903  0.83585  0.37406  1.0000
  H   H4165     1.0  0.69412  0.88423  0.34959  1.0000
  H   H4166     1.0  0.91814  0.77171  0.36780  1.0000
  C   C2436     1.0  0.73392  0.89472  0.33879  1.0000
  C   C2437     1.0  0.69866  0.87603  0.36015  1.0000
  H   H4167     1.0  0.80386  0.97233  0.39704  1.0000
  H   H4168     1.0  0.67371  0.88681  0.43969  1.0000
  H   H4169     1.0  0.50863  0.82514  0.39666  1.0000
  H   H4170     1.0  0.49614  0.89955  0.41259  1.0000
  Fe  Fe351     1.0  0.49935  0.70770  0.40044  1.0000
  C   C2438     1.0  0.56730  0.69146  0.41197  1.0000
  H   H4171     1.0  0.95273  0.73156  0.40683  1.0000
  C   C2439     1.0  0.95964  0.79966  0.40105  1.0000
  H   H4172     1.0  0.72500  0.86384  0.38007  1.0000
  H   H4173     1.0  0.73858  0.88956  0.36063  1.0000
  H   H4174     1.0  0.71651  0.83020  0.35502  1.0000
  H   H4175     1.0  0.75597  0.87003  0.35063  1.0000
  H   H4176     1.0  0.77458  0.66264  0.33579  1.0000
  C   C2440     1.0  0.94750  0.71989  0.41658  1.0000
  H   H4177     1.0  0.84616  0.95428  0.37711  1.0000
  H   H4178     1.0  0.76349  0.84442  0.36885  1.0000
  H   H4179     1.0  0.70789  0.71923  0.24749  1.0000
  H   H4180     1.0  0.55921  0.69972  0.37891  1.0000
  H   H4181     1.0  0.53808  0.84729  0.39466  1.0000
  H   H4182     1.0  0.67962  0.88706  0.47073  1.0000
  C   C2441     1.0  0.84367  0.81921  0.23538  1.0000
  H   H4183     1.0  0.67167  0.84863  0.44614  1.0000
  C   C2442     1.0  0.53249  0.86554  0.39221  1.0000
  H   H4184     1.0  0.88706  0.97339  0.36422  1.0000
  C   C2443     1.0  0.63847  0.89738  0.44067  1.0000
  H   H4185     1.0  0.96766  0.87020  0.37666  1.0000
  H   H4186     1.0  0.85789  0.82885  0.23317  1.0000
  C   C2444     1.0  0.55978  0.73441  0.37023  1.0000
  H   H4187     1.0  0.95956  0.69589  0.43319  1.0000
  H   H4188     1.0  0.51709  0.87864  0.41850  1.0000
  H   H4189     1.0  0.89547  0.91268  0.46780  1.0000
  H   H4190     1.0  0.81172  0.94518  0.39229  1.0000
  H   H4191     1.0  0.78353  0.71509  0.23533  1.0000
  H   H4192     1.0  0.58424  0.98168  0.39635  1.0000
  H   H4193     1.0  0.56158  0.97028  0.39216  1.0000
  H   H4194     1.0  0.57388  0.66271  0.32224  1.0000
  C   C2445     1.0  0.57155  0.97041  0.40057  1.0000
  H   H4195     1.0  0.86601  0.96526  0.35603  1.0000
  H   H4196     1.0  0.82836  0.95379  0.40281  1.0000
  H   H4197     1.0  0.53525  0.97324  0.44143  1.0000
  H   H4198     1.0  0.80815  0.97756  0.34301  1.0000
  H   H4199     1.0  0.93695  0.88497  0.36160  1.0000
  C   C2446     1.0  0.65999  0.82933  0.46635  1.0000
  C   C2447     1.0  0.49763  0.82440  0.40719  1.0000
  H   H4200     1.0  0.87261  0.96521  0.38777  1.0000
  C   C2448     1.0  0.49892  0.88170  0.41773  1.0000
  H   H4201     1.0  0.94771  0.87578  0.39242  1.0000
  Fe  Fe352     1.0  0.97738  0.70385  0.35831  1.0000
  H   H4202     1.0  0.50108  0.86264  0.38640  1.0000
  C   C2449     1.0  0.57172  0.65242  0.31441  1.0000
  H   H4203     1.0  0.50257  0.80765  0.41338  1.0000
  C   C2450     1.0  0.83339  0.96867  0.37992  1.0000
  H   H4204     1.0  0.49750  0.86930  0.44066  1.0000
  C   C2451     1.0  0.50070  0.84249  0.41542  1.0000
  H   H4205     1.0  0.75775  0.74886  0.22657  1.0000
  H   H4206     1.0  0.98668  0.72311  0.28845  1.0000
  C   C2452     1.0  0.98750  0.70617  0.29500  1.0000
  H   H4207     1.0  0.80701  0.70364  0.22367  1.0000
  H   H4208     1.0  0.77707  0.68287  0.22365  1.0000
  H   H4209     1.0  0.49098  0.83883  0.42631  1.0000
  C   C2453     1.0  0.49138  0.94484  0.43859  1.0000
  H   H4210     1.0  0.52334  0.98271  0.39670  1.0000
  S   S696      1.0  0.55624  0.83775  0.47355  1.0000
  H   H4211     1.0  0.89449  0.93888  0.47338  1.0000
  Fe  Fe353     1.0  0.93478  0.89503  0.53923  1.0000
  S   S697      1.0  0.95169  0.89475  0.55799  1.0000
  S   S698      1.0  0.95608  0.89646  0.51740  1.0000
  Fe  Fe354     1.0  0.88741  0.90391  0.55615  1.0000
  S   S699      1.0  0.90058  0.90454  0.57605  1.0000
  S   S700      1.0  0.85080  0.91437  0.55344  1.0000
  Fe  Fe355     1.0  0.92585  0.92465  0.56219  1.0000
  S   S701      1.0  0.93096  0.95790  0.56675  1.0000
  Fe  Fe356     1.0  0.92515  0.87439  0.57025  1.0000
  S   S702      1.0  0.92938  0.84717  0.58926  1.0000
  S   S703      1.0  0.91087  0.92641  0.54263  1.0000
  S   S704      1.0  0.91005  0.87226  0.55109  1.0000
  Fe  Fe357     1.0  0.54223  0.88944  0.55776  1.0000
  S   S705      1.0  0.57839  0.89401  0.54974  1.0000
  H   H4212     1.0  0.90291  0.68053  0.67732  1.0000
  Fe  Fe358     1.0  0.55493  0.84222  0.57361  1.0000
  S   S706      1.0  0.59162  0.84351  0.56618  1.0000
  S   S707      1.0  0.55072  0.81140  0.59009  1.0000
  Fe  Fe359     1.0  0.58431  0.87795  0.57189  1.0000
  S   S708      1.0  0.60235  0.88411  0.58884  1.0000
  Fe  Fe360     1.0  0.58200  0.85906  0.54486  1.0000
  S   S709      1.0  0.60295  0.84746  0.52485  1.0000
  S   S710      1.0  0.54775  0.87617  0.58023  1.0000
  S   S711      1.0  0.54565  0.85511  0.55184  1.0000
  Fe  Fe361     1.0  0.64409  0.76187  0.70131  1.0000
  S   S712      1.0  0.67857  0.75577  0.68821  1.0000
  Fe  Fe362     1.0  0.62061  0.75087  0.67801  1.0000
  S   S713      1.0  0.65331  0.74370  0.66367  1.0000
  S   S714      1.0  0.58643  0.74818  0.67285  1.0000
  Fe  Fe363     1.0  0.66726  0.72567  0.68328  1.0000
  S   S715      1.0  0.68423  0.68963  0.68712  1.0000
  Fe  Fe364     1.0  0.66144  0.77461  0.66977  1.0000
  S   S716      1.0  0.67486  0.79865  0.65066  1.0000
  S   S717      1.0  0.63373  0.73069  0.69732  1.0000
  S   S718      1.0  0.62770  0.78291  0.68313  1.0000
  S   S719      1.0  0.50494  0.71068  0.62967  1.0000
  S   S720      1.0  0.52995  0.67992  0.60482  1.0000
  C   C2454     1.0  0.87690  0.66844  0.69402  1.0000
  C   C2455     1.0  0.91214  0.94268  0.49988  1.0000
  Fe  Fe365     1.0  0.53398  0.68308  0.62704  1.0000
  S   S721      1.0  0.56849  0.68609  0.63168  1.0000
  H   H4213     1.0  0.49349  0.78321  0.61660  1.0000
  H   H4214     1.0  0.86494  0.68315  0.69005  1.0000
  Fe  Fe366     1.0  0.69850  0.91932  0.63217  1.0000
  S   S722      1.0  0.68231  0.95348  0.62280  1.0000
  S   S723      1.0  0.68397  0.89902  0.65283  1.0000
  Fe  Fe367     1.0  0.74173  0.92058  0.61039  1.0000
  S   S724      1.0  0.72903  0.95443  0.59894  1.0000
  S   S725      1.0  0.77634  0.89947  0.60818  1.0000
  Fe  Fe368     1.0  0.71630  0.96401  0.62070  1.0000
  H   H4215     1.0  0.60825  0.70305  0.63389  1.0000
  Fe  Fe369     1.0  0.69599  0.94135  0.60183  1.0000
  S   S726      1.0  0.67564  0.94732  0.58383  1.0000
  S   S727      1.0  0.73121  0.93089  0.63192  1.0000
  S   S728      1.0  0.70988  0.90658  0.61138  1.0000
  H   H4216     1.0  0.91597  0.84852  0.49886  1.0000
  S   S729      1.0  0.92931  0.69562  0.63767  1.0000
  H   H4217     1.0  0.88583  0.68292  0.64124  1.0000
  C   C2456     1.0  0.71201  0.68092  0.67906  1.0000
  C   C2457     1.0  0.74432  0.68549  0.66042  1.0000
  C   C2458     1.0  0.72252  0.69362  0.66691  1.0000
  H   H4218     1.0  0.75231  0.69521  0.65093  1.0000
  H   H4219     1.0  0.71374  0.70951  0.66242  1.0000
  C   C2459     1.0  0.58156  0.73258  0.66036  1.0000
  C   C2460     1.0  0.55959  0.72849  0.66068  1.0000
  C   C2461     1.0  0.55517  0.71502  0.65157  1.0000
  C   C2462     1.0  0.57273  0.70548  0.64200  1.0000
  C   C2463     1.0  0.59459  0.71025  0.64131  1.0000
  C   C2464     1.0  0.59898  0.72382  0.65039  1.0000
  H   H4220     1.0  0.54596  0.73536  0.66826  1.0000
  H   H4221     1.0  0.53830  0.71148  0.65224  1.0000
  C   C2465     1.0  0.93739  0.65566  0.60987  1.0000
  H   H4222     1.0  0.61590  0.72716  0.64984  1.0000
  C   C2466     1.0  0.67550  0.82681  0.65172  1.0000
  C   C2467     1.0  0.67400  0.83407  0.66475  1.0000
  C   C2468     1.0  0.67626  0.85638  0.66501  1.0000
  C   C2469     1.0  0.68001  0.87147  0.65228  1.0000
  C   C2470     1.0  0.68094  0.86425  0.63931  1.0000
  C   C2471     1.0  0.67869  0.84203  0.63905  1.0000
  H   H4223     1.0  0.67152  0.82243  0.67459  1.0000
  H   H4224     1.0  0.67537  0.86186  0.67510  1.0000
  H   H4225     1.0  0.68323  0.87581  0.62947  1.0000
  H   H4226     1.0  0.67960  0.83661  0.62894  1.0000
  C   C2472     1.0  0.83254  0.98238  0.59264  1.0000
  C   C2473     1.0  0.91830  0.67190  0.64784  1.0000
  H   H4227     1.0  0.49400  0.76540  0.63335  1.0000
  H   H4228     1.0  0.54910  0.96670  0.55625  1.0000
  C   C2474     1.0  0.55443  0.92135  0.60440  1.0000
  C   C2475     1.0  0.93109  0.65521  0.65621  1.0000
  H   H4229     1.0  0.70885  0.91104  0.68716  1.0000
  H   H4230     1.0  0.59585  0.95799  0.57461  1.0000
  H   H4231     1.0  0.85689  0.88630  0.51578  1.0000
  C   C2476     1.0  0.58984  0.84613  0.51034  1.0000
  C   C2477     1.0  0.56654  0.85172  0.51089  1.0000
  C   C2478     1.0  0.60304  0.83863  0.49815  1.0000
  H   H4232     1.0  0.55621  0.85769  0.52016  1.0000
  H   H4233     1.0  0.62098  0.83382  0.49785  1.0000
  C   C2479     1.0  0.62359  0.90094  0.58668  1.0000
  C   C2480     1.0  0.63443  0.90026  0.59832  1.0000
  C   C2481     1.0  0.65060  0.91419  0.59746  1.0000
  C   C2482     1.0  0.65587  0.92917  0.58498  1.0000
  C   C2483     1.0  0.64491  0.92999  0.57333  1.0000
  C   C2484     1.0  0.62888  0.91581  0.57414  1.0000
  H   H4234     1.0  0.63028  0.88892  0.60809  1.0000
  H   H4235     1.0  0.65882  0.91352  0.60651  1.0000
  H   H4236     1.0  0.64897  0.94154  0.56365  1.0000
  H   H4237     1.0  0.62055  0.91651  0.56513  1.0000
  C   C2485     1.0  0.53474  0.79072  0.58948  1.0000
  H   H4238     1.0  0.67726  0.85880  0.47802  1.0000
  H   H4239     1.0  0.98249  0.95994  0.53892  1.0000
  H   H4240     1.0  0.75912  0.95416  0.66032  1.0000
  C   C2486     1.0  0.52590  0.75315  0.59861  1.0000
  C   C2487     1.0  0.53865  0.77002  0.59828  1.0000
  C   C2488     1.0  0.84918  0.95250  0.57785  1.0000
  H   H4241     1.0  0.60316  0.78459  0.50744  1.0000
  H   H4242     1.0  0.52931  0.73717  0.60532  1.0000
  H   H4243     1.0  0.55163  0.76696  0.60490  1.0000
  C   C2489     1.0  0.93464  0.86928  0.48199  1.0000
  H   H4244     1.0  0.53912  0.97558  0.59839  1.0000
  C   C2490     1.0  0.83736  0.93571  0.51605  1.0000
  H   H4245     1.0  0.91417  0.66127  0.69134  1.0000
  C   C2491     1.0  0.49823  0.93214  0.57514  1.0000
  C   C2492     1.0  0.82986  0.90920  0.56839  1.0000
  C   C2493     1.0  0.80791  0.92089  0.56830  1.0000
  C   C2494     1.0  0.79129  0.91817  0.58045  1.0000
  C   C2495     1.0  0.79647  0.90338  0.59264  1.0000
  C   C2496     1.0  0.81829  0.89138  0.59262  1.0000
  C   C2497     1.0  0.83500  0.89441  0.58058  1.0000
  H   H4246     1.0  0.80382  0.93236  0.55889  1.0000
  H   H4247     1.0  0.77447  0.92740  0.58034  1.0000
  H   H4248     1.0  0.82238  0.87982  0.60199  1.0000
  H   H4249     1.0  0.85183  0.88523  0.58072  1.0000
  C   C2498     1.0  0.94693  0.82125  0.58809  1.0000
  H   H4250     1.0  0.52810  0.78739  0.55024  1.0000
  C   C2499     1.0  0.97568  0.94223  0.56796  1.0000
  H   H4251     1.0  0.61723  0.90041  0.48450  1.0000
  H   H4252     1.0  0.59201  0.97503  0.59629  1.0000
  C   C2500     1.0  0.94492  0.80391  0.59974  1.0000
  H   H4253     1.0  0.55470  0.93922  0.55212  1.0000
  H   H4254     1.0  0.53843  0.85327  0.50007  1.0000
  H   H4255     1.0  0.93218  0.80642  0.60894  1.0000
  H   H4256     1.0  0.57779  0.95269  0.55291  1.0000
  C   C2501     1.0  0.97782  0.79723  0.57610  1.0000
  C   C2502     1.0  0.95612  0.89299  0.48972  1.0000
  C   C2503     1.0  0.94817  0.88513  0.50402  1.0000
  C   C2504     1.0  0.93387  0.86891  0.50731  1.0000
  C   C2505     1.0  0.92720  0.86092  0.49630  1.0000
  H   H4257     1.0  0.94405  0.66819  0.61410  1.0000
  H   H4258     1.0  0.96721  0.90551  0.48710  1.0000
  H   H4259     1.0  0.92795  0.86252  0.51832  1.0000
  N   N177      1.0  0.56191  0.78335  0.53817  1.0000
  N   N178      1.0  0.75451  0.82928  0.63338  1.0000
  C   C2506     1.0  0.75700  0.80478  0.63983  1.0000
  C   C2507     1.0  0.77781  0.83496  0.62746  1.0000
  C   C2508     1.0  0.74065  0.83266  0.62152  1.0000
  C   C2509     1.0  0.74270  0.84255  0.64499  1.0000
  C   C2510     1.0  0.73479  0.79509  0.64543  1.0000
  C   C2511     1.0  0.79421  0.83149  0.63824  1.0000
  C   C2512     1.0  0.74542  0.85130  0.60873  1.0000
  C   C2513     1.0  0.74117  0.86813  0.64128  1.0000
  H   H4260     1.0  0.76724  0.79437  0.63194  1.0000
  H   H4261     1.0  0.76616  0.80143  0.64907  1.0000
  H   H4262     1.0  0.77723  0.85268  0.62222  1.0000
  H   H4263     1.0  0.78598  0.82490  0.61891  1.0000
  H   H4264     1.0  0.74305  0.81719  0.61664  1.0000
  H   H4265     1.0  0.72237  0.83582  0.62575  1.0000
  H   H4266     1.0  0.72506  0.83925  0.64851  1.0000
  H   H4267     1.0  0.75092  0.83719  0.65465  1.0000
  H   H4268     1.0  0.73877  0.77680  0.64914  1.0000
  C   C2514     1.0  0.85219  0.92861  0.50240  1.0000
  H   H4269     1.0  0.72404  0.79715  0.63712  1.0000
  H   H4270     1.0  0.78744  0.84102  0.64715  1.0000
  H   H4271     1.0  0.79913  0.81353  0.64238  1.0000
  H   H4272     1.0  0.80996  0.83791  0.63270  1.0000
  H   H4273     1.0  0.74548  0.86754  0.61192  1.0000
  H   H4274     1.0  0.73212  0.85384  0.60196  1.0000
  H   H4275     1.0  0.76176  0.84658  0.60194  1.0000
  H   H4276     1.0  0.75787  0.87371  0.63808  1.0000
  H   H4277     1.0  0.73278  0.87566  0.65085  1.0000
  H   H4278     1.0  0.73057  0.87497  0.63297  1.0000
  H   H4279     1.0  0.92081  0.93663  0.48988  1.0000
  C   C2515     1.0  0.88628  0.94453  0.50169  1.0000
  C   C2516     1.0  0.59309  0.83688  0.48651  1.0000
  H   H4280     1.0  0.88516  0.87213  0.51607  1.0000
  C   C2517     1.0  0.84825  0.65286  0.71256  1.0000
  H   H4281     1.0  0.98754  0.93727  0.50490  1.0000
  H   H4282     1.0  0.53395  0.82541  0.53413  1.0000
  H   H4283     1.0  0.65208  0.66365  0.66387  1.0000
  H   H4284     1.0  0.57313  0.92518  0.57389  1.0000
  H   H4285     1.0  0.53036  0.77569  0.53452  1.0000
  H   H4286     1.0  0.82970  0.94973  0.61343  1.0000
  C   C2518     1.0  0.55935  0.93983  0.57376  1.0000
  C   C2519     1.0  0.74542  0.65240  0.67845  1.0000
  H   H4287     1.0  0.90249  0.68989  0.69363  1.0000
  H   H4288     1.0  0.60345  0.77823  0.54677  1.0000
  H   H4289     1.0  0.95239  0.94667  0.52134  1.0000
  C   C2520     1.0  0.59207  0.79204  0.55136  1.0000
  C   C2521     1.0  0.98131  0.94968  0.53090  1.0000
  H   H4290     1.0  0.88244  0.94602  0.59202  1.0000
  H   H4291     1.0  0.85946  0.93571  0.57782  1.0000
  H   H4292     1.0  0.80779  0.98050  0.57911  1.0000
  H   H4293     1.0  0.96403  0.97205  0.51400  1.0000
  H   H4294     1.0  0.85845  0.69615  0.71213  1.0000
  C   C2522     1.0  0.90052  0.67530  0.68905  1.0000
  H   H4295     1.0  0.55435  0.90927  0.59728  1.0000
  H   H4296     1.0  0.58247  0.66616  0.69933  1.0000
  H   H4297     1.0  0.63884  0.68667  0.68555  1.0000
  C   C2523     1.0  0.72348  0.66026  0.68473  1.0000
  N   N179      1.0  0.84714  0.95989  0.59206  1.0000
  C   C2524     1.0  0.58137  0.65235  0.67563  1.0000
  H   H4298     1.0  0.97708  0.93365  0.53743  1.0000
  C   C2525     1.0  0.85993  0.96732  0.56460  1.0000
  H   H4299     1.0  0.61957  0.68725  0.70690  1.0000
  C   C2526     1.0  0.50881  0.75700  0.59033  1.0000
  C   C2527     1.0  0.75588  0.66491  0.66622  1.0000
  C   C2528     1.0  0.56739  0.75905  0.54461  1.0000
  H   H4300     1.0  0.83942  0.90853  0.61427  1.0000
  H   H4301     1.0  0.82419  0.68395  0.71508  1.0000
  H   H4302     1.0  0.98106  0.85508  0.60308  1.0000
  C   C2529     1.0  0.49987  0.93629  0.56031  1.0000
  H   H4303     1.0  0.66091  0.97787  0.65788  1.0000
  C   C2530     1.0  0.88186  0.90823  0.51658  1.0000
  C   C2531     1.0  0.56892  0.93972  0.59716  1.0000
  H   H4304     1.0  0.97360  0.79949  0.63893  1.0000
  H   H4305     1.0  0.74133  0.98005  0.66252  1.0000
  H   H4306     1.0  0.98801  0.83058  0.62457  1.0000
  H   H4307     1.0  0.88585  0.68620  0.71617  1.0000
  H   H4308     1.0  0.53018  0.81243  0.51960  1.0000
  C   C2532     1.0  0.53662  0.78841  0.53897  1.0000
  C   C2533     1.0  0.59950  0.66792  0.67181  1.0000
  C   C2534     1.0  0.95909  0.96100  0.56644  1.0000
  C   C2535     1.0  0.56972  0.84202  0.48719  1.0000
  C   C2536     1.0  0.87247  0.88576  0.52010  1.0000
  Fe  Fe370     1.0  0.96605  0.70015  0.63128  1.0000
  H   H4309     1.0  0.90637  0.90514  0.49132  1.0000
  C   C2537     1.0  0.85031  0.91999  0.60710  1.0000
  C   C2538     1.0  0.86897  0.68119  0.71724  1.0000
  H   H4310     1.0  0.73324  0.94867  0.68284  1.0000
  H   H4311     1.0  0.96500  0.83113  0.56716  1.0000
  H   H4312     1.0  0.63599  0.68727  0.65435  1.0000
  H   H4313     1.0  0.55991  0.76433  0.56715  1.0000
  H   H4314     1.0  0.86797  0.88127  0.53184  1.0000
  H   H4315     1.0  0.90028  0.90364  0.51656  1.0000
  H   H4316     1.0  0.59164  0.68727  0.71624  1.0000
  H   H4317     1.0  0.82979  0.67714  0.69721  1.0000
  H   H4318     1.0  0.93286  0.66403  0.59937  1.0000
  H   H4319     1.0  0.56976  0.81586  0.53907  1.0000
  H   H4320     1.0  0.86386  0.92121  0.61294  1.0000
  H   H4321     1.0  0.81268  0.66162  0.71118  1.0000
  H   H4322     1.0  0.86870  0.92789  0.47383  1.0000
  C   C2539     1.0  0.72634  0.94952  0.67286  1.0000
  H   H4323     1.0  0.58570  0.75328  0.54384  1.0000
  C   C2540     1.0  0.97587  0.77993  0.58782  1.0000
  N   N180      1.0  0.87050  0.66136  0.70984  1.0000
  H   H4324     1.0  0.97112  0.92562  0.57009  1.0000
  C   C2541     1.0  0.59576  0.67700  0.69557  1.0000
  H   H4325     1.0  0.81986  0.94177  0.51397  1.0000
  H   H4326     1.0  0.59080  0.68492  0.66814  1.0000
  C   C2542     1.0  0.95919  0.78330  0.59957  1.0000
  C   C2543     1.0  0.83581  0.94296  0.60326  1.0000
  H   H4327     1.0  0.56474  0.73572  0.56462  1.0000
  C   C2544     1.0  0.96332  0.81783  0.57619  1.0000
  C   C2545     1.0  0.96518  0.98251  0.56403  1.0000
  C   C2546     1.0  0.74143  0.96272  0.66078  1.0000
  C   C2547     1.0  0.60501  0.67811  0.70907  1.0000
  H   H4328     1.0  0.58682  0.69406  0.69191  1.0000
  S   S730      1.0  0.98303  0.69507  0.60914  1.0000
  Fe  Fe371     1.0  0.50608  0.65534  0.61513  1.0000
  C   C2548     1.0  0.89589  0.66994  0.64757  1.0000
  C   C2549     1.0  0.87007  0.96036  0.59560  1.0000
  S   S731      1.0  0.49188  0.73632  0.59141  1.0000
  H   H4329     1.0  0.68214  0.91262  0.69835  1.0000
  H   H4330     1.0  0.79836  0.97274  0.59806  1.0000
  C   C2550     1.0  0.94924  0.88524  0.47874  1.0000
  C   C2551     1.0  0.98830  0.78604  0.63955  1.0000
  H   H4331     1.0  0.95723  0.77006  0.60855  1.0000
  H   H4332     1.0  0.94819  0.65683  0.65676  1.0000
  N   N181      1.0  0.87712  0.92296  0.50285  1.0000
  H   H4333     1.0  0.61878  0.70275  0.67552  1.0000
  H   H4334     1.0  0.60148  0.80650  0.54871  1.0000
  H   H4335     1.0  0.56571  0.77578  0.51682  1.0000
  C   C2552     1.0  0.56027  0.95056  0.55795  1.0000
  H   H4336     1.0  0.66220  0.94922  0.65583  1.0000
  H   H4337     1.0  0.84548  0.91443  0.49988  1.0000
  S   S732      1.0  0.51557  0.91688  0.54962  1.0000
  C   C2553     1.0  0.69064  0.94542  0.68833  1.0000
  H   H4338     1.0  0.68310  0.91744  0.67954  1.0000
  N   N182      1.0  0.56144  0.95465  0.58408  1.0000
  H   H4339     1.0  0.89820  0.97878  0.59233  1.0000
  C   C2554     1.0  0.69144  0.92026  0.68812  1.0000
  H   H4340     1.0  0.72943  0.93207  0.67054  1.0000
  H   H4341     1.0  0.49174  0.78068  0.57495  1.0000
  C   C2555     1.0  0.88642  0.65121  0.65529  1.0000
  C   C2556     1.0  0.52713  0.81163  0.53134  1.0000
  H   H4342     1.0  0.67267  0.95221  0.69133  1.0000
  H   H4343     1.0  0.65695  0.95605  0.67302  1.0000
  H   H4344     1.0  0.60939  0.66110  0.71506  1.0000
  H   H4345     1.0  0.69876  0.93900  0.65889  1.0000
  H   H4346     1.0  0.56923  0.94967  0.60557  1.0000
  C   C2557     1.0  0.53901  0.96825  0.58874  1.0000
  H   H4347     1.0  0.64558  0.82942  0.47518  1.0000
  H   H4348     1.0  0.85380  0.96444  0.55510  1.0000
  H   H4349     1.0  0.58940  0.78781  0.56317  1.0000
  Fe  Fe372     1.0  0.49964  0.70623  0.60813  1.0000
  H   H4350     1.0  0.84874  0.94255  0.49355  1.0000
  H   H4351     1.0  0.84323  0.94947  0.51956  1.0000
  C   C2558     1.0  0.69252  0.95593  0.66184  1.0000
  H   H4352     1.0  0.94798  0.96963  0.53128  1.0000
  C   C2559     1.0  0.88641  0.92359  0.47567  1.0000
  C   C2560     1.0  0.64462  0.68147  0.66377  1.0000
  H   H4353     1.0  0.60331  0.83080  0.47722  1.0000
  H   H4354     1.0  0.85782  0.91191  0.59767  1.0000
  S   S733      1.0  0.97485  0.73473  0.62905  1.0000
  H   H4355     1.0  0.87613  0.91734  0.52580  1.0000
  C   C2561     1.0  0.82781  0.67017  0.70871  1.0000
  C   C2562     1.0  0.55652  0.84934  0.49945  1.0000
  N   N183      1.0  0.60972  0.80335  0.62938  1.0000
  C   C2563     1.0  0.61888  0.80875  0.64157  1.0000
  C   C2564     1.0  0.62945  0.79243  0.61987  1.0000
  C   C2565     1.0  0.59372  0.78673  0.63566  1.0000
  C   C2566     1.0  0.59778  0.82473  0.62184  1.0000
  C   C2567     1.0  0.60131  0.81812  0.65351  1.0000
  C   C2568     1.0  0.64857  0.80656  0.61383  1.0000
  C   C2569     1.0  0.58287  0.77787  0.62516  1.0000
  C   C2570     1.0  0.59564  0.82530  0.60610  1.0000
  H   H4356     1.0  0.62919  0.79360  0.64673  1.0000
  H   H4357     1.0  0.63044  0.82144  0.63770  1.0000
  H   H4358     1.0  0.62431  0.78765  0.61065  1.0000
  H   H4359     1.0  0.63711  0.77631  0.62574  1.0000
  H   H4360     1.0  0.60237  0.77191  0.64218  1.0000
  H   H4361     1.0  0.57930  0.79405  0.64308  1.0000
  H   H4362     1.0  0.58050  0.82904  0.62773  1.0000
  H   H4363     1.0  0.60676  0.83900  0.62175  1.0000
  H   H4364     1.0  0.61021  0.82448  0.66056  1.0000
  H   H4365     1.0  0.58911  0.83230  0.64933  1.0000
  H   H4366     1.0  0.59231  0.80480  0.66034  1.0000
  H   H4367     1.0  0.65987  0.79910  0.60497  1.0000
  H   H4368     1.0  0.64224  0.82413  0.60958  1.0000
  H   H4369     1.0  0.65909  0.80638  0.62202  1.0000
  H   H4370     1.0  0.59538  0.76961  0.61717  1.0000
  H   H4371     1.0  0.57096  0.79124  0.61991  1.0000
  H   H4372     1.0  0.57271  0.76489  0.63124  1.0000
  H   H4373     1.0  0.57968  0.83617  0.60385  1.0000
  H   H4374     1.0  0.59516  0.80900  0.60306  1.0000
  H   H4375     1.0  0.60911  0.83354  0.59879  1.0000
  C   C2571     1.0  0.57226  0.78657  0.52263  1.0000
  C   C2572     1.0  0.56916  0.79923  0.54594  1.0000
  C   C2573     1.0  0.59813  0.78233  0.51920  1.0000
  H   H4376     1.0  0.66621  0.79896  0.71567  1.0000
  H   H4377     1.0  0.56753  0.80407  0.51742  1.0000
  C   C2574     1.0  0.57959  0.96889  0.57763  1.0000
  H   H4378     1.0  0.55641  0.80240  0.55550  1.0000
  C   C2575     1.0  0.55699  0.75287  0.56037  1.0000
  H   H4379     1.0  0.60563  0.79489  0.52289  1.0000
  H   H4380     1.0  0.87558  0.65504  0.68806  1.0000
  H   H4381     1.0  0.60547  0.76509  0.52339  1.0000
  H   H4382     1.0  0.57610  0.97962  0.56750  1.0000
  C   C2576     1.0  0.66675  0.96026  0.66236  1.0000
  H   H4383     1.0  0.54343  0.93258  0.57702  1.0000
  H   H4384     1.0  0.56166  0.74811  0.53849  1.0000
  H   H4385     1.0  0.72492  0.80246  0.65473  1.0000
  H   H4386     1.0  0.64451  0.65327  0.70310  1.0000
  H   H4387     1.0  0.91657  0.95957  0.49934  1.0000
  C   C2577     1.0  0.62838  0.68557  0.67764  1.0000
  H   H4388     1.0  0.69859  0.94689  0.69750  1.0000
  S   S734      1.0  0.78290  0.65469  0.65764  1.0000
  H   H4389     1.0  0.83649  0.92136  0.52490  1.0000
  H   H4390     1.0  0.51486  0.81052  0.57413  1.0000
  C   C2578     1.0  0.88827  0.91059  0.49076  1.0000
  H   H4391     1.0  0.58650  0.93116  0.59460  1.0000
  H   H4392     1.0  0.65863  0.69133  0.66231  1.0000
  H   H4393     1.0  0.87941  0.95246  0.51134  1.0000
  H   H4394     1.0  0.53694  0.92841  0.60850  1.0000
  H   H4395     1.0  0.88070  0.95706  0.49266  1.0000
  H   H4396     1.0  0.91906  0.93193  0.50906  1.0000
  C   C2579     1.0  0.51803  0.79451  0.58088  1.0000
  H   H4397     1.0  0.53866  0.75248  0.56157  1.0000
  H   H4398     1.0  0.88129  0.89479  0.49161  1.0000
  N   N184      1.0  0.70146  0.95860  0.67481  1.0000
  H   H4399     1.0  0.56194  0.91150  0.61368  1.0000
  S   S735      1.0  0.51305  0.65591  0.63711  1.0000
  H   H4400     1.0  0.64665  0.90071  0.48282  1.0000
  N   N185      1.0  0.61255  0.66867  0.68343  1.0000
  H   H4401     1.0  0.97704  0.81614  0.61385  1.0000
  H   H4402     1.0  0.71545  0.65036  0.69413  1.0000
  H   H4403     1.0  0.63781  0.86365  0.48111  1.0000
  H   H4404     1.0  0.69946  0.96729  0.65232  1.0000
  H   H4405     1.0  0.98154  0.77028  0.64440  1.0000
  H   H4406     1.0  0.82057  0.93929  0.59993  1.0000
  H   H4407     1.0  0.87858  0.96296  0.56296  1.0000
  H   H4408     1.0  0.52585  0.95720  0.59239  1.0000
  H   H4409     1.0  0.50857  0.81468  0.53463  1.0000
  C   C2580     1.0  0.63330  0.89930  0.47688  1.0000
  H   H4410     1.0  0.73678  0.96315  0.65024  1.0000
  H   H4411     1.0  0.50676  0.91664  0.58031  1.0000
  H   H4412     1.0  0.86930  0.95828  0.60736  1.0000
  C   C2581     1.0  0.96037  0.96001  0.52384  1.0000
  H   H4413     1.0  0.50616  0.98125  0.47644  1.0000
  H   H4414     1.0  0.83271  0.94973  0.57585  1.0000
  C   C2582     1.0  0.50496  0.77766  0.58138  1.0000
  H   H4415     1.0  0.61092  0.66244  0.66230  1.0000
  H   H4416     1.0  0.56617  0.65956  0.68248  1.0000
  H   H4417     1.0  0.92158  0.65154  0.61679  1.0000
  C   C2583     1.0  0.88086  0.98177  0.58974  1.0000
  H   H4418     1.0  0.51920  0.98061  0.57137  1.0000
  H   H4419     1.0  0.86920  0.64977  0.65487  1.0000
  H   H4420     1.0  0.57567  0.65081  0.66565  1.0000
  H   H4421     1.0  0.49158  0.95776  0.47919  1.0000
  H   H4422     1.0  0.77732  0.72927  0.75912  1.0000
  S   S736      1.0  0.76746  0.95747  0.85502  1.0000
  S   S737      1.0  0.79091  0.96160  0.88988  1.0000
  S   S738      1.0  0.71394  0.97754  0.85393  1.0000
  H   H4423     1.0  0.98037  0.80929  0.91693  1.0000
  C   C2584     1.0  0.97553  0.91420  0.93464  1.0000
  Fe  Fe373     1.0  0.73410  0.94447  0.86150  1.0000
  S   S739      1.0  0.72586  0.91009  0.85974  1.0000
  S   S740      1.0  0.73035  0.95145  0.88404  1.0000
  Fe  Fe374     1.0  0.68375  0.83760  0.80817  1.0000
  S   S741      1.0  0.67106  0.80999  0.82486  1.0000
  S   S742      1.0  0.69629  0.86931  0.81098  1.0000
  Fe  Fe375     1.0  0.67707  0.81451  0.78364  1.0000
  S   S743      1.0  0.66428  0.78534  0.79856  1.0000
  S   S744      1.0  0.68221  0.81776  0.75949  1.0000
  Fe  Fe376     1.0  0.64439  0.81103  0.81153  1.0000
  S   S745      1.0  0.60771  0.81129  0.82149  1.0000
  Fe  Fe377     1.0  0.69201  0.78666  0.81046  1.0000
  S   S746      1.0  0.71139  0.75446  0.82021  1.0000
  S   S747      1.0  0.65527  0.84051  0.79579  1.0000
  S   S748      1.0  0.70656  0.81390  0.79459  1.0000
  H   H4424     1.0  0.65198  0.94905  0.92399  1.0000
  H   H4425     1.0  0.49385  0.89328  0.91586  1.0000
  H   H4426     1.0  0.92207  0.96363  0.95876  1.0000
  H   H4427     1.0  0.49717  0.84798  0.87785  1.0000
  C   C2585     1.0  0.74173  0.72616  0.76512  1.0000
  H   H4428     1.0  0.57957  0.83174  0.79711  1.0000
  H   H4429     1.0  0.95287  0.64977  0.87008  1.0000
  Fe  Fe378     1.0  0.82334  0.68277  0.79316  1.0000
  S   S749      1.0  0.80424  0.71658  0.78515  1.0000
  C   C2586     1.0  0.56382  0.82762  0.79489  1.0000
  S   S750      1.0  0.85911  0.67428  0.78240  1.0000
  H   H4430     1.0  0.53034  0.85722  0.86744  1.0000
  H   H4431     1.0  0.68336  0.81968  0.72950  1.0000
  S   S751      1.0  0.98982  0.77957  0.87698  1.0000
  C   C2587     1.0  0.80413  0.98124  0.89551  1.0000
  Fe  Fe379     1.0  0.95931  0.72033  0.85737  1.0000
  S   S752      1.0  0.92432  0.72100  0.85193  1.0000
  H   H4432     1.0  0.92925  0.95472  0.93310  1.0000
  C   C2588     1.0  0.92983  0.67032  0.88320  1.0000
  H   H4433     1.0  0.57328  0.78132  0.79904  1.0000
  H   H4434     1.0  0.62019  0.82202  0.76183  1.0000
  H   H4435     1.0  0.68723  0.71253  0.79268  1.0000
  H   H4436     1.0  0.55096  0.80485  0.75883  1.0000
  H   H4437     1.0  0.96221  0.83895  0.89487  1.0000
  S   S753      1.0  0.51482  0.68776  0.85104  1.0000
  Fe  Fe380     1.0  0.52561  0.72182  0.84650  1.0000
  S   S754      1.0  0.56084  0.72408  0.83398  1.0000
  S   S755      1.0  0.51368  0.72854  0.86897  1.0000
  H   H4438     1.0  0.69396  0.73944  0.79271  1.0000
  H   H4439     1.0  0.63307  0.82074  0.77694  1.0000
  H   H4440     1.0  0.60482  0.80074  0.79306  1.0000
  C   C2589     1.0  0.66406  0.79487  0.72716  1.0000
  C   C2590     1.0  0.99008  0.92401  0.92322  1.0000
  H   H4441     1.0  0.60636  0.83765  0.77601  1.0000
  C   C2591     1.0  0.97579  0.85416  0.91622  1.0000
  H   H4442     1.0  0.66874  0.98030  0.84395  1.0000
  C   C2592     1.0  0.96593  0.87671  0.90784  1.0000
  H   H4443     1.0  0.72970  0.79416  0.76591  1.0000
  C   C2593     1.0  0.90625  0.67904  0.82206  1.0000
  C   C2594     1.0  0.92882  0.67822  0.82356  1.0000
  C   C2595     1.0  0.93469  0.69131  0.83238  1.0000
  C   C2596     1.0  0.91799  0.70544  0.83985  1.0000
  C   C2597     1.0  0.89544  0.70656  0.83816  1.0000
  C   C2598     1.0  0.88957  0.69345  0.82933  1.0000
  H   H4444     1.0  0.87522  0.66185  0.88013  1.0000
  H   H4445     1.0  0.95212  0.69036  0.83347  1.0000
  H   H4446     1.0  0.88240  0.71746  0.84386  1.0000
  H   H4447     1.0  0.87214  0.69427  0.82829  1.0000
  C   C2599     1.0  0.70069  0.72871  0.77155  1.0000
  H   H4448     1.0  0.56994  0.79042  0.74595  1.0000
  H   H4449     1.0  0.91211  0.67820  0.88544  1.0000
  C   C2600     1.0  0.95356  0.92532  0.93817  1.0000
  C   C2601     1.0  0.93420  0.96759  0.96478  1.0000
  H   H4450     1.0  0.54242  0.91994  0.96436  1.0000
  H   H4451     1.0  0.54961  0.81827  0.77877  1.0000
  H   H4452     1.0  0.94222  0.91779  0.94700  1.0000
  H   H4453     1.0  0.71608  0.71564  0.79109  1.0000
  C   C2602     1.0  0.97217  0.81524  0.92707  1.0000
  C   C2603     1.0  0.73753  0.74422  0.81066  1.0000
  C   C2604     1.0  0.74771  0.75732  0.79860  1.0000
  C   C2605     1.0  0.76828  0.74868  0.79096  1.0000
  C   C2606     1.0  0.77892  0.72695  0.79538  1.0000
  C   C2607     1.0  0.76894  0.71393  0.80756  1.0000
  C   C2608     1.0  0.74828  0.72258  0.81519  1.0000
  H   H4454     1.0  0.73975  0.77407  0.79509  1.0000
  H   H4455     1.0  0.77606  0.75883  0.78160  1.0000
  H   H4456     1.0  0.77710  0.69715  0.81103  1.0000
  H   H4457     1.0  0.74059  0.71237  0.82456  1.0000
  C   C2609     1.0  0.67050  0.80199  0.74999  1.0000
  C   C2610     1.0  0.67370  0.80664  0.73503  1.0000
  H   H4458     1.0  0.55731  0.81488  0.80367  1.0000
  C   C2611     1.0  0.65099  0.77844  0.73421  1.0000
  C   C2612     1.0  0.64837  0.77334  0.74916  1.0000
  C   C2613     1.0  0.65821  0.78492  0.75700  1.0000
  H   H4459     1.0  0.90708  0.65776  0.85175  1.0000
  H   H4460     1.0  0.63860  0.76037  0.75467  1.0000
  H   H4461     1.0  0.65624  0.78075  0.76846  1.0000
  C   C2614     1.0  0.59435  0.78736  0.82422  1.0000
  C   C2615     1.0  0.57285  0.78752  0.83247  1.0000
  C   C2616     1.0  0.56219  0.76834  0.83543  1.0000
  C   C2617     1.0  0.57299  0.74888  0.83010  1.0000
  C   C2618     1.0  0.59432  0.74887  0.82162  1.0000
  C   C2619     1.0  0.60493  0.76804  0.81863  1.0000
  H   H4462     1.0  0.56450  0.80244  0.83678  1.0000
  H   H4463     1.0  0.54571  0.76853  0.84194  1.0000
  H   H4464     1.0  0.60266  0.73387  0.81739  1.0000
  H   H4465     1.0  0.62134  0.76781  0.81211  1.0000
  C   C2620     1.0  0.56671  0.82034  0.78015  1.0000
  C   C2621     1.0  0.71691  0.89951  0.84611  1.0000
  C   C2622     1.0  0.71668  0.91145  0.83232  1.0000
  C   C2623     1.0  0.71010  0.90200  0.82182  1.0000
  C   C2624     1.0  0.70342  0.88063  0.82494  1.0000
  C   C2625     1.0  0.70322  0.86887  0.83882  1.0000
  C   C2626     1.0  0.71006  0.87820  0.84928  1.0000
  H   H4466     1.0  0.72200  0.92778  0.82965  1.0000
  H   H4467     1.0  0.71038  0.91129  0.81114  1.0000
  H   H4468     1.0  0.69799  0.85253  0.84148  1.0000
  H   H4469     1.0  0.71012  0.86881  0.85991  1.0000
  S   S756      1.0  0.96212  0.72320  0.87983  1.0000
  C   C2627     1.0  0.96087  0.95618  0.91904  1.0000
  C   C2628     1.0  0.69973  0.72397  0.78790  1.0000
  H   H4470     1.0  0.70175  0.71209  0.76830  1.0000
  H   H4471     1.0  0.74802  0.95301  0.91249  1.0000
  C   C2629     1.0  0.88342  0.66802  0.86924  1.0000
  H   H4472     1.0  0.64908  0.96750  0.88389  1.0000
  N   N186      1.0  0.64891  0.94949  0.86688  1.0000
  N   N187      1.0  0.95947  0.83874  0.92432  1.0000
  H   H4473     1.0  0.64778  0.93687  0.84769  1.0000
  C   C2630     1.0  0.94105  0.83762  0.91621  1.0000
  C   C2631     1.0  0.94925  0.84546  0.93863  1.0000
  H   H4474     1.0  0.52308  0.88067  0.91544  1.0000
  H   H4475     1.0  0.61819  0.78615  0.77904  1.0000
  C   C2632     1.0  0.94903  0.82974  0.90161  1.0000
  C   C2633     1.0  0.93353  0.86805  0.93864  1.0000
  C   C2634     1.0  0.73396  0.77872  0.76096  1.0000
  H   H4476     1.0  0.96045  0.80315  0.93242  1.0000
  H   H4477     1.0  0.69932  0.71844  0.74481  1.0000
  H   H4478     1.0  0.93008  0.85389  0.91423  1.0000
  H   H4479     1.0  0.92945  0.82612  0.92268  1.0000
  H   H4480     1.0  0.93956  0.83240  0.94525  1.0000
  H   H4481     1.0  0.96263  0.84672  0.94466  1.0000
  C   C2635     1.0  0.60582  0.94818  0.87061  1.0000
  H   H4482     1.0  0.56074  0.77512  0.76295  1.0000
  H   H4483     1.0  0.49411  0.90066  0.89070  1.0000
  C   C2636     1.0  0.64871  0.96565  0.91794  1.0000
  H   H4484     1.0  0.68189  0.96382  0.90521  1.0000
  H   H4485     1.0  0.58911  0.75247  0.77510  1.0000
  H   H4486     1.0  0.93462  0.65936  0.89299  1.0000
  H   H4487     1.0  0.51022  0.94751  0.96833  1.0000
  H   H4488     1.0  0.91863  0.86891  0.93351  1.0000
  H   H4489     1.0  0.94274  0.88228  0.93391  1.0000
  H   H4490     1.0  0.92701  0.87033  0.94986  1.0000
  C   C2637     1.0  0.61659  0.82165  0.77351  1.0000
  C   C2638     1.0  0.54995  0.65966  0.91724  1.0000
  H   H4491     1.0  0.55065  0.87363  0.86891  1.0000
  H   H4492     1.0  0.98815  0.84550  0.90829  1.0000
  H   H4493     1.0  0.55521  0.67227  0.92223  1.0000
  C   C2639     1.0  0.85989  0.67770  0.73339  1.0000
  H   H4494     1.0  0.95444  0.97667  0.94466  1.0000
  H   H4495     1.0  0.60483  0.75457  0.78874  1.0000
  H   H4496     1.0  0.66463  0.75906  0.86930  1.0000
  H   H4497     1.0  0.98540  0.95402  0.94469  1.0000
  C   C2640     1.0  0.56562  0.79147  0.75750  1.0000
  H   H4498     1.0  0.93455  0.83272  0.89574  1.0000
  C   C2641     1.0  0.98272  0.94488  0.91541  1.0000
  H   H4499     1.0  0.74609  0.72701  0.77563  1.0000
  S   S757      1.0  0.83141  0.67055  0.81531  1.0000
  C   C2642     1.0  0.66995  0.93310  0.86933  1.0000
  S   S758      1.0  0.98443  0.88821  0.94475  1.0000
  H   H4500     1.0  0.53071  0.88305  0.89172  1.0000
  C   C2643     1.0  0.52847  0.91430  0.97263  1.0000
  C   C2644     1.0  0.66745  0.96386  0.84130  1.0000
  H   H4501     1.0  0.60056  0.78307  0.76006  1.0000
  H   H4502     1.0  0.72853  0.75529  0.74072  1.0000
  H   H4503     1.0  0.51946  0.90457  0.96770  1.0000
  H   H4504     1.0  0.60147  0.96654  0.86988  1.0000
  H   H4505     1.0  0.95521  0.81145  0.90275  1.0000
  H   H4506     1.0  0.51418  0.84390  0.91368  1.0000
  N   N188      1.0  0.50301  0.86433  0.89463  1.0000
  H   H4507     1.0  0.60488  0.94319  0.86033  1.0000
  H   H4508     1.0  0.94189  0.66725  0.81792  1.0000
  H   H4509     1.0  0.63229  0.96380  0.84844  1.0000
  C   C2645     1.0  0.53260  0.87170  0.87202  1.0000
  H   H4510     1.0  0.55124  0.84309  0.79516  1.0000
  N   N189      1.0  0.64410  0.73749  0.85193  1.0000
  C   C2646     1.0  0.64328  0.72315  0.84101  1.0000
  C   C2647     1.0  0.63326  0.72629  0.86616  1.0000
  C   C2648     1.0  0.66852  0.73859  0.85211  1.0000
  C   C2649     1.0  0.63148  0.76045  0.84752  1.0000
  C   C2650     1.0  0.65785  0.72850  0.82626  1.0000
  C   C2651     1.0  0.60828  0.72380  0.86731  1.0000
  C   C2652     1.0  0.67455  0.74362  0.86582  1.0000
  C   C2653     1.0  0.62906  0.77788  0.85742  1.0000
  H   H4511     1.0  0.64869  0.70510  0.84501  1.0000
  H   H4512     1.0  0.62576  0.72433  0.83900  1.0000
  H   H4513     1.0  0.63402  0.73523  0.87493  1.0000
  H   H4514     1.0  0.64276  0.70922  0.86896  1.0000
  H   H4515     1.0  0.67926  0.72233  0.85033  1.0000
  H   H4516     1.0  0.67487  0.75132  0.84319  1.0000
  H   H4517     1.0  0.63966  0.76836  0.83700  1.0000
  H   H4518     1.0  0.61437  0.75950  0.84566  1.0000
  H   H4519     1.0  0.65367  0.71878  0.81881  1.0000
  H   H4520     1.0  0.65479  0.74637  0.82154  1.0000
  H   H4521     1.0  0.67608  0.72343  0.82672  1.0000
  H   H4522     1.0  0.60576  0.71297  0.85998  1.0000
  H   H4523     1.0  0.60220  0.71562  0.87826  1.0000
  H   H4524     1.0  0.59736  0.74025  0.86553  1.0000
  H   H4525     1.0  0.69253  0.74598  0.86378  1.0000
  H   H4526     1.0  0.67285  0.72928  0.87464  1.0000
  H   H4527     1.0  0.64399  0.78667  0.85503  1.0000
  H   H4528     1.0  0.62590  0.77088  0.86885  1.0000
  H   H4529     1.0  0.61395  0.79053  0.85564  1.0000
  H   H4530     1.0  0.83254  0.95662  0.90064  1.0000
  C   C2654     1.0  0.60578  0.80103  0.78147  1.0000
  H   H4531     1.0  0.65932  0.91495  0.89097  1.0000
  H   H4532     1.0  0.53910  0.65414  0.87103  1.0000
  H   H4533     1.0  0.68400  0.73822  0.76940  1.0000
  H   H4534     1.0  0.50708  0.81528  0.90487  1.0000
  H   H4535     1.0  0.50534  0.80973  0.88783  1.0000
  C   C2655     1.0  0.73240  0.96257  0.91768  1.0000
  H   H4536     1.0  0.76694  0.71758  0.74678  1.0000
  C   C2656     1.0  0.51054  0.82182  0.89331  1.0000
  N   N190      1.0  0.71955  0.74082  0.76306  1.0000
  C   C2657     1.0  0.93488  0.65740  0.87047  1.0000
  C   C2658     1.0  0.65044  0.97065  0.87212  1.0000
  H   H4537     1.0  0.66421  0.96692  0.83014  1.0000
  C   C2659     1.0  0.94621  0.94624  0.93036  1.0000
  H   H4538     1.0  0.50211  0.87186  0.92984  1.0000
  H   H4539     1.0  0.71990  0.75928  0.77993  1.0000
  N   N191      1.0  0.58324  0.79941  0.77796  1.0000
  H   H4540     1.0  0.73252  0.78422  0.74956  1.0000
  C   C2660     1.0  0.49336  0.96567  0.91972  1.0000
  S   S759      1.0  0.49187  0.97755  0.94621  1.0000
  C   C2661     1.0  0.64801  0.95312  0.85114  1.0000
  H   H4541     1.0  0.52882  0.82181  0.88969  1.0000
  H   H4542     1.0  0.85972  0.69336  0.73757  1.0000
  C   C2662     1.0  0.71529  0.72537  0.74086  1.0000
  H   H4543     1.0  0.53903  0.85376  0.89251  1.0000
  H   H4544     1.0  0.94763  0.88189  0.91051  1.0000
  C   C2663     1.0  0.67285  0.92445  0.88501  1.0000
  H   H4545     1.0  0.55646  0.77941  0.78657  1.0000
  C   C2664     1.0  0.52677  0.86807  0.88836  1.0000
  H   H4546     1.0  0.69954  0.75726  0.74676  1.0000
  H   H4547     1.0  0.86993  0.67343  0.86253  1.0000
  H   H4548     1.0  0.59112  0.81195  0.75538  1.0000
  H   H4549     1.0  0.76116  0.74735  0.74697  1.0000
  C   C2665     1.0  0.50159  0.85867  0.91061  1.0000
  S   S760      1.0  0.50199  0.66917  0.89250  1.0000
  H   H4550     1.0  0.81215  0.96901  0.85467  1.0000
  H   H4551     1.0  0.50822  0.97367  0.91613  1.0000
  S   S761      1.0  0.81300  0.65064  0.79072  1.0000
  C   C2666     1.0  0.57416  0.77976  0.78770  1.0000
  H   H4552     1.0  0.68894  0.91271  0.88526  1.0000
  H   H4553     1.0  0.71790  0.95563  0.91579  1.0000
  H   H4554     1.0  0.70018  0.77190  0.76853  1.0000
  H   H4555     1.0  0.57123  0.83479  0.77191  1.0000
  C   C2667     1.0  0.98444  0.96692  0.96512  1.0000
  C   C2668     1.0  0.71577  0.74589  0.74775  1.0000
  H   H4556     1.0  0.68380  0.95261  0.84142  1.0000
  H   H4557     1.0  0.54176  0.66914  0.90813  1.0000
  C   C2669     1.0  0.58634  0.79657  0.76254  1.0000
  C   C2670     1.0  0.58778  0.75645  0.78594  1.0000
  C   C2671     1.0  0.71749  0.76249  0.76864  1.0000
  N   N192      1.0  0.76348  0.81219  0.81868  1.0000
  C   C2672     1.0  0.75032  0.83493  0.81421  1.0000
  C   C2673     1.0  0.74673  0.79623  0.82465  1.0000
  C   C2674     1.0  0.77789  0.80472  0.80545  1.0000
  C   C2675     1.0  0.77779  0.81428  0.82935  1.0000
  C   C2676     1.0  0.76428  0.85350  0.80651  1.0000
  C   C2677     1.0  0.72800  0.80363  0.83666  1.0000
  C   C2678     1.0  0.79279  0.78165  0.80740  1.0000
  C   C2679     1.0  0.78373  0.79320  0.84029  1.0000
  H   H4558     1.0  0.73831  0.83376  0.80715  1.0000
  H   H4559     1.0  0.73983  0.84164  0.82361  1.0000
  H   H4560     1.0  0.75503  0.77926  0.82873  1.0000
  H   H4561     1.0  0.73814  0.79359  0.81608  1.0000
  H   H4562     1.0  0.76716  0.80455  0.79737  1.0000
  H   H4563     1.0  0.78980  0.81664  0.80033  1.0000
  H   H4564     1.0  0.79397  0.81986  0.82377  1.0000
  H   H4565     1.0  0.76949  0.82762  0.83580  1.0000
  H   H4566     1.0  0.77132  0.85120  0.79537  1.0000
  H   H4567     1.0  0.75296  0.86989  0.80589  1.0000
  H   H4568     1.0  0.77788  0.85479  0.81228  1.0000
  H   H4569     1.0  0.71958  0.78908  0.84216  1.0000
  H   H4570     1.0  0.73453  0.81031  0.84466  1.0000
  H   H4571     1.0  0.71491  0.81659  0.83220  1.0000
  H   H4572     1.0  0.78338  0.76794  0.81306  1.0000
  H   H4573     1.0  0.80719  0.78217  0.81270  1.0000
  H   H4574     1.0  0.80028  0.77721  0.79673  1.0000
  H   H4575     1.0  0.76885  0.78921  0.84825  1.0000
  H   H4576     1.0  0.79621  0.79652  0.84630  1.0000
  H   H4577     1.0  0.79134  0.77819  0.83540  1.0000
  H   H4578     1.0  0.66735  0.97584  0.86848  1.0000
  H   H4579     1.0  0.74023  0.70825  0.76553  1.0000
  H   H4580     1.0  0.73324  0.95870  0.92916  1.0000
  H   H4581     1.0  0.89095  0.68313  0.86911  1.0000
  H   H4582     1.0  0.49328  0.95611  0.89936  1.0000
  H   H4583     1.0  0.97030  0.87651  0.89620  1.0000
  C   C2680     1.0  0.50543  0.87740  0.91814  1.0000
  H   H4584     1.0  0.72980  0.71203  0.74255  1.0000
  S   S762      1.0  0.63650  0.76479  0.72502  1.0000
  C   C2681     1.0  0.62894  0.93897  0.87526  1.0000
  H   H4585     1.0  0.84237  0.67405  0.73587  1.0000
  H   H4586     1.0  0.94029  0.68394  0.88078  1.0000
  H   H4587     1.0  0.57902  0.74353  0.79344  1.0000
  H   H4588     1.0  0.68526  0.94069  0.86431  1.0000
  H   H4589     1.0  0.63166  0.92068  0.87478  1.0000
  H   H4590     1.0  0.62698  0.94031  0.88676  1.0000
  Fe  Fe381     1.0  0.50038  0.69566  0.87278  1.0000
  C   C2682     1.0  0.98981  0.94861  0.95545  1.0000
  H   H4591     1.0  0.67409  0.93815  0.89062  1.0000
  S   S763      1.0  0.89983  0.66070  0.81173  1.0000
  H   H4592     1.0  0.58225  0.65393  0.90459  1.0000
  H   H4593     1.0  0.67101  0.91808  0.86418  1.0000
  Fe  Fe382     1.0  0.86657  0.65969  0.80449  1.0000
  H   H4594     1.0  0.98463  0.81389  0.94730  1.0000
  C   C2683     1.0  0.66563  0.97396  0.90734  1.0000
  H   H4595     1.0  0.71597  0.73067  0.72918  1.0000
  S   S764      1.0  0.60642  0.96813  0.93391  1.0000
  Fe  Fe383     1.0  0.76213  0.96714  0.87691  1.0000
  S   S765      1.0  0.98657  0.69070  0.85581  1.0000
  H   H4596     1.0  0.93456  0.67008  0.86064  1.0000
  H   H4597     1.0  0.98145  0.93388  0.96065  1.0000
  H   H4598     1.0  0.75153  0.77171  0.76239  1.0000
  H   H4599     1.0  0.52290  0.88733  0.86718  1.0000
  C   C2684     1.0  0.76251  0.73072  0.75371  1.0000
  C   C2685     1.0  0.62754  0.97878  0.92074  1.0000
  H   H4600     1.0  0.97402  0.89034  0.90987  1.0000
  H   H4601     1.0  0.87080  0.66434  0.73943  1.0000
  H   H4602     1.0  0.53694  0.65125  0.92473  1.0000
  H   H4603     1.0  0.59258  0.94075  0.87866  1.0000
  S   S766      1.0  0.98267  0.74571  0.84833  1.0000
  Fe  Fe384     1.0  0.98832  0.74568  0.87070  1.0000
  C   C2686     1.0  0.82488  0.97396  0.90042  1.0000
  H   H4604     1.0  0.59449  0.65175  0.93027  1.0000
  H   H4605     1.0  0.98602  0.85811  0.92353  1.0000
  H   H4606     1.0  0.69336  0.97188  0.93354  1.0000
  H   H4607     1.0  0.94397  0.95153  0.96899  1.0000
  S   S767      1.0  0.49357  0.73851  0.83848  1.0000
  C   C2687     1.0  0.49657  0.84503  0.88956  1.0000
  H   H4608     1.0  0.83421  0.97809  0.86047  1.0000
  S   S768      1.0  0.95279  0.98272  0.90923  1.0000
  C   C2688     1.0  0.90085  0.64984  0.86274  1.0000
