data_image0
_chemical_formula_structural       HS2HSHFeSFeSH2FeS2H2FeSCSCHNC5H4C6H4C6H5C5H4CFeH2C2HCHFeC2H3CHSH3C2HNC3H3C2H3CH3NH2CH7CH2CH4CHNHCH5C4H3CH3CHCNH4CH2CH2CH9FeHCHCH3FeHSHCSCS2H2CH2FeSCFeS2FeSFeS3FeS2FeS2Fe2S3FeS2FeSCFeSFeS3FeS2FeS2FeSFeHS2CHC6H2SHC6H4C6H4C6H4C3H2C6H4C6H4CHCH2CNH4C2H3CHCH4NH3CFeNC8H20NC2HCH4CH4NH3CHNC2H6CH2SCH2C3H3CHCHCH2CHCHCH6CHCH4CH2CSH4CH8CH5CSC3H3CHNH2SHCHCH3C2H2CH4SCH13C2H9CNC3H2C2H4SH6CHCHSHCHC2H2C2HC2H5C2H2CH7SCSHSFeSFeSHCFeS2H2FeSCSFeC7H3C6H4CHC5H4C6H4SH2CH2CH2C3H6C2H7NCH2CH2FeCH2CH2C2H3NH3CHCH2CH2SH2CHNC2H6CHC2H7CH4CSH3CHNCH2C2H7CHSCH7CHNHSHCHCH3FeS2FeS2FeSFeS2FeS2FeSHFeSFeS3FeS2FeS2FeSFeHS2H2FeS2FeSHFeSFeS3C6H4C6H4C6H4C6H4C6H4C6H4C4HC3HC5H2CSH3SH4C2H4CH3CHC2H3NCHC3H16CHCFeH4CH2NC7H19C2NC8H21C2HCSH3NCH3C2HCHC2H2CH4C2H3CHCSHCH7SCH3CNH2CH2FeH4S2H2CSH5CSH2CHC2HCFeS2FeS2Fe2S3FeS2FeSHFeSFeS3CFeS2FeS2FeCFeS3FeS2FeS2FeSFeCS2C6H5C4H3C6H3C6H4C6H4C6H4C6H4C6H4NC8H20NC6HCH16CH5CH4C2H3SC2H7NCHS2H2SCH4CHC2H3CH6C2H5CHCNH5CH3FeHC2H2NC2NCH7CH6CHCHCH7CHC4HCH2SH2CSC2H8CH3CH2CH3C4SH2CHC2HNH2NH3CH4CH12SHNHCH5C2HCH5CSHSCFeSHFeSFeSH2FeCSFeHSH3CS2C7H4C6H7CH2C5H4C6H7NH2CHC6HCHNH2CH7FeH4NC3HSHCH4CHCH2CH5CH8FeHSHC3HCHCH5CFeSHFeS2FeSFeS3C2FeS2FeS2Fe2S3FeS2FeS2FeSFeHS2FeSHFeS2FeSFeS3C5H3C6H4C6HCH2C6H4C6H2C7H4C6H4C6H3CH4CH2SHFeH4CH2SH3CHCH3N2H8CHCNC8H24C3H4C2H2CH3NC6H13CH4CH10CH4CHCHNC8H20NC8H22CHCNSHCH2SH3CHC2HCHCH2CHFeSCH2CH3SH4CH4CH3CH2FeS2FeHSFeH3S2HSH2SFeSFeSCHC3HC2H4C6H4C3HC2H5C6H3C6H4CNCH3SH2CH3CH4CH3CHC2H4CHC2H8NH6CHCH2C3HCH2SH3CHCHCHC3H2CH2C3HN2H7CH2SH3CH5C2H3CFeH2CH2N2HC2H2Fe2CSFeCSH2C2S2NSCFeSHFeSFeSHCHC2H2C4H5C6H12C5H4C6H9NH3FeH2CH2C4H5SCHCHCH3C2H3CHNHCHCH3C3H5C2HCHCH5C2SCH3CH9NHS2NCH2C2FeSFe2S2FeSFeS3FeS2FeSHFeSFeS3FeS2FeS2FeSFeHS2FeS2FeS2FeHFeS3C6H3C6H4C6H4C6H4C6H3C6H4C6H4C6H3NC8H20NC7H18CHCNCH3CH3C2HCHSH4S2H2SH2CH2NC8H20NC3H11CHSH2CH3CH6C2HCH5CSH2CHCHCSH3CH4C2H3CH5CH5NH8CHSC2H2CSHSH2SCFeSFeSH3SH2SCFeSFeSCHC7H3C6H4CHCH4CHC4H4C7H4CHCH11SCNHCHCH3CHCH2NH13NHCHCSHC2HCHNFeC2H5C4HNFeH2SH7CH4SHCH3C3SHFeSHFeS2FeSFeS3HFeS2FeSHFeSFeS3FeS2FeS2FeSFeCS2FeS2FeS2FeSFeHS2C6H4C6H4C4H4C6H4C6H4C6H4C6H4C6H4CHCHCHC2H4C2NHSC2H5CHCH2CH7CHNC8H20NC8H25CNC8H19SH5CSHCH2CHNHCHCHSCSHCH4CH8CH5SH2CHCHCNHCH4CH3CHSCHCFeH5CHC3SH2CH6FeS2FeS2FeSFeHS2FeS2FeSNFeSFeS3FeS2FeS2Fe2S3FeS2FeS2FeHFeS3C4H2C6H4C4HC7H4C6H4C6H4C7H3C6H13CH5CHC2HCHCH4CHCH5NC8H21C2H3CH4FeH3CNH6CH4C2HC2H2C3H3CH4SCH7CHCH2CHC2HCH3CH2CNHCSNH2C2HNHCSH4C4HC2H3CH7CH4SH4NHNH4CH5C3H2C2H2CH4C2H3CH5CSCH8CH2C2HC3HCH7CH3C2H3CHCH5NHCHFeS2H2CFeSHSHFeHSFeCSH2SHS2C4HC2H4C6H4C2FeHC2H2CHC6H4NHSC2H8SC3H3CH2CHCNH2NHC3HC2H2CH7FeSHCHNCH2CFeCH3SHCH3CHCH7CH3C2H5CHCH4CHCH4CHCHCH4FeSHFeS2FeSFeS4HFeS2FeS2FeSFeS3FeS2FeS2FeHFeS3FeS2FeS2Fe2S3C4H3C6H4C4H2C6H6C4SH3C6H4C6H4C7H3CH3CH7CH5C3H4CH8C2HCH3CH2CH2CHC2H2NC8H20CH4CNC8H10FeH9CH7C4H7CH2C2HCH3NH2C2HCHCHCH3NHCHCH4SNC2HCH3CNCNH3FeNC2H3CH7C2HCH2CH2SCNHSC2H2CH3CH2CH5C3H2CHCH13FeS2FeSHSH2FeHSFeHSH4S2C8H4C6H4C6H4CHC4H8SH4C2H4C4HNH2C3H5FeHCH4CH2CFeHC2H2NC3HC3SH7CH3CHSH4C2HNHCH2CH7CHCH6CSNH2CH6
_chemical_formula_sum              "H2304 S384 Fe192 C1344 N96"
_cell_length_a       102.901
_cell_length_b       30.6384
_cell_length_c       68.4776
_cell_angle_alpha    82.6857
_cell_angle_beta     83.8846
_cell_angle_gamma    83.2521

_space_group_name_H-M_alt    "P 1"
_space_group_IT_number       1

loop_
  _space_group_symop_operation_xyz
  'x, y, z'

loop_
  _atom_site_type_symbol
  _atom_site_label
  _atom_site_symmetry_multiplicity
  _atom_site_fract_x
  _atom_site_fract_y
  _atom_site_fract_z
  _atom_site_occupancy
  H   H1        1.0  0.19979  0.03888  0.08614  1.0000
  S   S1        1.0  0.99981  0.16447  0.10704  1.0000
  S   S2        1.0  0.21341  0.11120  0.12439  1.0000
  H   H2        1.0  0.05702  0.04601  0.23281  1.0000
  S   S3        1.0  0.22244  0.20634  0.10522  1.0000
  H   H3        1.0  0.01044  0.07610  0.07738  1.0000
  Fe  Fe1       1.0  0.21867  0.17157  0.13632  1.0000
  S   S4        1.0  0.20652  0.20998  0.16031  1.0000
  Fe  Fe2       1.0  0.21913  0.14279  0.09342  1.0000
  S   S5        1.0  0.20627  0.13835  0.06793  1.0000
  H   H4        1.0  0.06665  0.16879  0.19264  1.0000
  H   H5        1.0  0.02150  0.20629  0.17195  1.0000
  Fe  Fe3       1.0  0.02057  0.13176  0.10452  1.0000
  S   S6        1.0  0.01555  0.06879  0.12336  1.0000
  S   S7        1.0  0.03399  0.12135  0.07601  1.0000
  H   H6        1.0  0.07125  0.15169  0.02676  1.0000
  H   H7        1.0  0.00595  0.14683  0.06585  1.0000
  Fe  Fe4       1.0  0.01947  0.10106  0.14991  1.0000
  S   S8        1.0  0.03288  0.06534  0.17325  1.0000
  C   C1        1.0  0.01344  0.03052  0.02334  1.0000
  S   S9        1.0  0.02603  0.16105  0.13067  1.0000
  C   C2        1.0  0.07271  0.25745  0.99918  1.0000
  H   H8        1.0  0.22140  0.21540  0.01637  1.0000
  N   N1        1.0  0.22710  0.97246  0.08197  1.0000
  C   C3        1.0  0.04851  0.06287  0.22600  1.0000
  C   C4        1.0  0.04600  0.05397  0.20705  1.0000
  C   C5        1.0  0.03517  0.07632  0.19760  1.0000
  C   C6        1.0  0.02674  0.10716  0.20758  1.0000
  C   C7        1.0  0.02919  0.11578  0.22658  1.0000
  H   H9        1.0  0.99897  0.00061  0.04465  1.0000
  H   H10       1.0  0.05260  0.03003  0.19951  1.0000
  H   H11       1.0  0.01832  0.12438  0.20063  1.0000
  H   H12       1.0  0.24466  0.25132  0.13418  1.0000
  C   C8        1.0  0.03751  0.19635  0.01286  1.0000
  C   C9        1.0  0.03073  0.21733  0.02868  1.0000
  C   C10       1.0  0.02928  0.19472  0.04797  1.0000
  C   C11       1.0  0.03476  0.15084  0.05177  1.0000
  C   C12       1.0  0.04142  0.12967  0.03591  1.0000
  C   C13       1.0  0.04266  0.15205  0.01655  1.0000
  H   H13       1.0  0.02667  0.25154  0.02601  1.0000
  H   H14       1.0  0.02416  0.21159  0.05996  1.0000
  H   H15       1.0  0.04567  0.09570  0.03863  1.0000
  H   H16       1.0  0.16252  0.21860  0.22542  1.0000
  C   C14       1.0  0.20363  0.20428  0.22884  1.0000
  C   C15       1.0  0.19657  0.23808  0.21729  1.0000
  C   C16       1.0  0.19767  0.23928  0.19645  1.0000
  C   C17       1.0  0.20577  0.20673  0.18672  1.0000
  C   C18       1.0  0.21298  0.17326  0.19823  1.0000
  C   C19       1.0  0.21194  0.17221  0.21907  1.0000
  H   H17       1.0  0.19028  0.26343  0.22441  1.0000
  H   H18       1.0  0.19212  0.26561  0.18778  1.0000
  H   H19       1.0  0.21930  0.14805  0.19108  1.0000
  H   H20       1.0  0.21750  0.14594  0.22775  1.0000
  H   H21       1.0  0.18008  0.14423  0.19076  1.0000
  C   C20       1.0  0.21874  0.07100  0.01954  1.0000
  C   C21       1.0  0.21875  0.09139  0.03701  1.0000
  C   C22       1.0  0.20715  0.11336  0.04533  1.0000
  C   C23       1.0  0.19569  0.11560  0.03543  1.0000
  C   C24       1.0  0.19571  0.09552  0.01787  1.0000
  H   H22       1.0  0.17580  0.10131  0.22153  1.0000
  H   H23       1.0  0.22772  0.08989  0.04409  1.0000
  H   H24       1.0  0.18665  0.13257  0.04155  1.0000
  H   H25       1.0  0.16295  0.15748  0.19778  1.0000
  C   C25       1.0  0.20594  0.01743  0.09672  1.0000
  Fe  Fe5       1.0  0.23488  0.08655  0.12496  1.0000
  H   H26       1.0  0.18673  0.09710  0.01078  1.0000
  H   H27       1.0  0.06195  0.17042  0.22788  1.0000
  C   C26       1.0  0.06070  0.15833  0.15602  1.0000
  C   C27       1.0  0.08113  0.10871  0.99627  1.0000
  H   H28       1.0  0.05839  0.14135  0.14358  1.0000
  C   C28       1.0  0.05184  0.27902  0.15841  1.0000
  H   H29       1.0  0.22331  0.29736  0.19634  1.0000
  Fe  Fe6       1.0  0.00477  0.18896  0.13474  1.0000
  C   C29       1.0  0.21316  0.97784  0.05238  1.0000
  C   C30       1.0  0.02448  0.23587  0.17748  1.0000
  H   H30       1.0  0.22130  0.04293  0.07644  1.0000
  H   H31       1.0  0.02099  0.06381  0.05622  1.0000
  H   H32       1.0  0.23636  0.00786  0.05560  1.0000
  C   C31       1.0  0.05688  0.24527  0.17533  1.0000
  H   H33       1.0  0.02710  0.26021  0.16476  1.0000
  S   S10       1.0  0.99841  0.13019  0.15508  1.0000
  H   H34       1.0  0.22940  0.39576  0.06375  1.0000
  H   H35       1.0  0.23002  0.39381  0.03774  1.0000
  H   H36       1.0  0.08330  0.09502  0.01150  1.0000
  C   C32       1.0  0.23938  0.26226  0.14804  1.0000
  C   C33       1.0  0.17296  0.16032  0.20174  1.0000
  H   H37       1.0  0.09411  0.20886  0.02284  1.0000
  N   N2        1.0  0.04897  0.20690  0.18229  1.0000
  C   C34       1.0  0.21832  0.95012  0.07093  1.0000
  C   C35       1.0  0.05615  0.17715  0.19794  1.0000
  C   C36       1.0  0.22115  0.92681  0.11569  1.0000
  H   H38       1.0  0.20840  0.01087  0.05548  1.0000
  H   H39       1.0  0.23891  0.95495  0.10683  1.0000
  H   H40       1.0  0.09898  0.15186  0.02082  1.0000
  C   C37       1.0  0.23172  0.94066  0.09915  1.0000
  C   C38       1.0  0.17533  0.13737  0.22267  1.0000
  H   H41       1.0  0.06570  0.13241  0.16631  1.0000
  H   H42       1.0  0.04419  0.30406  0.16420  1.0000
  H   H43       1.0  0.22609  0.02543  0.10039  1.0000
  C   C39       1.0  0.01166  0.05549  0.06493  1.0000
  H   H44       1.0  0.20963  0.93923  0.08038  1.0000
  H   H45       1.0  0.14714  0.16590  0.22527  1.0000
  H   H46       1.0  0.17529  0.20775  0.24149  1.0000
  N   N3        1.0  0.08873  0.18650  0.99643  1.0000
  H   H47       1.0  0.22359  0.91880  0.06612  1.0000
  H   H48       1.0  0.24320  0.95207  0.06066  1.0000
  C   C40       1.0  0.15200  0.13907  0.23542  1.0000
  H   H49       1.0  0.00540  0.99694  0.08442  1.0000
  H   H50       1.0  0.20193  0.98530  0.10050  1.0000
  H   H51       1.0  0.01663  0.98356  0.06331  1.0000
  H   H52       1.0  0.06204  0.26863  0.99902  1.0000
  H   H53       1.0  0.20981  0.16473  0.99943  1.0000
  H   H54       1.0  0.02231  0.02024  0.03134  1.0000
  H   H55       1.0  0.04806  0.26390  0.14664  1.0000
  C   C41       1.0  0.22775  0.29589  0.14186  1.0000
  H   H56       1.0  0.18538  0.14324  0.22567  1.0000
  H   H57       1.0  0.23590  0.33404  0.17093  1.0000
  C   C42       1.0  0.05621  0.19531  0.21799  1.0000
  H   H58       1.0  0.11606  0.18194  0.00103  1.0000
  H   H59       1.0  0.17483  0.19555  0.19991  1.0000
  H   H60       1.0  0.08231  0.14359  0.04534  1.0000
  H   H61       1.0  0.06725  0.19193  0.99939  1.0000
  C   C43       1.0  0.07884  0.16728  0.03282  1.0000
  H   H62       1.0  0.06743  0.18328  0.14970  1.0000
  N   N4        1.0  0.00020  0.06636  0.05251  1.0000
  H   H63       1.0  0.03597  0.25137  0.19979  1.0000
  C   C44       1.0  0.09085  0.17869  0.01814  1.0000
  H   H64       1.0  0.23701  0.90991  0.09380  1.0000
  H   H65       1.0  0.21689  0.95526  0.12367  1.0000
  H   H66       1.0  0.23230  0.44449  0.04747  1.0000
  H   H67       1.0  0.02236  0.00423  0.08366  1.0000
  H   H68       1.0  0.23100  0.32705  0.13385  1.0000
  C   C45       1.0  0.01396  0.00713  0.07444  1.0000
  C   C46       1.0  0.00068  0.03438  0.03739  1.0000
  C   C47       1.0  0.22065  0.01556  0.08876  1.0000
  C   C48       1.0  0.04013  0.09401  0.23588  1.0000
  H   H69       1.0  0.05741  0.26504  0.18770  1.0000
  H   H70       1.0  0.22774  0.05366  0.01350  1.0000
  H   H71       1.0  0.03162  0.19650  0.20254  1.0000
  C   C49       1.0  0.16526  0.19981  0.23961  1.0000
  H   H72       1.0  0.06738  0.23401  0.17117  1.0000
  H   H73       1.0  0.24306  0.28863  0.09945  1.0000
  H   H74       1.0  0.01476  0.06182  0.01361  1.0000
  C   C50       1.0  0.04774  0.17957  0.16589  1.0000
  H   H75       1.0  0.07417  0.19704  0.03959  1.0000
  C   C51       1.0  0.03548  0.22277  0.19146  1.0000
  N   N5        1.0  0.16532  0.15061  0.23926  1.0000
  H   H76       1.0  0.20447  0.03363  0.11051  1.0000
  H   H77       1.0  0.22223  0.28125  0.13168  1.0000
  H   H78       1.0  0.05193  0.14497  0.20120  1.0000
  H   H79       1.0  0.22109  0.98159  0.04016  1.0000
  C   C52       1.0  0.99858  0.15035  0.05497  1.0000
  H   H80       1.0  0.20565  0.96050  0.04683  1.0000
  H   H81       1.0  0.04247  0.19891  0.15383  1.0000
  C   C53       1.0  0.20721  0.07253  0.00986  1.0000
  H   H82       1.0  0.04157  0.15234  0.17149  1.0000
  H   H83       1.0  0.06020  0.29627  0.15073  1.0000
  C   C54       1.0  0.23443  0.40797  0.04926  1.0000
  H   H84       1.0  0.04765  0.13517  0.00451  1.0000
  H   H85       1.0  0.06098  0.22628  0.21651  1.0000
  H   H86       1.0  0.07534  0.25844  0.01436  1.0000
  H   H87       1.0  0.22068  0.30307  0.15475  1.0000
  H   H88       1.0  0.21336  0.91057  0.11039  1.0000
  H   H89       1.0  0.20680  0.24117  0.00624  1.0000
  H   H90       1.0  0.04622  0.20020  0.22576  1.0000
  H   H91       1.0  0.23516  0.23210  0.15564  1.0000
  H   H92       1.0  0.22854  0.24843  0.18533  1.0000
  Fe  Fe7       1.0  0.99502  0.10278  0.12699  1.0000
  H   H93       1.0  0.22593  0.90228  0.12684  1.0000
  C   C55       1.0  0.23219  0.27555  0.19161  1.0000
  H   H94       1.0  0.02258  0.13972  0.23410  1.0000
  C   C56       1.0  0.21697  0.22647  0.00221  1.0000
  H   H95       1.0  0.01559  0.25102  0.18581  1.0000
  H   H96       1.0  0.23719  0.26091  0.20490  1.0000
  H   H97       1.0  0.01283  0.00477  0.01352  1.0000
  Fe  Fe8       1.0  0.24329  0.17621  0.10735  1.0000
  H   H98       1.0  0.15301  0.10901  0.22755  1.0000
  S   S11       1.0  0.24032  0.11518  0.09370  1.0000
  H   H99       1.0  0.01067  0.11555  0.03352  1.0000
  C   C57       1.0  0.24148  0.30256  0.17679  1.0000
  S   S12       1.0  0.00102  0.25939  0.14307  1.0000
  C   C58       1.0  0.23906  0.98200  0.06788  1.0000
  S   S13       1.0  0.23947  0.01392  0.13610  1.0000
  S   S14       1.0  0.23977  0.14455  0.13878  1.0000
  H   H100      1.0  0.24438  0.38409  0.01183  1.0000
  H   H101      1.0  0.07064  0.12129  0.99592  1.0000
  C   C59       1.0  0.00084  0.11238  0.04182  1.0000
  H   H102      1.0  0.99971  0.18221  0.04552  1.0000
  H   H103      1.0  0.24326  0.04662  0.18497  1.0000
  Fe  Fe9       1.0  0.19589  0.55376  0.45938  1.0000
  S   S15       1.0  0.19024  0.62255  0.44552  1.0000
  C   C60       1.0  0.17000  0.12695  0.25834  1.0000
  Fe  Fe10      1.0  0.18946  0.51155  0.42171  1.0000
  S   S16       1.0  0.18338  0.57936  0.40610  1.0000
  S   S17       1.0  0.18744  0.44379  0.41051  1.0000
  Fe  Fe11      1.0  0.20122  0.60074  0.41771  1.0000
  S   S18       1.0  0.21811  0.63499  0.40038  1.0000
  Fe  Fe12      1.0  0.17289  0.59492  0.43555  1.0000
  S   S19       1.0  0.15260  0.62913  0.44491  1.0000
  S   S20       1.0  0.20779  0.53233  0.43189  1.0000
  S   S21       1.0  0.17806  0.52656  0.45079  1.0000
  Fe  Fe13      1.0  0.18740  0.18076  0.32718  1.0000
  S   S22       1.0  0.20107  0.22791  0.31102  1.0000
  S   S23       1.0  0.19271  0.12224  0.34979  1.0000
  Fe  Fe14      1.0  0.16349  0.22936  0.30792  1.0000
  S   S24       1.0  0.17572  0.28056  0.29061  1.0000
  S   S25       1.0  0.14141  0.23532  0.30439  1.0000
  Fe  Fe15      1.0  0.19064  0.22264  0.28393  1.0000
  Fe  Fe16      1.0  0.18503  0.28164  0.31933  1.0000
  S   S26       1.0  0.18933  0.34605  0.33131  1.0000
  S   S27       1.0  0.17787  0.17203  0.30015  1.0000
  S   S28       1.0  0.17184  0.23411  0.33664  1.0000
  Fe  Fe17      1.0  0.08362  0.08070  0.30142  1.0000
  S   S29       1.0  0.07498  0.06231  0.33251  1.0000
  S   S30       1.0  0.10603  0.08079  0.29720  1.0000
  Fe  Fe18      1.0  0.05652  0.08659  0.28453  1.0000
  S   S31       1.0  0.04625  0.06935  0.31498  1.0000
  C   C61       1.0  0.03759  0.94547  0.27262  1.0000
  Fe  Fe19      1.0  0.05876  0.11610  0.32507  1.0000
  S   S32       1.0  0.05399  0.17037  0.34524  1.0000
  Fe  Fe20      1.0  0.06334  0.01677  0.32002  1.0000
  S   S33       1.0  0.06199  0.94272  0.33060  1.0000
  S   S34       1.0  0.06805  0.13681  0.29460  1.0000
  S   S35       1.0  0.07292  0.03154  0.28890  1.0000
  Fe  Fe21      1.0  0.07749  0.66463  0.42275  1.0000
  S   S36       1.0  0.07488  0.71710  0.44328  1.0000
  S   S37       1.0  0.09762  0.64011  0.40804  1.0000
  Fe  Fe22      1.0  0.04757  0.66028  0.42388  1.0000
  S   S38       1.0  0.04322  0.71424  0.44399  1.0000
  S   S39       1.0  0.02890  0.63274  0.41751  1.0000
  Fe  Fe23      1.0  0.05883  0.74925  0.42431  1.0000
  S   S40       1.0  0.05742  0.82460  0.41517  1.0000
  Fe  Fe24      1.0  0.05944  0.67762  0.46096  1.0000
  H   H104      1.0  0.00970  0.52707  0.45893  1.0000
  S   S41       1.0  0.06199  0.69809  0.40307  1.0000
  S   S42       1.0  0.06329  0.62242  0.44149  1.0000
  C   C62       1.0  0.10316  0.88485  0.38724  1.0000
  H   H105      1.0  0.05486  0.51974  0.48866  1.0000
  C   C63       1.0  0.02667  0.58110  0.40982  1.0000
  C   C64       1.0  0.01380  0.57049  0.40910  1.0000
  C   C65       1.0  0.01149  0.53068  0.40239  1.0000
  C   C66       1.0  0.02207  0.50128  0.39599  1.0000
  C   C67       1.0  0.03495  0.51147  0.39709  1.0000
  C   C68       1.0  0.03725  0.55108  0.40401  1.0000
  H   H106      1.0  0.00554  0.59335  0.41370  1.0000
  H   H107      1.0  0.04264  0.98294  0.30441  1.0000
  S   S43       1.0  0.05883  0.65214  0.49406  1.0000
  H   H108      1.0  0.04721  0.55871  0.40453  1.0000
  C   C69       1.0  0.06087  0.91070  0.35436  1.0000
  C   C70       1.0  0.05975  0.92980  0.37206  1.0000
  C   C71       1.0  0.05859  0.90299  0.39044  1.0000
  C   C72       1.0  0.05860  0.85674  0.39147  1.0000
  C   C73       1.0  0.05987  0.83759  0.37377  1.0000
  C   C74       1.0  0.06096  0.86440  0.35539  1.0000
  H   H109      1.0  0.05964  0.96526  0.37160  1.0000
  H   H110      1.0  0.05765  0.91826  0.40400  1.0000
  H   H111      1.0  0.05986  0.80217  0.37425  1.0000
  H   H112      1.0  0.06182  0.84914  0.34185  1.0000
  C   C75       1.0  0.03797  0.19746  0.34994  1.0000
  C   C76       1.0  0.03647  0.23820  0.35778  1.0000
  C   C77       1.0  0.02388  0.25987  0.36249  1.0000
  C   C78       1.0  0.01266  0.24043  0.35981  1.0000
  C   C79       1.0  0.01415  0.19967  0.35200  1.0000
  C   C80       1.0  0.02675  0.17850  0.34685  1.0000
  H   H113      1.0  0.04509  0.25304  0.36028  1.0000
  H   H114      1.0  0.02287  0.29112  0.36858  1.0000
  H   H115      1.0  0.00553  0.18434  0.34995  1.0000
  H   H116      1.0  0.02777  0.14704  0.34095  1.0000
  C   C81       1.0  0.13200  0.19180  0.30157  1.0000
  C   C82       1.0  0.11916  0.20241  0.29582  1.0000
  C   C83       1.0  0.11101  0.16897  0.29472  1.0000
  C   C84       1.0  0.11571  0.12438  0.29896  1.0000
  C   C85       1.0  0.12867  0.11377  0.30416  1.0000
  C   C86       1.0  0.13674  0.14721  0.30563  1.0000
  H   H117      1.0  0.11541  0.23679  0.29256  1.0000
  H   H118      1.0  0.10113  0.17766  0.29040  1.0000
  H   H119      1.0  0.13246  0.07939  0.30731  1.0000
  H   H120      1.0  0.14659  0.13848  0.31007  1.0000
  C   C87       1.0  0.22370  0.03527  0.36612  1.0000
  C   C88       1.0  0.21092  0.05651  0.36412  1.0000
  C   C89       1.0  0.20878  0.09459  0.35059  1.0000
  H   H121      1.0  0.22524  0.00618  0.37670  1.0000
  H   H122      1.0  0.20267  0.04351  0.37320  1.0000
  C   C90       1.0  0.18837  0.41702  0.38824  1.0000
  C   C91       1.0  0.18508  0.37314  0.38957  1.0000
  C   C92       1.0  0.18513  0.35119  0.37249  1.0000
  C   C93       1.0  0.18872  0.37235  0.35362  1.0000
  C   C94       1.0  0.19202  0.41617  0.35230  1.0000
  C   C95       1.0  0.19177  0.43837  0.36935  1.0000
  H   H123      1.0  0.18235  0.35605  0.40398  1.0000
  H   H124      1.0  0.18237  0.31791  0.37390  1.0000
  H   H125      1.0  0.19481  0.43319  0.33790  1.0000
  H   H126      1.0  0.19432  0.47198  0.36783  1.0000
  C   C96       1.0  0.13745  0.63222  0.43426  1.0000
  C   C97       1.0  0.12572  0.64588  0.44540  1.0000
  C   C98       1.0  0.11345  0.64865  0.43761  1.0000
  C   C99       1.0  0.11280  0.63813  0.41848  1.0000
  C   C100      1.0  0.12457  0.62573  0.40714  1.0000
  C   C101      1.0  0.13683  0.62253  0.41499  1.0000
  H   H127      1.0  0.12608  0.65393  0.46025  1.0000
  H   H128      1.0  0.10449  0.65850  0.44649  1.0000
  H   H129      1.0  0.12417  0.61876  0.39214  1.0000
  H   H130      1.0  0.14580  0.61307  0.40611  1.0000
  C   C102      1.0  0.22116  0.69025  0.40150  1.0000
  H   H131      1.0  0.02786  0.52751  0.32404  1.0000
  C   C103      1.0  0.03441  0.96182  0.30684  1.0000
  H   H132      1.0  0.12143  0.24689  0.34270  1.0000
  H   H133      1.0  0.16514  0.06116  0.25287  1.0000
  C   C104      1.0  0.10326  0.80361  0.41784  1.0000
  N   N6        1.0  0.21407  0.21855  0.38046  1.0000
  H   H134      1.0  0.03166  0.97301  0.33774  1.0000
  H   H135      1.0  0.08445  0.12812  0.35279  1.0000
  H   H136      1.0  0.14032  0.15654  0.26315  1.0000
  H   H137      1.0  0.99972  0.65817  0.33243  1.0000
  C   C105      1.0  0.02284  0.01167  0.28190  1.0000
  C   C106      1.0  0.09202  0.20556  0.39234  1.0000
  H   H138      1.0  0.01791  0.48018  0.30988  1.0000
  H   H139      1.0  0.04018  0.54067  0.35103  1.0000
  H   H140      1.0  0.00439  0.56804  0.48491  1.0000
  C   C107      1.0  0.22969  0.72739  0.34534  1.0000
  H   H141      1.0  0.12170  0.81261  0.38794  1.0000
  C   C108      1.0  0.01866  0.53195  0.46578  1.0000
  H   H142      1.0  0.24136  0.67850  0.38985  1.0000
  H   H143      1.0  0.10578  0.26188  0.35415  1.0000
  H   H144      1.0  0.01322  0.63217  0.34587  1.0000
  H   H145      1.0  0.21801  0.14039  0.32848  1.0000
  N   N7        1.0  0.10139  0.80115  0.39645  1.0000
  H   H146      1.0  0.22540  0.31789  0.38861  1.0000
  H   H147      1.0  0.23863  0.68388  0.48991  1.0000
  H   H148      1.0  0.09359  0.82118  0.44604  1.0000
  C   C109      1.0  0.08598  0.21316  0.35148  1.0000
  Fe  Fe25      1.0  0.00096  0.42499  0.38030  1.0000
  N   N8        1.0  0.14363  0.48011  0.39178  1.0000
  C   C110      1.0  0.13362  0.51960  0.39448  1.0000
  C   C111      1.0  0.15700  0.49570  0.39172  1.0000
  C   C112      1.0  0.14134  0.44624  0.40948  1.0000
  C   C113      1.0  0.14176  0.46220  0.37280  1.0000
  C   C114      1.0  0.11903  0.51081  0.39668  1.0000
  C   C115      1.0  0.16035  0.53368  0.37557  1.0000
  C   C116      1.0  0.15098  0.40384  0.41082  1.0000
  C   C117      1.0  0.15376  0.43488  0.36292  1.0000
  H   H149      1.0  0.13528  0.53497  0.40779  1.0000
  H   H150      1.0  0.13464  0.54575  0.38172  1.0000
  H   H151      1.0  0.16492  0.46870  0.38993  1.0000
  H   H152      1.0  0.15821  0.50666  0.40629  1.0000
  H   H153      1.0  0.14150  0.46140  0.42343  1.0000
  H   H154      1.0  0.13146  0.43455  0.41004  1.0000
  H   H155      1.0  0.13343  0.44140  0.37512  1.0000
  H   H156      1.0  0.13895  0.49006  0.36140  1.0000
  H   H157      1.0  0.11654  0.49327  0.38462  1.0000
  H   H158      1.0  0.11622  0.49250  0.41128  1.0000
  H   H159      1.0  0.11278  0.54306  0.39606  1.0000
  H   H160      1.0  0.15782  0.52821  0.36082  1.0000
  H   H161      1.0  0.15542  0.56599  0.37952  1.0000
  H   H162      1.0  0.17111  0.53611  0.37437  1.0000
  H   H163      1.0  0.14845  0.38329  0.42498  1.0000
  H   H164      1.0  0.16126  0.41072  0.41114  1.0000
  H   H165      1.0  0.15010  0.38334  0.39891  1.0000
  H   H166      1.0  0.15024  0.40821  0.35591  1.0000
  H   H167      1.0  0.16103  0.41836  0.37291  1.0000
  H   H168      1.0  0.15885  0.45553  0.35060  1.0000
  N   N9        1.0  0.09673  0.17778  0.35762  1.0000
  C   C118      1.0  0.09469  0.13681  0.34866  1.0000
  C   C119      1.0  0.09548  0.16660  0.37984  1.0000
  H   H169      1.0  0.00151  0.21550  0.42618  1.0000
  C   C120      1.0  0.10413  0.09503  0.35419  1.0000
  H   H170      1.0  0.05360  0.96676  0.25125  1.0000
  H   H171      1.0  0.18806  0.19895  0.37328  1.0000
  H   H172      1.0  0.09581  0.14247  0.33223  1.0000
  H   H173      1.0  0.10470  0.14792  0.38491  1.0000
  C   C121      1.0  0.21771  0.29872  0.38476  1.0000
  H   H174      1.0  0.23278  0.24529  0.38107  1.0000
  H   H175      1.0  0.11447  0.09949  0.34858  1.0000
  H   H176      1.0  0.10338  0.08426  0.37031  1.0000
  H   H177      1.0  0.10148  0.06737  0.34689  1.0000
  N   N10       1.0  0.02362  0.58082  0.49210  1.0000
  H   H178      1.0  0.21590  0.31046  0.36919  1.0000
  H   H179      1.0  0.01552  0.59197  0.30944  1.0000
  H   H180      1.0  0.15817  0.25564  0.25577  1.0000
  C   C122      1.0  0.22373  0.23929  0.34398  1.0000
  H   H181      1.0  0.22633  0.69660  0.35375  1.0000
  N   N11       1.0  0.23486  0.65830  0.46321  1.0000
  C   C123      1.0  0.09220  0.76671  0.39559  1.0000
  C   C124      1.0  0.09046  0.75541  0.37473  1.0000
  H   H182      1.0  0.08526  0.85308  0.39340  1.0000
  H   H183      1.0  0.09442  0.84306  0.37088  1.0000
  H   H184      1.0  0.09531  0.73532  0.40474  1.0000
  H   H185      1.0  0.08410  0.72812  0.37621  1.0000
  H   H186      1.0  0.09982  0.74335  0.36666  1.0000
  H   H187      1.0  0.08546  0.78374  0.36568  1.0000
  C   C125      1.0  0.09125  0.82370  0.43044  1.0000
  H   H188      1.0  0.08256  0.80568  0.43047  1.0000
  H   H189      1.0  0.01833  0.67226  0.45628  1.0000
  S   S44       1.0  0.04278  0.10772  0.25962  1.0000
  C   C126      1.0  0.21169  0.23096  0.35899  1.0000
  H   H190      1.0  0.03300  0.94233  0.25892  1.0000
  H   H191      1.0  0.16721  0.59565  0.48095  1.0000
  C   C127      1.0  0.01847  0.02165  0.26080  1.0000
  C   C128      1.0  0.02225  0.53281  0.33847  1.0000
  C   C129      1.0  0.21139  0.72177  0.40839  1.0000
  H   H192      1.0  0.10597  0.76997  0.42550  1.0000
  H   H193      1.0  0.08219  0.77737  0.40220  1.0000
  H   H194      1.0  0.16290  0.13382  0.27123  1.0000
  C   C130      1.0  0.21953  0.11124  0.33899  1.0000
  H   H195      1.0  0.20167  0.71247  0.41344  1.0000
  C   C131      1.0  0.09545  0.84482  0.38676  1.0000
  H   H196      1.0  0.23040  0.83971  0.35030  1.0000
  C   C132      1.0  0.08575  0.22690  0.32903  1.0000
  H   H197      1.0  0.08762  0.14421  0.38455  1.0000
  H   H198      1.0  0.12306  0.73725  0.40778  1.0000
  C   C133      1.0  0.21412  0.76584  0.40822  1.0000
  H   H199      1.0  0.20817  0.69323  0.45913  1.0000
  C   C134      1.0  0.11464  0.78924  0.38568  1.0000
  H   H200      1.0  0.20644  0.79026  0.41324  1.0000
  C   C135      1.0  0.17279  0.07616  0.25919  1.0000
  H   H201      1.0  0.19593  0.25670  0.39026  1.0000
  H   H202      1.0  0.08859  0.85925  0.42559  1.0000
  H   H203      1.0  0.11405  0.79289  0.36941  1.0000
  H   H204      1.0  0.07619  0.20221  0.35717  1.0000
  H   H205      1.0  0.22345  0.23956  0.40398  1.0000
  H   H206      1.0  0.10482  0.89014  0.40244  1.0000
  C   C136      1.0  0.22665  0.77871  0.40141  1.0000
  H   H207      1.0  0.09732  0.91519  0.38087  1.0000
  C   C137      1.0  0.21999  0.17104  0.38412  1.0000
  H   H208      1.0  0.05201  0.57423  0.47650  1.0000
  H   H209      1.0  0.02400  0.55395  0.45446  1.0000
  H   H210      1.0  0.11268  0.88192  0.37800  1.0000
  H   H211      1.0  0.11565  0.71610  0.38861  1.0000
  C   C138      1.0  0.12132  0.74242  0.39191  1.0000
  H   H212      1.0  0.20436  0.26070  0.35707  1.0000
  H   H213      1.0  0.02202  0.88645  0.31573  1.0000
  C   C139      1.0  0.20094  0.22256  0.39265  1.0000
  S   S45       1.0  0.00112  0.39323  0.35224  1.0000
  H   H214      1.0  0.13109  0.73791  0.38338  1.0000
  H   H215      1.0  0.11161  0.82279  0.41911  1.0000
  H   H216      1.0  0.19440  0.15632  0.39178  1.0000
  H   H217      1.0  0.23242  0.24759  0.35025  1.0000
  C   C140      1.0  0.23373  0.70295  0.39494  1.0000
  H   H218      1.0  0.15827  0.52949  0.48955  1.0000
  H   H219      1.0  0.03309  0.59070  0.33838  1.0000
  H   H220      1.0  0.17319  0.06157  0.27486  1.0000
  H   H221      1.0  0.24062  0.10396  0.33250  1.0000
  H   H222      1.0  0.23513  0.72979  0.45863  1.0000
  H   H223      1.0  0.22672  0.21016  0.33577  1.0000
  H   H224      1.0  0.09299  0.19314  0.40815  1.0000
  H   H225      1.0  0.03919  0.92787  0.31104  1.0000
  C   C141      1.0  0.11030  0.19016  0.35023  1.0000
  H   H226      1.0  0.04136  0.91084  0.27773  1.0000
  H   H227      1.0  0.22598  0.75432  0.35454  1.0000
  H   H228      1.0  0.11231  0.18845  0.33414  1.0000
  H   H229      1.0  0.14473  0.62194  0.48688  1.0000
  H   H230      1.0  0.11828  0.23190  0.36891  1.0000
  C   C142      1.0  0.00781  0.59454  0.32207  1.0000
  S   S46       1.0  0.22940  0.83475  0.40126  1.0000
  C   C143      1.0  0.02560  0.97658  0.32500  1.0000
  C   C144      1.0  0.23233  0.09047  0.34127  1.0000
  C   C145      1.0  0.00928  0.63718  0.33129  1.0000
  H   H231      1.0  0.00954  0.87306  0.30211  1.0000
  H   H232      1.0  0.04320  0.48887  0.39226  1.0000
  H   H233      1.0  0.22989  0.70720  0.43859  1.0000
  C   C146      1.0  0.23447  0.05245  0.35484  1.0000
  H   H234      1.0  0.03027  0.03443  0.28329  1.0000
  N   N12       1.0  0.00826  0.55172  0.33571  1.0000
  H   H235      1.0  0.00844  0.62767  0.46153  1.0000
  H   H236      1.0  0.01211  0.93589  0.27697  1.0000
  S   S47       1.0  0.01982  0.45300  0.38537  1.0000
  H   H237      1.0  0.23738  0.17089  0.36199  1.0000
  C   C147      1.0  0.19088  0.19191  0.38863  1.0000
  H   H238      1.0  0.20689  0.20462  0.35361  1.0000
  C   C148      1.0  0.21471  0.71780  0.46169  1.0000
  H   H239      1.0  0.22103  0.26807  0.33302  1.0000
  H   H240      1.0  0.11794  0.16512  0.35650  1.0000
  H   H241      1.0  0.07829  0.25587  0.32657  1.0000
  C   C149      1.0  0.22927  0.70399  0.45500  1.0000
  C   C150      1.0  0.01616  0.93730  0.29128  1.0000
  H   H242      1.0  0.14500  0.09830  0.26276  1.0000
  H   H243      1.0  0.21862  0.15863  0.40015  1.0000
  C   C151      1.0  0.01480  0.64728  0.46826  1.0000
  H   H244      1.0  0.08265  0.20047  0.32145  1.0000
  H   H245      1.0  0.15714  0.20424  0.27065  1.0000
  H   H246      1.0  0.20227  0.21621  0.40876  1.0000
  H   H247      1.0  0.00154  0.52306  0.40192  1.0000
  S   S48       1.0  0.20223  0.19949  0.25538  1.0000
  C   C152      1.0  0.23476  0.16079  0.37784  1.0000
  H   H248      1.0  0.00141  0.52372  0.36501  1.0000
  H   H249      1.0  0.23735  0.12433  0.38020  1.0000
  H   H250      1.0  0.20877  0.30719  0.39466  1.0000
  H   H251      1.0  0.01742  0.95584  0.32945  1.0000
  H   H252      1.0  0.04826  0.00587  0.26798  1.0000
  H   H253      1.0  0.02169  0.01194  0.32258  1.0000
  H   H254      1.0  0.21331  0.72432  0.47738  1.0000
  H   H255      1.0  0.99828  0.60070  0.31529  1.0000
  H   H256      1.0  0.02609  0.86906  0.29128  1.0000
  H   H257      1.0  0.02462  0.49939  0.46816  1.0000
  H   H258      1.0  0.21778  0.62175  0.46657  1.0000
  H   H259      1.0  0.22405  0.63564  0.44170  1.0000
  H   H260      1.0  0.05793  0.95575  0.27649  1.0000
  C   C153      1.0  0.03068  0.56063  0.34827  1.0000
  C   C154      1.0  0.11396  0.23514  0.35455  1.0000
  H   H261      1.0  0.18174  0.19800  0.39852  1.0000
  H   H262      1.0  0.08625  0.24396  0.35822  1.0000
  H   H263      1.0  0.01138  0.53127  0.29595  1.0000
  H   H264      1.0  0.03290  0.64060  0.48217  1.0000
  H   H265      1.0  0.17929  0.13935  0.26133  1.0000
  H   H266      1.0  0.21484  0.14918  0.37648  1.0000
  H   H267      1.0  0.21146  0.74941  0.45282  1.0000
  H   H268      1.0  0.09857  0.23201  0.38826  1.0000
  H   H269      1.0  0.14553  0.22348  0.25229  1.0000
  C   C155      1.0  0.22252  0.24885  0.38786  1.0000
  N   N13       1.0  0.02776  0.96409  0.28816  1.0000
  C   C156      1.0  0.01882  0.88888  0.30063  1.0000
  C   C157      1.0  0.02678  0.61834  0.47641  1.0000
  C   C158      1.0  0.15591  0.22111  0.25561  1.0000
  H   H270      1.0  0.01608  0.65731  0.32122  1.0000
  H   H271      1.0  0.08163  0.21973  0.39136  1.0000
  C   C159      1.0  0.22710  0.62447  0.45682  1.0000
  C   C160      1.0  0.23651  0.74690  0.39501  1.0000
  H   H272      1.0  0.02242  0.49956  0.34723  1.0000
  H   H273      1.0  0.03293  0.60674  0.46340  1.0000
  H   H274      1.0  0.09533  0.23687  0.32202  1.0000
  H   H275      1.0  0.23744  0.57144  0.44038  1.0000
  S   S49       1.0  0.99666  0.26474  0.36698  1.0000
  H   H276      1.0  0.02623  0.56949  0.36285  1.0000
  H   H277      1.0  0.00793  0.95341  0.30066  1.0000
  H   H278      1.0  0.00899  0.66597  0.47965  1.0000
  H   H279      1.0  0.01426  0.02297  0.29202  1.0000
  H   H280      1.0  0.15214  0.68936  0.47946  1.0000
  H   H281      1.0  0.16890  0.66706  0.47295  1.0000
  C   C161      1.0  0.16229  0.68467  0.48393  1.0000
  H   H282      1.0  0.24100  0.17515  0.38708  1.0000
  C   C162      1.0  0.04716  0.54411  0.48217  1.0000
  H   H283      1.0  0.22324  0.66242  0.49134  1.0000
  S   S50       1.0  0.20374  0.54048  0.49031  1.0000
  H   H284      1.0  0.00509  0.57824  0.36423  1.0000
  C   C163      1.0  0.23407  0.57702  0.45591  1.0000
  H   H285      1.0  0.22680  0.55293  0.46090  1.0000
  C   C164      1.0  0.00188  0.51840  0.32644  1.0000
  C   C165      1.0  0.00896  0.50314  0.30706  1.0000
  H   H286      1.0  0.04384  0.53000  0.46975  1.0000
  H   H287      1.0  0.22505  0.73213  0.33127  1.0000
  C   C166      1.0  0.01457  0.55127  0.48556  1.0000
  C   C167      1.0  0.05001  0.96992  0.26695  1.0000
  H   H288      1.0  0.16558  0.71816  0.48316  1.0000
  C   C168      1.0  0.00078  0.55628  0.35565  1.0000
  C   C169      1.0  0.23367  0.65674  0.48543  1.0000
  H   H289      1.0  0.00654  0.26479  0.43281  1.0000
  H   H290      1.0  0.23337  0.58561  0.49537  1.0000
  H   H291      1.0  0.00071  0.48797  0.33700  1.0000
  H   H292      1.0  0.00233  0.48408  0.30046  1.0000
  H   H293      1.0  0.22785  0.81277  0.32981  1.0000
  C   C170      1.0  0.14203  0.12967  0.25360  1.0000
  C   C171      1.0  0.23514  0.82942  0.33598  1.0000
  H   H294      1.0  0.99781  0.26851  0.41157  1.0000
  H   H295      1.0  0.24224  0.56749  0.46532  1.0000
  C   C172      1.0  0.99846  0.25131  0.42670  1.0000
  H   H296      1.0  0.18254  0.06676  0.25134  1.0000
  H   H297      1.0  0.13237  0.12592  0.24848  1.0000
  H   H298      1.0  0.23683  0.77061  0.30857  1.0000
  H   H299      1.0  0.23683  0.86061  0.32631  1.0000
  H   H300      1.0  0.01462  0.05714  0.25826  1.0000
  H   H301      1.0  0.01048  0.00201  0.25856  1.0000
  H   H302      1.0  0.02681  0.01636  0.24940  1.0000
  S   S51       1.0  0.00447  0.48795  0.61310  1.0000
  C   C173      1.0  0.11444  0.56207  0.72703  1.0000
  S   S52       1.0  0.22654  0.60798  0.61654  1.0000
  H   H303      1.0  0.99843  0.41630  0.59329  1.0000
  S   S53       1.0  0.21536  0.71095  0.60665  1.0000
  Fe  Fe26      1.0  0.22034  0.66609  0.63423  1.0000
  S   S54       1.0  0.20729  0.65934  0.66383  1.0000
  Fe  Fe27      1.0  0.22338  0.65514  0.58852  1.0000
  S   S55       1.0  0.21285  0.65407  0.56007  1.0000
  H   H304      1.0  0.04071  0.57218  0.50873  1.0000
  C   C174      1.0  0.19720  0.81935  0.68632  1.0000
  Fe  Fe28      1.0  0.01548  0.64420  0.60029  1.0000
  S   S56       1.0  0.02675  0.58356  0.61502  1.0000
  S   S57       1.0  0.01898  0.68699  0.57044  1.0000
  H   H305      1.0  0.07538  0.64530  0.73372  1.0000
  H   H306      1.0  0.00717  0.59576  0.71884  1.0000
  Fe  Fe29      1.0  0.02146  0.61281  0.64413  1.0000
  S   S58       1.0  0.03451  0.62741  0.66749  1.0000
  C   C175      1.0  0.20226  0.61852  0.50851  1.0000
  S   S59       1.0  0.01178  0.67599  0.62866  1.0000
  Fe  Fe30      1.0  0.23611  0.72862  0.60457  1.0000
  C   C176      1.0  0.04740  0.66224  0.51489  1.0000
  C   C177      1.0  0.04837  0.63341  0.53254  1.0000
  C   C178      1.0  0.03960  0.63982  0.54950  1.0000
  C   C179      1.0  0.02988  0.67581  0.54918  1.0000
  C   C180      1.0  0.02887  0.70463  0.53150  1.0000
  C   C181      1.0  0.03751  0.69775  0.51442  1.0000
  C   C182      1.0  0.21363  0.86568  0.63556  1.0000
  H   H307      1.0  0.04055  0.61745  0.56296  1.0000
  H   H308      1.0  0.02144  0.73268  0.53106  1.0000
  H   H309      1.0  0.00853  0.54281  0.52715  1.0000
  C   C183      1.0  0.04440  0.56758  0.73062  1.0000
  C   C184      1.0  0.04775  0.60954  0.72256  1.0000
  C   C185      1.0  0.04468  0.62703  0.70326  1.0000
  C   C186      1.0  0.03802  0.60332  0.69181  1.0000
  C   C187      1.0  0.03445  0.56171  0.70001  1.0000
  C   C188      1.0  0.03771  0.54393  0.71919  1.0000
  H   H310      1.0  0.23984  0.55408  0.72307  1.0000
  H   H311      1.0  0.04747  0.65931  0.69716  1.0000
  H   H312      1.0  0.02935  0.54292  0.69148  1.0000
  H   H313      1.0  0.03503  0.51146  0.72521  1.0000
  C   C189      1.0  0.20262  0.87903  0.62174  1.0000
  H   H314      1.0  0.09133  0.64158  0.74192  1.0000
  C   C190      1.0  0.21257  0.55234  0.52596  1.0000
  C   C191      1.0  0.21483  0.57641  0.54141  1.0000
  C   C192      1.0  0.21068  0.62176  0.54071  1.0000
  C   C193      1.0  0.20435  0.64247  0.52411  1.0000
  C   C194      1.0  0.16516  0.53588  0.50005  1.0000
  H   H315      1.0  0.21576  0.51727  0.52688  1.0000
  H   H316      1.0  0.21966  0.55972  0.55399  1.0000
  H   H317      1.0  0.20109  0.67748  0.52329  1.0000
  H   H318      1.0  0.01460  0.80932  0.60326  1.0000
  C   C195      1.0  0.20473  0.71738  0.72391  1.0000
  C   C196      1.0  0.19551  0.69014  0.72006  1.0000
  C   C197      1.0  0.19653  0.67254  0.70173  1.0000
  C   C198      1.0  0.20683  0.68140  0.68698  1.0000
  C   C199      1.0  0.21633  0.70731  0.69110  1.0000
  C   C200      1.0  0.21519  0.72547  0.70930  1.0000
  H   H319      1.0  0.00678  0.61794  0.50663  1.0000
  H   H320      1.0  0.18915  0.65233  0.69890  1.0000
  H   H321      1.0  0.22453  0.71355  0.68025  1.0000
  H   H322      1.0  0.22246  0.74614  0.71211  1.0000
  S   S60       1.0  0.99605  0.61578  0.60512  1.0000
  H   H323      1.0  0.11799  0.52956  0.73479  1.0000
  H   H324      1.0  0.22975  0.56006  0.65697  1.0000
  C   C201      1.0  0.08543  0.62772  0.73196  1.0000
  H   H325      1.0  0.22238  0.85491  0.62566  1.0000
  H   H326      1.0  0.17360  0.66006  0.50821  1.0000
  C   C202      1.0  0.08126  0.54285  0.70872  1.0000
  H   H327      1.0  0.21597  0.89632  0.64107  1.0000
  H   H328      1.0  0.18737  0.68356  0.73101  1.0000
  C   C203      1.0  0.00922  0.79088  0.59433  1.0000
  C   C204      1.0  0.08487  0.57750  0.73835  1.0000
  C   C205      1.0  0.01446  0.56963  0.52905  1.0000
  H   H329      1.0  0.01835  0.63049  0.72640  1.0000
  H   H330      1.0  0.13630  0.68314  0.50831  1.0000
  H   H331      1.0  0.21835  0.52605  0.67072  1.0000
  H   H332      1.0  0.10784  0.53308  0.70317  1.0000
  H   H333      1.0  0.08476  0.51467  0.70001  1.0000
  H   H334      1.0  0.09918  0.47726  0.72516  1.0000
  C   C206      1.0  0.13432  0.64827  0.51264  1.0000
  C   C207      1.0  0.16315  0.66122  0.50515  1.0000
  H   H335      1.0  0.16119  0.52439  0.51521  1.0000
  H   H336      1.0  0.02386  0.55535  0.53500  1.0000
  H   H337      1.0  0.08726  0.59230  0.68381  1.0000
  H   H338      1.0  0.01324  0.72375  0.71119  1.0000
  H   H339      1.0  0.07379  0.61277  0.70094  1.0000
  H   H340      1.0  0.03396  0.52217  0.50698  1.0000
  H   H341      1.0  0.23534  0.78107  0.64336  1.0000
  N   N14       1.0  0.21106  0.83052  0.65264  1.0000
  C   C208      1.0  0.24346  0.58089  0.71202  1.0000
  H   H342      1.0  0.19034  0.85281  0.65923  1.0000
  H   H343      1.0  0.24003  0.83654  0.64221  1.0000
  C   C209      1.0  0.20886  0.78772  0.64527  1.0000
  H   H344      1.0  0.10279  0.58949  0.70349  1.0000
  H   H345      1.0  0.18727  0.82973  0.69335  1.0000
  Fe  Fe31      1.0  0.00691  0.55655  0.62096  1.0000
  C   C210      1.0  0.19969  0.84802  0.66630  1.0000
  H   H346      1.0  0.15358  0.62691  0.53973  1.0000
  H   H347      1.0  0.18948  0.80772  0.63318  1.0000
  C   C211      1.0  0.20630  0.57306  0.50935  1.0000
  H   H348      1.0  0.02171  0.74647  0.67738  1.0000
  H   H349      1.0  0.21477  0.78393  0.63087  1.0000
  C   C212      1.0  0.22310  0.82278  0.66398  1.0000
  C   C213      1.0  0.23620  0.80841  0.65212  1.0000
  H   H350      1.0  0.05600  0.60591  0.53315  1.0000
  H   H351      1.0  0.17117  0.57924  0.55491  1.0000
  H   H352      1.0  0.19764  0.78371  0.68470  1.0000
  N   N15       1.0  0.99779  0.68590  0.70535  1.0000
  H   H353      1.0  0.01148  0.71431  0.66709  1.0000
  H   H354      1.0  0.01888  0.67739  0.69861  1.0000
  H   H355      1.0  0.05276  0.62843  0.73115  1.0000
  C   C214      1.0  0.00819  0.62105  0.72863  1.0000
  H   H356      1.0  0.19303  0.88941  0.62964  1.0000
  C   C215      1.0  0.01076  0.70452  0.69962  1.0000
  H   H357      1.0  0.22723  0.52970  0.70197  1.0000
  H   H358      1.0  0.07146  0.53573  0.71622  1.0000
  C   C216      1.0  0.10375  0.55802  0.71334  1.0000
  H   H359      1.0  0.12308  0.57498  0.71797  1.0000
  H   H360      1.0  0.23809  0.32825  0.65275  1.0000
  S   S61       1.0  0.00260  0.58101  0.65099  1.0000
  H   H361      1.0  0.20176  0.85215  0.61266  1.0000
  H   H362      1.0  0.20434  0.82387  0.69679  1.0000
  C   C217      1.0  0.09336  0.50043  0.73489  1.0000
  H   H363      1.0  0.22193  0.79640  0.67657  1.0000
  N   N16       1.0  0.09075  0.54601  0.72373  1.0000
  C   C218      1.0  0.07845  0.58388  0.69368  1.0000
  C   C219      1.0  0.17238  0.58871  0.53866  1.0000
  H   H364      1.0  0.07118  0.57652  0.68396  1.0000
  H   H365      1.0  0.20532  0.90782  0.61113  1.0000
  H   H366      1.0  0.22221  0.58303  0.69038  1.0000
  H   H367      1.0  0.15761  0.68369  0.51542  1.0000
  H   H368      1.0  0.23789  0.82769  0.54771  1.0000
  H   H369      1.0  0.99931  0.84758  0.55903  1.0000
  C   C220      1.0  0.22851  0.53543  0.67015  1.0000
  H   H370      1.0  0.02218  0.62780  0.51364  1.0000
  C   C221      1.0  0.01193  0.73371  0.67955  1.0000
  C   C222      1.0  0.23002  0.55473  0.68943  1.0000
  H   H371      1.0  0.17797  0.55997  0.53214  1.0000
  H   H372      1.0  0.21252  0.75859  0.65533  1.0000
  H   H373      1.0  0.00443  0.76277  0.67869  1.0000
  H   H374      1.0  0.23770  0.61736  0.51315  1.0000
  H   H375      1.0  0.22450  0.85304  0.67068  1.0000
  H   H376      1.0  0.07571  0.46721  0.73260  1.0000
  H   H377      1.0  0.00895  0.58871  0.54063  1.0000
  C   C223      1.0  0.01666  0.60138  0.50984  1.0000
  H   H378      1.0  0.01353  0.79685  0.57881  1.0000
  H   H379      1.0  0.11104  0.58551  0.73803  1.0000
  H   H380      1.0  0.99990  0.76293  0.56290  1.0000
  H   H381      1.0  0.13314  0.64121  0.52898  1.0000
  C   C224      1.0  0.99591  0.65505  0.69061  1.0000
  S   S62       1.0  0.23882  0.80199  0.59813  1.0000
  H   H382      1.0  0.07440  0.57245  0.74286  1.0000
  H   H383      1.0  0.08939  0.63714  0.71661  1.0000
  H   H384      1.0  0.20118  0.88158  0.66977  1.0000
  C   C225      1.0  0.03612  0.55439  0.49847  1.0000
  H   H385      1.0  0.22461  0.62346  0.71447  1.0000
  N   N17       1.0  0.15863  0.61557  0.50909  1.0000
  C   C226      1.0  0.15870  0.60066  0.53097  1.0000
  H   H386      1.0  0.15296  0.57186  0.53554  1.0000
  H   H387      1.0  0.17830  0.61721  0.53610  1.0000
  C   C227      1.0  0.08116  0.47768  0.74404  1.0000
  C   C228      1.0  0.99794  0.66191  0.72597  1.0000
  H   H388      1.0  0.23895  0.65353  0.70817  1.0000
  H   H389      1.0  0.03665  0.72035  0.50102  1.0000
  H   H390      1.0  0.01125  0.75541  0.59974  1.0000
  H   H391      1.0  0.23538  0.62780  0.73268  1.0000
  H   H392      1.0  0.18860  0.77491  0.65699  1.0000
  H   H393      1.0  0.23529  0.50512  0.66817  1.0000
  H   H394      1.0  0.00485  0.63131  0.68826  1.0000
  C   C229      1.0  0.19456  0.78048  0.64261  1.0000
  H   H395      1.0  0.19466  0.74983  0.63548  1.0000
  S   S63       1.0  0.24047  0.68739  0.63305  1.0000
  C   C230      1.0  0.23508  0.62395  0.71683  1.0000
  H   H396      1.0  0.17823  0.58729  0.49901  1.0000
  H   H397      1.0  0.23703  0.63468  0.67662  1.0000
  H   H398      1.0  0.99516  0.71925  0.59373  1.0000
  H   H399      1.0  0.00684  0.60486  0.74407  1.0000
  H   H400      1.0  0.14152  0.58198  0.50711  1.0000
  H   H401      1.0  0.00003  0.68440  0.73651  1.0000
  H   H402      1.0  0.19753  0.63527  0.49586  1.0000
  C   C231      1.0  0.14493  0.61544  0.50321  1.0000
  H   H403      1.0  0.12471  0.64482  0.50726  1.0000
  N   N18       1.0  0.24331  0.56928  0.69129  1.0000
  H   H404      1.0  0.99625  0.77948  0.71085  1.0000
  S   S64       1.0  0.24400  0.67552  0.58539  1.0000
  H   H405      1.0  0.17461  0.51486  0.49750  1.0000
  C   C232      1.0  0.23903  0.61327  0.49713  1.0000
  H   H406      1.0  0.24376  0.79635  0.66255  1.0000
  C   C233      1.0  0.16777  0.58507  0.49701  1.0000
  H   H407      1.0  0.99617  0.82494  0.53748  1.0000
  H   H408      1.0  0.24409  0.47360  0.69850  1.0000
  H   H409      1.0  0.01329  0.52223  0.49685  1.0000
  Fe  Fe32      1.0  0.17085  0.70591  0.80927  1.0000
  S   S65       1.0  0.17471  0.77217  0.79216  1.0000
  S   S66       1.0  0.15004  0.68477  0.81874  1.0000
  Fe  Fe33      1.0  0.19974  0.68433  0.81776  1.0000
  S   S67       1.0  0.20490  0.74914  0.80130  1.0000
  S   S68       1.0  0.21820  0.64633  0.82980  1.0000
  Fe  Fe34      1.0  0.18667  0.78123  0.81724  1.0000
  S   S69       1.0  0.18679  0.84838  0.83024  1.0000
  Fe  Fe35      1.0  0.19282  0.73420  0.77775  1.0000
  S   S70       1.0  0.18208  0.71688  0.83482  1.0000
  S   S71       1.0  0.18838  0.66778  0.79376  1.0000
  Fe  Fe36      1.0  0.19114  0.00386  0.92315  1.0000
  S   S72       1.0  0.17786  0.06366  0.91207  1.0000
  S   S73       1.0  0.19338  0.93676  0.90950  1.0000
  Fe  Fe37      1.0  0.19538  0.04847  0.96141  1.0000
  S   S74       1.0  0.18180  0.10889  0.95227  1.0000
  H   H410      1.0  0.20559  0.25649  0.89326  1.0000
  Fe  Fe38      1.0  0.16854  0.06270  0.94332  1.0000
  S   S75       1.0  0.14654  0.05781  0.95114  1.0000
  Fe  Fe39      1.0  0.19242  0.10444  0.92192  1.0000
  S   S76       1.0  0.19783  0.16919  0.90441  1.0000
  S   S77       1.0  0.18141  0.00181  0.95451  1.0000
  S   S78       1.0  0.20645  0.04519  0.93099  1.0000
  Fe  Fe40      1.0  0.07551  0.19124  0.93355  1.0000
  S   S79       1.0  0.06276  0.25386  0.93991  1.0000
  S   S80       1.0  0.09755  0.19806  0.93073  1.0000
  Fe  Fe41      1.0  0.05151  0.14429  0.92816  1.0000
  S   S81       1.0  0.03736  0.20422  0.93359  1.0000
  S   S82       1.0  0.04557  0.07546  0.92638  1.0000
  Fe  Fe42      1.0  0.05211  0.24409  0.91413  1.0000
  S   S83       1.0  0.04691  0.29612  0.88789  1.0000
  Fe  Fe43      1.0  0.04927  0.20901  0.95896  1.0000
  H   H411      1.0  0.99798  0.09096  0.96245  1.0000
  S   S84       1.0  0.06541  0.18300  0.90694  1.0000
  S   S85       1.0  0.06284  0.14751  0.95444  1.0000
  H   H412      1.0  0.11301  0.25232  0.89359  1.0000
  H   H413      1.0  0.09443  0.36632  0.83487  1.0000
  Fe  Fe44      1.0  0.08440  0.58807  0.79385  1.0000
  S   S86       1.0  0.07493  0.59601  0.82440  1.0000
  S   S87       1.0  0.10524  0.60198  0.78077  1.0000
  Fe  Fe45      1.0  0.05859  0.56398  0.77990  1.0000
  S   S88       1.0  0.04742  0.57017  0.80993  1.0000
  H   H414      1.0  0.99597  0.99703  0.91056  1.0000
  Fe  Fe46      1.0  0.05757  0.63164  0.80955  1.0000
  S   S89       1.0  0.04876  0.70266  0.81205  1.0000
  Fe  Fe47      1.0  0.06558  0.53315  0.82273  1.0000
  S   S90       1.0  0.06711  0.48264  0.85071  1.0000
  S   S91       1.0  0.06758  0.62736  0.77891  1.0000
  S   S92       1.0  0.07621  0.52318  0.79276  1.0000
  C   C234      1.0  0.02564  0.76188  0.86525  1.0000
  C   C235      1.0  0.02979  0.71629  0.86664  1.0000
  C   C236      1.0  0.03716  0.69755  0.85064  1.0000
  C   C237      1.0  0.04043  0.72444  0.83316  1.0000
  C   C238      1.0  0.03663  0.77018  0.83199  1.0000
  C   C239      1.0  0.02937  0.78891  0.84801  1.0000
  H   H415      1.0  0.02702  0.69522  0.88000  1.0000
  H   H416      1.0  0.04007  0.66228  0.85171  1.0000
  H   H417      1.0  0.03914  0.79121  0.81851  1.0000
  H   H418      1.0  0.02635  0.82411  0.84685  1.0000
  C   C240      1.0  0.05196  0.34933  0.87832  1.0000
  C   C241      1.0  0.04906  0.36775  0.85914  1.0000
  C   C242      1.0  0.05343  0.40858  0.85049  1.0000
  C   C243      1.0  0.06072  0.43190  0.86099  1.0000
  C   C244      1.0  0.06341  0.41385  0.88031  1.0000
  C   C245      1.0  0.05907  0.37300  0.88893  1.0000
  H   H419      1.0  0.04350  0.35004  0.85078  1.0000
  H   H420      1.0  0.05121  0.42189  0.83568  1.0000
  H   H421      1.0  0.06891  0.43168  0.88870  1.0000
  H   H422      1.0  0.06117  0.35996  0.90382  1.0000
  C   C246      1.0  0.03572  0.05893  0.90941  1.0000
  C   C247      1.0  0.03008  0.08885  0.89468  1.0000
  C   C248      1.0  0.02192  0.07427  0.88205  1.0000
  C   C249      1.0  0.01921  0.02985  0.88412  1.0000
  C   C250      1.0  0.02495  0.99992  0.89873  1.0000
  C   C251      1.0  0.03318  0.01439  0.91124  1.0000
  H   H423      1.0  0.03197  0.12319  0.89306  1.0000
  H   H424      1.0  0.01758  0.09766  0.87073  1.0000
  H   H425      1.0  0.02308  0.96557  0.90035  1.0000
  H   H426      1.0  0.03757  0.99093  0.92250  1.0000
  C   C252      1.0  0.13312  0.09681  0.94446  1.0000
  C   C253      1.0  0.12029  0.08420  0.94825  1.0000
  C   C254      1.0  0.10930  0.11420  0.94348  1.0000
  C   C255      1.0  0.11102  0.15761  0.93537  1.0000
  C   C256      1.0  0.12385  0.17021  0.93153  1.0000
  C   C257      1.0  0.13486  0.13990  0.93589  1.0000
  H   H427      1.0  0.11884  0.05095  0.95489  1.0000
  H   H428      1.0  0.09952  0.10380  0.94627  1.0000
  H   H429      1.0  0.12530  0.20372  0.92529  1.0000
  H   H430      1.0  0.14467  0.15008  0.93294  1.0000
  C   C258      1.0  0.18845  0.87232  0.85256  1.0000
  C   C259      1.0  0.18806  0.84785  0.87133  1.0000
  C   C260      1.0  0.18964  0.86804  0.88837  1.0000
  C   C261      1.0  0.19146  0.91334  0.88717  1.0000
  C   C262      1.0  0.19162  0.93803  0.86845  1.0000
  C   C263      1.0  0.19012  0.91773  0.85139  1.0000
  H   H431      1.0  0.18636  0.81342  0.87272  1.0000
  H   H432      1.0  0.18930  0.84850  0.90269  1.0000
  H   H433      1.0  0.19309  0.97271  0.86702  1.0000
  H   H434      1.0  0.19042  0.93736  0.83709  1.0000
  C   C264      1.0  0.13784  0.66140  0.80772  1.0000
  C   C265      1.0  0.13917  0.65394  0.78781  1.0000
  C   C266      1.0  0.12914  0.63575  0.77986  1.0000
  C   C267      1.0  0.11763  0.62471  0.79164  1.0000
  C   C268      1.0  0.11632  0.63203  0.81155  1.0000
  C   C269      1.0  0.12633  0.65033  0.81948  1.0000
  H   H435      1.0  0.14792  0.66221  0.77853  1.0000
  H   H436      1.0  0.13032  0.63019  0.76446  1.0000
  H   H437      1.0  0.10770  0.62298  0.82092  1.0000
  H   H438      1.0  0.12521  0.65552  0.83492  1.0000
  C   C270      1.0  0.23398  0.53515  0.86123  1.0000
  C   C271      1.0  0.23202  0.57768  0.85078  1.0000
  C   C272      1.0  0.21991  0.59320  0.84327  1.0000
  C   C273      1.0  0.15703  0.97400  0.91293  1.0000
  H   H439      1.0  0.24334  0.52342  0.86690  1.0000
  C   C274      1.0  0.22629  0.25316  0.89686  1.0000
  C   C275      1.0  0.21425  0.23517  0.89741  1.0000
  C   C276      1.0  0.21328  0.18997  0.90350  1.0000
  H   H440      1.0  0.22686  0.28810  0.89232  1.0000
  C   C277      1.0  0.99691  0.78984  0.83351  1.0000
  C   C278      1.0  0.00553  0.08506  0.95002  1.0000
  C   C279      1.0  0.99977  0.06945  0.93253  1.0000
  C   C280      1.0  0.23108  0.42260  0.82454  1.0000
  C   C281      1.0  0.14947  0.00924  0.88147  1.0000
  H   H441      1.0  0.16207  0.04641  0.85953  1.0000
  H   H442      1.0  0.16563  0.98814  0.85947  1.0000
  C   C282      1.0  0.22629  0.12244  0.95991  1.0000
  S   S93       1.0  0.00076  0.90053  0.90112  1.0000
  H   H443      1.0  0.00811  0.06253  0.92128  1.0000
  H   H444      1.0  0.08972  0.56982  0.75236  1.0000
  H   H445      1.0  0.19681  0.64790  0.89264  1.0000
  S   S94       1.0  0.03957  0.22742  0.98905  1.0000
  H   H446      1.0  0.21867  0.81292  0.86238  1.0000
  H   H447      1.0  0.00381  0.92092  0.95534  1.0000
  H   H448      1.0  0.23558  0.45205  0.78455  1.0000
  H   H449      1.0  0.19969  0.25254  0.97589  1.0000
  C   C283      1.0  0.11343  0.19473  0.98594  1.0000
  C   C284      1.0  0.21899  0.79024  0.85089  1.0000
  H   H450      1.0  0.01045  0.98680  0.93566  1.0000
  H   H451      1.0  0.13333  0.93137  0.91177  1.0000
  H   H452      1.0  0.00796  0.80017  0.80367  1.0000
  H   H453      1.0  0.23966  0.63789  0.88121  1.0000
  C   C285      1.0  0.99581  0.94650  0.95067  1.0000
  H   H454      1.0  0.22439  0.09209  0.95385  1.0000
  H   H455      1.0  0.22899  0.78577  0.84317  1.0000
  H   H456      1.0  0.21790  0.65073  0.87223  1.0000
  C   C286      1.0  0.21697  0.18608  0.99088  1.0000
  H   H457      1.0  0.15418  0.00613  0.91898  1.0000
  C   C287      1.0  0.12852  0.99891  0.91805  1.0000
  C   C288      1.0  0.13473  0.96493  0.90405  1.0000
  H   H458      1.0  0.08348  0.70791  0.86657  1.0000
  H   H459      1.0  0.00660  0.70599  0.84361  1.0000
  H   H460      1.0  0.01728  0.67619  0.81413  1.0000
  N   N19       1.0  0.21377  0.19630  0.96967  1.0000
  C   C289      1.0  0.20004  0.22021  0.96998  1.0000
  H   H461      1.0  0.23016  0.39868  0.83810  1.0000
  C   C290      1.0  0.21341  0.15349  0.96115  1.0000
  C   C291      1.0  0.22308  0.22526  0.95702  1.0000
  C   C292      1.0  0.19419  0.23105  0.94983  1.0000
  H   H462      1.0  0.01389  0.06168  0.95516  1.0000
  H   H463      1.0  0.00523  0.78090  0.84268  1.0000
  H   H464      1.0  0.00467  0.99879  0.95997  1.0000
  H   H465      1.0  0.19548  0.70590  0.89435  1.0000
  H   H466      1.0  0.07420  0.21433  0.97644  1.0000
  H   H467      1.0  0.08283  0.08053  0.98724  1.0000
  H   H468      1.0  0.16512  0.92779  0.88297  1.0000
  H   H469      1.0  0.20576  0.13418  0.96977  1.0000
  H   H470      1.0  0.21052  0.15974  0.94581  1.0000
  H   H471      1.0  0.22231  0.22327  0.94108  1.0000
  H   H472      1.0  0.22014  0.26068  0.95909  1.0000
  H   H473      1.0  0.19145  0.20103  0.94448  1.0000
  H   H474      1.0  0.18495  0.25347  0.95162  1.0000
  H   H475      1.0  0.20084  0.24821  0.93833  1.0000
  H   H476      1.0  0.13745  0.91097  0.87385  1.0000
  H   H477      1.0  0.07444  0.49900  0.75337  1.0000
  C   C293      1.0  0.19992  0.67989  0.88519  1.0000
  H   H478      1.0  0.11581  0.16835  0.97603  1.0000
  C   C294      1.0  0.14779  0.91777  0.86963  1.0000
  Fe  Fe48      1.0  0.00190  0.84805  0.88056  1.0000
  H   H479      1.0  0.21257  0.80712  0.83957  1.0000
  H   H480      1.0  0.08434  0.44724  0.75374  1.0000
  H   H481      1.0  0.21864  0.66129  0.89690  1.0000
  H   H482      1.0  0.17087  0.01568  0.87867  1.0000
  C   C295      1.0  0.23784  0.21638  0.96051  1.0000
  H   H483      1.0  0.00967  0.11694  0.94488  1.0000
  H   H484      1.0  0.09703  0.22398  0.96989  1.0000
  N   N20       1.0  0.09266  0.29744  0.86935  1.0000
  C   C296      1.0  0.08284  0.29473  0.85476  1.0000
  C   C297      1.0  0.09631  0.34433  0.86655  1.0000
  C   C298      1.0  0.08622  0.28633  0.89007  1.0000
  C   C299      1.0  0.10436  0.26437  0.86513  1.0000
  C   C300      1.0  0.07646  0.25101  0.85667  1.0000
  C   C301      1.0  0.10196  0.36185  0.84562  1.0000
  C   C302      1.0  0.09052  0.30961  0.90673  1.0000
  H   H485      1.0  0.11781  0.99595  0.92106  1.0000
  H   H486      1.0  0.07472  0.32195  0.85586  1.0000
  H   H487      1.0  0.08742  0.29934  0.83928  1.0000
  H   H488      1.0  0.10361  0.34895  0.87671  1.0000
  H   H489      1.0  0.08751  0.36757  0.87039  1.0000
  H   H490      1.0  0.07541  0.29493  0.89068  1.0000
  H   H491      1.0  0.08750  0.25000  0.89468  1.0000
  H   H492      1.0  0.10144  0.23014  0.86746  1.0000
  H   H493      1.0  0.10830  0.26966  0.84935  1.0000
  H   H494      1.0  0.06890  0.25456  0.84596  1.0000
  H   H495      1.0  0.08366  0.22268  0.85306  1.0000
  H   H496      1.0  0.07124  0.24315  0.87144  1.0000
  H   H497      1.0  0.10127  0.30653  0.90731  1.0000
  H   H498      1.0  0.10528  0.71793  0.85527  1.0000
  H   H499      1.0  0.10503  0.39528  0.84608  1.0000
  H   H500      1.0  0.08626  0.29447  0.92122  1.0000
  H   H501      1.0  0.22399  0.12774  0.91315  1.0000
  H   H502      1.0  0.20030  0.57793  0.84093  1.0000
  H   H503      1.0  0.20368  0.50286  0.85947  1.0000
  C   C303      1.0  0.22457  0.16268  0.90868  1.0000
  C   C304      1.0  0.20968  0.56620  0.84655  1.0000
  N   N21       1.0  0.08454  0.74521  0.82546  1.0000
  C   C305      1.0  0.08254  0.74796  0.80377  1.0000
  C   C306      1.0  0.07523  0.78136  0.83397  1.0000
  C   C307      1.0  0.08117  0.70036  0.83529  1.0000
  C   C308      1.0  0.09876  0.75055  0.82701  1.0000
  C   C309      1.0  0.08995  0.71047  0.79253  1.0000
  C   C310      1.0  0.07741  0.82914  0.82519  1.0000
  C   C311      1.0  0.07660  0.69606  0.85759  1.0000
  C   C312      1.0  0.10291  0.75194  0.84785  1.0000
  H   H504      1.0  0.07191  0.74853  0.80175  1.0000
  H   H505      1.0  0.08569  0.77921  0.79553  1.0000
  H   H506      1.0  0.07551  0.78029  0.85015  1.0000
  H   H507      1.0  0.06489  0.77640  0.83209  1.0000
  H   H508      1.0  0.07299  0.68965  0.82831  1.0000
  H   H509      1.0  0.08962  0.67468  0.83310  1.0000
  H   H510      1.0  0.10523  0.72254  0.82115  1.0000
  H   H511      1.0  0.10204  0.77984  0.81721  1.0000
  H   H512      1.0  0.10075  0.71152  0.79124  1.0000
  H   H513      1.0  0.08752  0.67722  0.79922  1.0000
  H   H514      1.0  0.08699  0.71471  0.77721  1.0000
  H   H515      1.0  0.08749  0.83692  0.82662  1.0000
  H   H516      1.0  0.07512  0.83609  0.80957  1.0000
  H   H517      1.0  0.07052  0.85240  0.83355  1.0000
  H   H518      1.0  0.01710  0.73446  0.81110  1.0000
  H   H519      1.0  0.07585  0.66056  0.86295  1.0000
  H   H520      1.0  0.06660  0.71350  0.86039  1.0000
  H   H521      1.0  0.12393  0.23850  0.87286  1.0000
  H   H522      1.0  0.09557  0.77078  0.85739  1.0000
  H   H523      1.0  0.11184  0.76968  0.84655  1.0000
  H   H524      1.0  0.21285  0.79337  0.90930  1.0000
  C   C313      1.0  0.21374  0.74592  0.85939  1.0000
  C   C314      1.0  0.22325  0.74338  0.89177  1.0000
  H   H525      1.0  0.23399  0.13733  0.94950  1.0000
  C   C315      1.0  0.21070  0.76338  0.90315  1.0000
  S   S95       1.0  0.01525  0.78342  0.88483  1.0000
  H   H526      1.0  0.20333  0.75432  0.86480  1.0000
  H   H527      1.0  0.09844  0.24674  0.99204  1.0000
  H   H528      1.0  0.22973  0.77020  0.88692  1.0000
  N   N22       1.0  0.14892  0.96875  0.89650  1.0000
  C   C316      1.0  0.23663  0.18058  0.90797  1.0000
  H   H529      1.0  0.13272  0.99255  0.93255  1.0000
  H   H530      1.0  0.20714  0.73928  0.91551  1.0000
  H   H531      1.0  0.99575  0.67810  0.83245  1.0000
  C   C317      1.0  0.00137  0.99172  0.94587  1.0000
  C   C318      1.0  0.11589  0.26329  0.87783  1.0000
  H   H532      1.0  0.20268  0.77519  0.89373  1.0000
  C   C319      1.0  0.15446  0.92731  0.88754  1.0000
  H   H533      1.0  0.08666  0.34517  0.90536  1.0000
  C   C320      1.0  0.23753  0.22591  0.90220  1.0000
  C   C321      1.0  0.23493  0.70455  0.86506  1.0000
  H   H534      1.0  0.15813  0.95050  0.94419  1.0000
  H   H535      1.0  0.19580  0.68525  0.87064  1.0000
  C   C322      1.0  0.22380  0.50787  0.86425  1.0000
  H   H536      1.0  0.23409  0.69080  0.85099  1.0000
  H   H537      1.0  0.15312  0.88763  0.86386  1.0000
  H   H538      1.0  0.11991  0.22086  0.98004  1.0000
  H   H539      1.0  0.23743  0.21616  0.85762  1.0000
  C   C323      1.0  0.21163  0.52371  0.85704  1.0000
  C   C324      1.0  0.01067  0.70759  0.81242  1.0000
  H   H540      1.0  0.15386  0.89767  0.89871  1.0000
  H   H541      1.0  0.14689  0.03990  0.88883  1.0000
  H   H542      1.0  0.14820  0.94489  0.85730  1.0000
  C   C325      1.0  0.09038  0.14356  0.98739  1.0000
  H   H543      1.0  0.14201  0.01047  0.87072  1.0000
  C   C326      1.0  0.15733  0.93637  0.93025  1.0000
  S   S96       1.0  0.00836  0.01352  0.86854  1.0000
  H   H544      1.0  0.22277  0.25217  0.99387  1.0000
  C   C327      1.0  0.16283  0.01451  0.86927  1.0000
  H   H545      1.0  0.22868  0.72168  0.90315  1.0000
  H   H546      1.0  0.12965  0.03347  0.91160  1.0000
  H   H547      1.0  0.12846  0.96865  0.89152  1.0000
  H   H548      1.0  0.11078  0.34080  0.84024  1.0000
  H   H549      1.0  0.16744  0.97615  0.90716  1.0000
  H   H550      1.0  0.16594  0.91148  0.92776  1.0000
  H   H551      1.0  0.24059  0.73360  0.86083  1.0000
  S   S97       1.0  0.22585  0.45384  0.87682  1.0000
  C   C328      1.0  0.21506  0.67632  0.88250  1.0000
  H   H552      1.0  0.08921  0.15028  0.97127  1.0000
  H   H553      1.0  0.12004  0.29544  0.87625  1.0000
  H   H554      1.0  0.14835  0.91916  0.93283  1.0000
  C   C329      1.0  0.07544  0.21069  0.99253  1.0000
  N   N23       1.0  0.22145  0.71804  0.87494  1.0000
  H   H555      1.0  0.22988  0.40468  0.81189  1.0000
  H   H556      1.0  0.21320  0.72695  0.84674  1.0000
  C   C330      1.0  0.00181  0.81891  0.81463  1.0000
  H   H557      1.0  0.24094  0.18389  0.96851  1.0000
  H   H558      1.0  0.19301  0.20077  0.98007  1.0000
  Fe  Fe49      1.0  0.99898  0.94863  0.87377  1.0000
  H   H559      1.0  0.09938  0.50147  0.74739  1.0000
  H   H560      1.0  0.22991  0.11114  0.97457  1.0000
  H   H561      1.0  0.00789  0.84331  0.81877  1.0000
  H   H562      1.0  0.22289  0.44920  0.82628  1.0000
  S   S98       1.0  0.20773  0.04408  0.98832  1.0000
  S   S99       1.0  0.00192  0.89604  0.85292  1.0000
  H   H563      1.0  0.10041  0.12626  0.98867  1.0000
  H   H564      1.0  0.00595  0.70809  0.79859  1.0000
  C   C331      1.0  0.00066  0.70902  0.83074  1.0000
  S   S100      1.0  0.20332  0.74431  0.74594  1.0000
  H   H565      1.0  0.07791  0.28178  0.98872  1.0000
  H   H566      1.0  0.23999  0.59844  0.84829  1.0000
  H   H567      1.0  0.24228  0.55189  0.77773  1.0000
  H   H568      1.0  0.22659  0.16623  0.99233  1.0000
  H   H569      1.0  0.24081  0.24291  0.96820  1.0000
  C   C332      1.0  0.24055  0.55694  0.79356  1.0000
  S   S101      1.0  0.04858  0.54258  0.75451  1.0000
  H   H570      1.0  0.22748  0.50733  0.80324  1.0000
  H   H571      1.0  0.23206  0.58273  0.79515  1.0000
  C   C333      1.0  0.09894  0.21485  0.98569  1.0000
  H   H572      1.0  0.23546  0.52247  0.82221  1.0000
  C   C334      1.0  0.23728  0.51433  0.80681  1.0000
  C   C335      1.0  0.24460  0.44063  0.82280  1.0000
  H   H573      1.0  0.24380  0.21827  0.94595  1.0000
  C   C336      1.0  0.24389  0.66991  0.87735  1.0000
  Fe  Fe50      1.0  0.31687  0.45664  0.06974  1.0000
  S   S102      1.0  0.31277  0.52152  0.05080  1.0000
  S   S103      1.0  0.33694  0.43364  0.08135  1.0000
  Fe  Fe51      1.0  0.28745  0.44765  0.07995  1.0000
  S   S104      1.0  0.28205  0.51359  0.06268  1.0000
  S   S105      1.0  0.26949  0.41380  0.09386  1.0000
  Fe  Fe52      1.0  0.29698  0.48878  0.03887  1.0000
  Fe  Fe53      1.0  0.29815  0.53993  0.07639  1.0000
  S   S106      1.0  0.29809  0.60915  0.08728  1.0000
  S   S107      1.0  0.30217  0.42235  0.05621  1.0000
  S   S108      1.0  0.30240  0.47555  0.09528  1.0000
  Fe  Fe54      1.0  0.30542  0.76691  0.17784  1.0000
  S   S109      1.0  0.31870  0.81644  0.16192  1.0000
  S   S110      1.0  0.30241  0.70017  0.16663  1.0000
  Fe  Fe55      1.0  0.29913  0.82153  0.21469  1.0000
  S   S111      1.0  0.31207  0.87289  0.20025  1.0000
  H   H574      1.0  0.25496  0.90161  0.20006  1.0000
  Fe  Fe56      1.0  0.30288  0.86825  0.17236  1.0000
  S   S112      1.0  0.29726  0.93534  0.15528  1.0000
  Fe  Fe57      1.0  0.32671  0.81745  0.19129  1.0000
  S   S113      1.0  0.34862  0.81128  0.19640  1.0000
  S   S114      1.0  0.28914  0.81944  0.18683  1.0000
  S   S115      1.0  0.31429  0.76500  0.20710  1.0000
  C   C337      1.0  0.26573  0.02723  0.23663  1.0000
  Fe  Fe58      1.0  0.41405  0.37208  0.05430  1.0000
  S   S116      1.0  0.42543  0.30786  0.04777  1.0000
  S   S117      1.0  0.39450  0.38458  0.04046  1.0000
  Fe  Fe59      1.0  0.43705  0.39694  0.07420  1.0000
  S   S118      1.0  0.44972  0.33306  0.06911  1.0000
  S   S119      1.0  0.44182  0.45845  0.08686  1.0000
  Fe  Fe60      1.0  0.44280  0.34584  0.03838  1.0000
  C   C338      1.0  0.24928  0.39335  0.04945  1.0000
  Fe  Fe61      1.0  0.43116  0.29958  0.07896  1.0000
  S   S120      1.0  0.42689  0.22955  0.09340  1.0000
  S   S121      1.0  0.43115  0.41075  0.04296  1.0000
  S   S122      1.0  0.41883  0.36286  0.08592  1.0000
  Fe  Fe62      1.0  0.43783  0.93139  0.16952  1.0000
  S   S123      1.0  0.44818  0.97477  0.18522  1.0000
  S   S124      1.0  0.45091  0.90087  0.14489  1.0000
  Fe  Fe63      1.0  0.41149  0.95534  0.19255  1.0000
  S   S125      1.0  0.42038  0.00056  0.21013  1.0000
  S   S126      1.0  0.38900  0.95593  0.19576  1.0000
  Fe  Fe64      1.0  0.43087  0.02579  0.18091  1.0000
  S   S127      1.0  0.43554  0.09788  0.17293  1.0000
  Fe  Fe65      1.0  0.43714  0.94633  0.21311  1.0000
  C   C339      1.0  0.48068  0.00001  0.10235  1.0000
  S   S128      1.0  0.42114  0.98424  0.16327  1.0000
  S   S129      1.0  0.42764  0.89928  0.19745  1.0000
  C   C340      1.0  0.43293  0.13438  0.15084  1.0000
  C   C341      1.0  0.42574  0.12370  0.13621  1.0000
  C   C342      1.0  0.42423  0.15294  0.11871  1.0000
  C   C343      1.0  0.42952  0.19392  0.11575  1.0000
  C   C344      1.0  0.43658  0.20488  0.13049  1.0000
  C   C345      1.0  0.43831  0.17520  0.14785  1.0000
  H   H575      1.0  0.42123  0.09307  0.13846  1.0000
  H   H576      1.0  0.41881  0.14387  0.10742  1.0000
  H   H577      1.0  0.44074  0.23616  0.12850  1.0000
  H   H578      1.0  0.44384  0.18408  0.15906  1.0000
  H   H579      1.0  0.33809  0.53310  0.07497  1.0000
  C   C346      1.0  0.46757  0.43951  0.09737  1.0000
  C   C347      1.0  0.45695  0.47156  0.09390  1.0000
  C   C348      1.0  0.45808  0.51554  0.09687  1.0000
  C   C349      1.0  0.46956  0.52726  0.10356  1.0000
  H   H580      1.0  0.46685  0.40554  0.09519  1.0000
  H   H581      1.0  0.44998  0.54057  0.09400  1.0000
  H   H582      1.0  0.45845  0.15061  0.23188  1.0000
  C   C350      1.0  0.46630  0.75352  0.15201  1.0000
  C   C351      1.0  0.47240  0.78309  0.13770  1.0000
  C   C352      1.0  0.46747  0.82813  0.13547  1.0000
  C   C353      1.0  0.45649  0.84389  0.14760  1.0000
  C   C354      1.0  0.45028  0.81415  0.16172  1.0000
  C   C355      1.0  0.45520  0.76916  0.16394  1.0000
  H   H583      1.0  0.47228  0.85090  0.12442  1.0000
  H   H584      1.0  0.44174  0.82588  0.17099  1.0000
  H   H585      1.0  0.45044  0.74646  0.17507  1.0000
  C   C356      1.0  0.35980  0.85227  0.19472  1.0000
  C   C357      1.0  0.37319  0.83859  0.19685  1.0000
  C   C358      1.0  0.38233  0.86970  0.19662  1.0000
  C   C359      1.0  0.37817  0.91507  0.19455  1.0000
  C   C360      1.0  0.36477  0.92874  0.19246  1.0000
  C   C361      1.0  0.35566  0.89764  0.19241  1.0000
  H   H586      1.0  0.37651  0.80362  0.19875  1.0000
  H   H587      1.0  0.39255  0.85857  0.19839  1.0000
  H   H588      1.0  0.36141  0.96371  0.19087  1.0000
  H   H589      1.0  0.34543  0.90881  0.19073  1.0000
  C   C362      1.0  0.28132  0.95535  0.14853  1.0000
  C   C363      1.0  0.27109  0.92827  0.15080  1.0000
  C   C364      1.0  0.25835  0.94639  0.14642  1.0000
  C   C365      1.0  0.25575  0.99167  0.13989  1.0000
  C   C366      1.0  0.26602  0.01854  0.13730  1.0000
  C   C367      1.0  0.27876  0.00035  0.14151  1.0000
  H   H590      1.0  0.27297  0.89350  0.15607  1.0000
  H   H591      1.0  0.48181  0.89260  0.20143  1.0000
  H   H592      1.0  0.26414  0.05340  0.13220  1.0000
  H   H593      1.0  0.28664  0.02144  0.13960  1.0000
  C   C368      1.0  0.29860  0.63401  0.10972  1.0000
  C   C369      1.0  0.30027  0.67943  0.10843  1.0000
  C   C370      1.0  0.30145  0.70019  0.12547  1.0000
  C   C371      1.0  0.30095  0.67598  0.14430  1.0000
  C   C372      1.0  0.29930  0.63051  0.14559  1.0000
  C   C373      1.0  0.29813  0.60973  0.12855  1.0000
  H   H594      1.0  0.30071  0.69882  0.09407  1.0000
  H   H595      1.0  0.30271  0.73505  0.12401  1.0000
  H   H596      1.0  0.29886  0.61117  0.15996  1.0000
  H   H597      1.0  0.29685  0.57490  0.13002  1.0000
  C   C374      1.0  0.35289  0.42397  0.06903  1.0000
  C   C375      1.0  0.35496  0.41718  0.04909  1.0000
  C   C376      1.0  0.36781  0.40601  0.04048  1.0000
  C   C377      1.0  0.37870  0.40207  0.05162  1.0000
  C   C378      1.0  0.37666  0.41021  0.07140  1.0000
  C   C379      1.0  0.36381  0.42066  0.08007  1.0000
  H   H598      1.0  0.34665  0.41944  0.04044  1.0000
  H   H599      1.0  0.36928  0.39987  0.02515  1.0000
  H   H600      1.0  0.38495  0.40782  0.08010  1.0000
  H   H601      1.0  0.36229  0.42559  0.09555  1.0000
  C   C380      1.0  0.26756  0.35719  0.09382  1.0000
  C   C381      1.0  0.25483  0.34361  0.09673  1.0000
  C   C382      1.0  0.25289  0.29867  0.09733  1.0000
  C   C383      1.0  0.26373  0.26675  0.09565  1.0000
  C   C384      1.0  0.27643  0.28043  0.09255  1.0000
  C   C385      1.0  0.27835  0.32545  0.09154  1.0000
  H   H602      1.0  0.27139  0.33174  0.05229  1.0000
  H   H603      1.0  0.33515  0.87941  0.22677  1.0000
  H   H604      1.0  0.28486  0.25596  0.09114  1.0000
  H   H605      1.0  0.28819  0.33549  0.08934  1.0000
  N   N24       1.0  0.43994  0.64755  0.13188  1.0000
  C   C386      1.0  0.43729  0.66766  0.15115  1.0000
  C   C387      1.0  0.44633  0.60096  0.13656  1.0000
  C   C388      1.0  0.42688  0.64683  0.12370  1.0000
  C   C389      1.0  0.44870  0.67608  0.11796  1.0000
  C   C390      1.0  0.42940  0.71394  0.15028  1.0000
  C   C391      1.0  0.45963  0.59634  0.14548  1.0000
  C   C392      1.0  0.42603  0.61203  0.10954  1.0000
  C   C393      1.0  0.45338  0.66053  0.09761  1.0000
  H   H606      1.0  0.43189  0.64543  0.16256  1.0000
  H   H607      1.0  0.44660  0.67135  0.15730  1.0000
  H   H608      1.0  0.44808  0.58302  0.12335  1.0000
  H   H609      1.0  0.43959  0.58122  0.14705  1.0000
  H   H610      1.0  0.41904  0.64036  0.13595  1.0000
  H   H611      1.0  0.42366  0.67979  0.11581  1.0000
  H   H612      1.0  0.44360  0.70983  0.11459  1.0000
  H   H613      1.0  0.45746  0.68253  0.12493  1.0000
  H   H614      1.0  0.43492  0.73963  0.14126  1.0000
  H   H615      1.0  0.41959  0.71442  0.14490  1.0000
  H   H616      1.0  0.42768  0.72389  0.16547  1.0000
  H   H617      1.0  0.45863  0.60630  0.16062  1.0000
  H   H618      1.0  0.46377  0.56100  0.14669  1.0000
  H   H619      1.0  0.46694  0.61513  0.13598  1.0000
  H   H620      1.0  0.42657  0.57799  0.11749  1.0000
  H   H621      1.0  0.43360  0.61328  0.09684  1.0000
  H   H622      1.0  0.41633  0.61822  0.10339  1.0000
  H   H623      1.0  0.44605  0.67235  0.08681  1.0000
  H   H624      1.0  0.45571  0.62440  0.09806  1.0000
  H   H625      1.0  0.46277  0.67427  0.09197  1.0000
  N   N25       1.0  0.45621  0.02975  0.10899  1.0000
  C   C394      1.0  0.45991  0.06606  0.11961  1.0000
  C   C395      1.0  0.45498  0.04757  0.08764  1.0000
  C   C396      1.0  0.46651  0.99038  0.10991  1.0000
  C   C397      1.0  0.44342  0.01487  0.11889  1.0000
  C   C398      1.0  0.46325  0.05231  0.14110  1.0000
  C   C399      1.0  0.44407  0.08603  0.08390  1.0000
  H   H626      1.0  0.27438  0.23400  0.14703  1.0000
  C   C400      1.0  0.43689  0.98317  0.10807  1.0000
  H   H627      1.0  0.46833  0.08209  0.11131  1.0000
  H   H628      1.0  0.45173  0.09318  0.12036  1.0000
  H   H629      1.0  0.45345  0.02077  0.07882  1.0000
  H   H630      1.0  0.28149  0.00193  0.18266  1.0000
  H   H631      1.0  0.46668  0.97328  0.12526  1.0000
  H   H632      1.0  0.46411  0.96492  0.10103  1.0000
  H   H633      1.0  0.44480  0.99746  0.13391  1.0000
  H   H634      1.0  0.43606  0.04363  0.12132  1.0000
  H   H635      1.0  0.46534  0.08208  0.14746  1.0000
  H   H636      1.0  0.45485  0.03912  0.15052  1.0000
  H   H637      1.0  0.47207  0.02794  0.14213  1.0000
  H   H638      1.0  0.44614  0.11644  0.08973  1.0000
  H   H639      1.0  0.44368  0.09461  0.06769  1.0000
  H   H640      1.0  0.43418  0.07742  0.09006  1.0000
  H   H641      1.0  0.25844  0.47295  0.05175  1.0000
  H   H642      1.0  0.48202  0.72752  0.21565  1.0000
  C   C401      1.0  0.26512  0.98157  0.22954  1.0000
  H   H643      1.0  0.43355  0.99927  0.09378  1.0000
  H   H644      1.0  0.42801  0.97288  0.11742  1.0000
  H   H645      1.0  0.44337  0.95245  0.10568  1.0000
  H   H646      1.0  0.38958  0.32698  0.08524  1.0000
  H   H647      1.0  0.35409  0.31487  0.11282  1.0000
  C   C402      1.0  0.36249  0.31469  0.10121  1.0000
  H   H648      1.0  0.40195  0.28257  0.08428  1.0000
  H   H649      1.0  0.32934  0.63342  0.06737  1.0000
  H   H650      1.0  0.28125  0.91691  0.21406  1.0000
  H   H651      1.0  0.25046  0.92538  0.14844  1.0000
  C   C403      1.0  0.39218  0.29249  0.09199  1.0000
  C   C404      1.0  0.27289  0.92993  0.20520  1.0000
  H   H652      1.0  0.32421  0.54955  0.13581  1.0000
  H   H653      1.0  0.26386  0.34995  0.16778  1.0000
  H   H654      1.0  0.45947  0.10678  0.19325  1.0000
  S   S130      1.0  0.49441  0.50801  0.11693  1.0000
  C   C405      1.0  0.36963  0.26749  0.10151  1.0000
  C   C406      1.0  0.39085  0.19249  0.11044  1.0000
  H   H655      1.0  0.37105  0.25598  0.11716  1.0000
  H   H656      1.0  0.36255  0.24572  0.09768  1.0000
  H   H657      1.0  0.38144  0.19454  0.08377  1.0000
  H   H658      1.0  0.36901  0.33865  0.10445  1.0000
  H   H659      1.0  0.39864  0.20740  0.11646  1.0000
  H   H660      1.0  0.39470  0.15744  0.10920  1.0000
  H   H661      1.0  0.39850  0.28346  0.05245  1.0000
  N   N26       1.0  0.38223  0.26287  0.08811  1.0000
  C   C407      1.0  0.26231  0.89760  0.21106  1.0000
  H   H662      1.0  0.26316  0.24904  0.18047  1.0000
  S   S131      1.0  0.28905  0.49890  0.00784  1.0000
  S   S132      1.0  0.26200  0.20946  0.09819  1.0000
  H   H663      1.0  0.38195  0.19136  0.12104  1.0000
  H   H664      1.0  0.27382  0.37319  0.99701  1.0000
  S   S133      1.0  0.47226  0.69700  0.15582  1.0000
  C   C408      1.0  0.38802  0.21510  0.08969  1.0000
  H   H665      1.0  0.35826  0.32620  0.08697  1.0000
  H   H666      1.0  0.38878  0.27408  0.12505  1.0000
  H   H667      1.0  0.37025  0.25802  0.06428  1.0000
  H   H668      1.0  0.37504  0.31166  0.06473  1.0000
  C   C409      1.0  0.38962  0.26795  0.05051  1.0000
  H   H669      1.0  0.39762  0.21148  0.08053  1.0000
  C   C410      1.0  0.37858  0.27584  0.06717  1.0000
  C   C411      1.0  0.39438  0.29529  0.11381  1.0000
  H   H670      1.0  0.40495  0.28596  0.11602  1.0000
  H   H671      1.0  0.26172  0.29429  0.13398  1.0000
  H   H672      1.0  0.39206  0.32999  0.11725  1.0000
  C   C412      1.0  0.48184  0.75218  0.20224  1.0000
  H   H673      1.0  0.39221  0.23221  0.04916  1.0000
  H   H674      1.0  0.24718  0.02367  0.08687  1.0000
  H   H675      1.0  0.26277  0.51051  0.03067  1.0000
  H   H676      1.0  0.44886  0.82251  0.22614  1.0000
  H   H677      1.0  0.32757  0.81384  0.23250  1.0000
  H   H678      1.0  0.49292  0.83933  0.22092  1.0000
  C   C413      1.0  0.48001  0.49503  0.10760  1.0000
  C   C414      1.0  0.45893  0.13508  0.20198  1.0000
  H   H679      1.0  0.24852  0.31360  0.18591  1.0000
  H   H680      1.0  0.38613  0.28356  0.03618  1.0000
  H   H681      1.0  0.44700  0.05019  0.21047  1.0000
  H   H682      1.0  0.25067  0.33947  0.14085  1.0000
  H   H683      1.0  0.24836  0.97341  0.20245  1.0000
  C   C415      1.0  0.47901  0.45121  0.10426  1.0000
  H   H684      1.0  0.27673  0.92619  0.18964  1.0000
  C   C416      1.0  0.33974  0.62195  0.12638  1.0000
  N   N27       1.0  0.24874  0.27851  0.16036  1.0000
  H   H685      1.0  0.27370  0.41520  0.04694  1.0000
  H   H686      1.0  0.26141  0.20163  0.14348  1.0000
  H   H687      1.0  0.36348  0.50764  0.09131  1.0000
  H   H688      1.0  0.31603  0.93287  0.23082  1.0000
  H   H689      1.0  0.27803  0.32936  0.02689  1.0000
  C   C417      1.0  0.26789  0.32787  0.15647  1.0000
  H   H690      1.0  0.48163  0.01151  0.08630  1.0000
  H   H691      1.0  0.47432  0.03743  0.22495  1.0000
  H   H692      1.0  0.27180  0.18429  0.16286  1.0000
  Fe  Fe66      1.0  0.48999  0.66552  0.13788  1.0000
  H   H693      1.0  0.48877  0.83081  0.17916  1.0000
  C   C418      1.0  0.47512  0.87932  0.19256  1.0000
  C   C419      1.0  0.47012  0.80558  0.22333  1.0000
  H   H694      1.0  0.32377  0.61057  0.11000  1.0000
  H   H695      1.0  0.41240  0.35008  0.00584  1.0000
  N   N28       1.0  0.34109  0.57087  0.09867  1.0000
  C   C420      1.0  0.25679  0.99205  0.19622  1.0000
  C   C421      1.0  0.29301  0.98979  0.20756  1.0000
  N   N29       1.0  0.25766  0.40510  0.03046  1.0000
  C   C422      1.0  0.25469  0.45301  0.02250  1.0000
  H   H696      1.0  0.45391  0.76647  0.22048  1.0000
  H   H697      1.0  0.36038  0.57896  0.10656  1.0000
  H   H698      1.0  0.29200  0.98415  0.22393  1.0000
  H   H699      1.0  0.34739  0.64524  0.12279  1.0000
  H   H700      1.0  0.49418  0.56422  0.01780  1.0000
  H   H701      1.0  0.34387  0.59229  0.13554  1.0000
  H   H702      1.0  0.48439  0.02405  0.11062  1.0000
  C   C423      1.0  0.31900  0.91131  0.24424  1.0000
  H   H703      1.0  0.27356  0.34834  0.14472  1.0000
  H   H704      1.0  0.44976  0.15709  0.19940  1.0000
  H   H705      1.0  0.25864  0.06374  0.18839  1.0000
  H   H706      1.0  0.25511  0.97150  0.23431  1.0000
  H   H707      1.0  0.34259  0.49950  0.10568  1.0000
  H   H708      1.0  0.24677  0.05016  0.20954  1.0000
  C   C424      1.0  0.27732  0.34845  0.03973  1.0000
  H   H709      1.0  0.28743  0.34722  0.04421  1.0000
  C   C425      1.0  0.45226  0.04522  0.22411  1.0000
  H   H710      1.0  0.33551  0.64164  0.09652  1.0000
  C   C426      1.0  0.45998  0.12015  0.22421  1.0000
  H   H711      1.0  0.47508  0.89998  0.17800  1.0000
  H   H712      1.0  0.37379  0.54776  0.07923  1.0000
  H   H713      1.0  0.27499  0.30117  0.16279  1.0000
  H   H714      1.0  0.46493  0.88340  0.19973  1.0000
  H   H715      1.0  0.47037  0.10752  0.22585  1.0000
  H   H716      1.0  0.25266  0.40711  0.06204  1.0000
  H   H717      1.0  0.45499  0.81326  0.20186  1.0000
  C   C427      1.0  0.25475  0.37654  0.01540  1.0000
  H   H718      1.0  0.32370  0.56190  0.08504  1.0000
  C   C428      1.0  0.25053  0.99811  0.07688  1.0000
  C   C429      1.0  0.33453  0.61158  0.10731  1.0000
  C   C430      1.0  0.47951  0.83075  0.18919  1.0000
  C   C431      1.0  0.26667  0.21381  0.15466  1.0000
  H   H719      1.0  0.31847  0.52953  0.11493  1.0000
  C   C432      1.0  0.25694  0.30997  0.14704  1.0000
  H   H720      1.0  0.27836  0.41127  0.02172  1.0000
  H   H721      1.0  0.43475  0.11442  0.21566  1.0000
  S   S134      1.0  0.45565  0.32980  0.01019  1.0000
  H   H722      1.0  0.33147  0.63744  0.13589  1.0000
  H   H723      1.0  0.46997  0.83785  0.22930  1.0000
  C   C433      1.0  0.45626  0.80131  0.21750  1.0000
  S   S135      1.0  0.48922  0.64031  0.10864  1.0000
  C   C434      1.0  0.49215  0.59036  0.06204  1.0000
  C   C435      1.0  0.33501  0.60215  0.06347  1.0000
  H   H724      1.0  0.33889  0.92505  0.23767  1.0000
  H   H725      1.0  0.32644  0.49181  0.13311  1.0000
  H   H726      1.0  0.35650  0.60922  0.08390  1.0000
  H   H727      1.0  0.25573  0.34090  0.02142  1.0000
  H   H728      1.0  0.35405  0.83417  0.23615  1.0000
  H   H729      1.0  0.25635  0.97015  0.08505  1.0000
  H   H730      1.0  0.25026  0.35692  0.05374  1.0000
  H   H731      1.0  0.35985  0.53792  0.06768  1.0000
  C   C436      1.0  0.33431  0.56487  0.08086  1.0000
  H   H732      1.0  0.34740  0.52690  0.12433  1.0000
  H   H733      1.0  0.27748  0.03989  0.20003  1.0000
  H   H734      1.0  0.34523  0.60783  0.05778  1.0000
  C   C437      1.0  0.36342  0.54022  0.08220  1.0000
  H   H735      1.0  0.47143  0.78087  0.23652  1.0000
  H   H736      1.0  0.46859  0.03198  0.20144  1.0000
  C   C438      1.0  0.27975  0.00410  0.19887  1.0000
  H   H737      1.0  0.24589  0.50755  0.03917  1.0000
  H   H738      1.0  0.33034  0.59250  0.05100  1.0000
  H   H739      1.0  0.47235  0.82036  0.18017  1.0000
  C   C439      1.0  0.32648  0.52542  0.12482  1.0000
  C   C440      1.0  0.35537  0.57700  0.09311  1.0000
  C   C441      1.0  0.34008  0.52983  0.11328  1.0000
  C   C442      1.0  0.27192  0.39724  0.03450  1.0000
  S   S136      1.0  0.45067  0.91853  0.23745  1.0000
  H   H740      1.0  0.48730  0.96872  0.10449  1.0000
  H   H741      1.0  0.25098  0.21465  0.17794  1.0000
  C   C443      1.0  0.25721  0.23922  0.16940  1.0000
  H   H742      1.0  0.48095  0.77135  0.12842  1.0000
  C   C444      1.0  0.25129  0.04115  0.19498  1.0000
  C   C445      1.0  0.33368  0.89479  0.24083  1.0000
  H   H743      1.0  0.46427  0.06043  0.08074  1.0000
  N   N30       1.0  0.48131  0.79864  0.20757  1.0000
  H   H744      1.0  0.47035  0.56103  0.10582  1.0000
  H   H745      1.0  0.25735  0.01284  0.06481  1.0000
  N   N31       1.0  0.26858  0.97792  0.20776  1.0000
  H   H746      1.0  0.43572  0.14363  0.23617  1.0000
  H   H747      1.0  0.29787  0.95945  0.20154  1.0000
  H   H748      1.0  0.46723  0.15455  0.19603  1.0000
  C   C446      1.0  0.46647  0.02596  0.21775  1.0000
  H   H749      1.0  0.47272  0.74767  0.19563  1.0000
  H   H750      1.0  0.29970  0.01591  0.20292  1.0000
  H   H751      1.0  0.26707  0.86313  0.21122  1.0000
  H   H752      1.0  0.27192  0.95782  0.23842  1.0000
  C   C447      1.0  0.25549  0.48724  0.03703  1.0000
  H   H753      1.0  0.27511  0.02791  0.24321  1.0000
  H   H754      1.0  0.25740  0.90064  0.22610  1.0000
  H   H755      1.0  0.48705  0.42598  0.10727  1.0000
  H   H756      1.0  0.44747  0.01880  0.23394  1.0000
  H   H757      1.0  0.34176  0.77818  0.24078  1.0000
  H   H758      1.0  0.46730  0.98939  0.22132  1.0000
  H   H759      1.0  0.26427  0.05605  0.22537  1.0000
  H   H760      1.0  0.42397  0.27728  0.00990  1.0000
  H   H761      1.0  0.26160  0.46188  0.00934  1.0000
  H   H762      1.0  0.25914  0.98415  0.18076  1.0000
  H   H763      1.0  0.24643  0.36800  0.09854  1.0000
  H   H764      1.0  0.36037  0.91073  0.23466  1.0000
  S   S137      1.0  0.28651  0.84283  0.24281  1.0000
  H   H765      1.0  0.48778  0.62537  0.06176  1.0000
  N   N32       1.0  0.45063  0.08751  0.23371  1.0000
  H   H766      1.0  0.48713  0.57448  0.05174  1.0000
  C   C448      1.0  0.43685  0.10975  0.23146  1.0000
  H   H767      1.0  0.49292  0.75832  0.17272  1.0000
  H   H768      1.0  0.37303  0.86929  0.24193  1.0000
  H   H769      1.0  0.41863  0.42478  0.00445  1.0000
  H   H770      1.0  0.49001  0.57447  0.07735  1.0000
  H   H771      1.0  0.41611  0.09942  0.23690  1.0000
  C   C449      1.0  0.42554  0.08534  0.24286  1.0000
  C   C450      1.0  0.49342  0.73805  0.18730  1.0000
  H   H772      1.0  0.42676  0.04952  0.24136  1.0000
  C   C451      1.0  0.49388  0.80622  0.21552  1.0000
  H   H773      1.0  0.42902  0.35311  0.99702  1.0000
  H   H774      1.0  0.40157  0.42382  0.00110  1.0000
  H   H775      1.0  0.39255  0.34246  0.99874  1.0000
  H   H776      1.0  0.49282  0.70327  0.18472  1.0000
  H   H777      1.0  0.24480  0.45898  0.01687  1.0000
  C   C452      1.0  0.33191  0.79445  0.24542  1.0000
  S   S138      1.0  0.25058  0.93044  0.40412  1.0000
  H   H778      1.0  0.39093  0.78109  0.48853  1.0000
  S   S139      1.0  0.26876  0.83981  0.39245  1.0000
  C   C453      1.0  0.33224  0.82286  0.26235  1.0000
  Fe  Fe67      1.0  0.25607  0.95933  0.37279  1.0000
  S   S140      1.0  0.27768  0.93569  0.37391  1.0000
  H   H779      1.0  0.25296  0.83148  0.30036  1.0000
  Fe  Fe68      1.0  0.27275  0.87531  0.36155  1.0000
  S   S141      1.0  0.28555  0.83911  0.33728  1.0000
  Fe  Fe69      1.0  0.27187  0.90303  0.40474  1.0000
  S   S142      1.0  0.28377  0.89674  0.43234  1.0000
  H   H780      1.0  0.24577  0.63918  0.42580  1.0000
  H   H781      1.0  0.42613  0.93204  0.46945  1.0000
  Fe  Fe70      1.0  0.47487  0.90752  0.39031  1.0000
  C   C454      1.0  0.33950  0.88675  0.27561  1.0000
  S   S143      1.0  0.46335  0.92039  0.42007  1.0000
  Fe  Fe71      1.0  0.47381  0.93720  0.34513  1.0000
  H   H782      1.0  0.25429  0.62094  0.46151  1.0000
  S   S144      1.0  0.46023  0.97233  0.32201  1.0000
  H   H783      1.0  0.36398  0.90019  0.26025  1.0000
  H   H784      1.0  0.47108  0.06591  0.41555  1.0000
  H   H785      1.0  0.44034  0.77404  0.48002  1.0000
  C   C455      1.0  0.39836  0.80057  0.49294  1.0000
  S   S145      1.0  0.46846  0.87658  0.36513  1.0000
  S   S146      1.0  0.47857  0.97083  0.37074  1.0000
  C   C456      1.0  0.48066  0.04501  0.41499  1.0000
  C   C457      1.0  0.42054  0.92311  0.48388  1.0000
  C   C458      1.0  0.46879  0.82535  0.46712  1.0000
  C   C459      1.0  0.46953  0.84788  0.44777  1.0000
  C   C460      1.0  0.46361  0.89125  0.44425  1.0000
  C   C461      1.0  0.45727  0.91216  0.46039  1.0000
  C   C462      1.0  0.45659  0.88969  0.47974  1.0000
  H   H786      1.0  0.47324  0.79155  0.46961  1.0000
  H   H787      1.0  0.47445  0.83135  0.43555  1.0000
  H   H788      1.0  0.45272  0.94580  0.45786  1.0000
  H   H789      1.0  0.47936  0.99696  0.47554  1.0000
  C   C463      1.0  0.45274  0.93281  0.26136  1.0000
  C   C464      1.0  0.44404  0.96398  0.27072  1.0000
  C   C465      1.0  0.44639  0.97516  0.28935  1.0000
  C   C466      1.0  0.45734  0.95491  0.29906  1.0000
  C   C467      1.0  0.46589  0.92304  0.28987  1.0000
  C   C468      1.0  0.46361  0.91222  0.27115  1.0000
  H   H790      1.0  0.43545  0.97932  0.26370  1.0000
  H   H791      1.0  0.43964  0.99952  0.29639  1.0000
  H   H792      1.0  0.47433  0.90708  0.29711  1.0000
  H   H793      1.0  0.26454  0.78854  0.29058  1.0000
  H   H794      1.0  0.27147  0.77235  0.32062  1.0000
  H   H795      1.0  0.43140  0.81538  0.45475  1.0000
  H   H796      1.0  0.25451  0.67813  0.46126  1.0000
  C   C469      1.0  0.42723  0.84821  0.45921  1.0000
  H   H797      1.0  0.30408  0.92167  0.49190  1.0000
  H   H798      1.0  0.25005  0.73126  0.30302  1.0000
  C   C470      1.0  0.27963  0.99089  0.47148  1.0000
  C   C471      1.0  0.27787  0.96781  0.45542  1.0000
  C   C472      1.0  0.28555  0.92793  0.45236  1.0000
  C   C473      1.0  0.29495  0.91161  0.46585  1.0000
  C   C474      1.0  0.29672  0.93469  0.48192  1.0000
  H   H799      1.0  0.27366  0.02177  0.47344  1.0000
  H   H800      1.0  0.27060  0.98108  0.44531  1.0000
  H   H801      1.0  0.30101  0.88096  0.46371  1.0000
  H   H802      1.0  0.48097  0.02623  0.40212  1.0000
  C   C475      1.0  0.28700  0.84287  0.26892  1.0000
  C   C476      1.0  0.27785  0.87207  0.27907  1.0000
  C   C477      1.0  0.27744  0.87223  0.29981  1.0000
  C   C478      1.0  0.28615  0.84294  0.31083  1.0000
  C   C479      1.0  0.29535  0.81389  0.30065  1.0000
  C   C480      1.0  0.29576  0.81375  0.27992  1.0000
  H   H803      1.0  0.27092  0.89454  0.27087  1.0000
  H   H804      1.0  0.27027  0.89470  0.30730  1.0000
  H   H805      1.0  0.30206  0.79071  0.30896  1.0000
  H   H806      1.0  0.30261  0.79024  0.27254  1.0000
  H   H807      1.0  0.49288  0.06186  0.45872  1.0000
  H   H808      1.0  0.41214  0.78396  0.46824  1.0000
  H   H809      1.0  0.48843  0.95094  0.48803  1.0000
  N   N33       1.0  0.25140  0.75902  0.33017  1.0000
  H   H810      1.0  0.43591  0.86440  0.46170  1.0000
  H   H811      1.0  0.40391  0.90080  0.47275  1.0000
  C   C481      1.0  0.26606  0.74579  0.32918  1.0000
  H   H812      1.0  0.24787  0.69010  0.33601  1.0000
  C   C482      1.0  0.43257  0.77450  0.49255  1.0000
  C   C483      1.0  0.35349  0.84860  0.25036  1.0000
  C   C484      1.0  0.27217  0.73589  0.34915  1.0000
  C   C485      1.0  0.48149  0.01380  0.43443  1.0000
  C   C486      1.0  0.25399  0.79893  0.29462  1.0000
  C   C487      1.0  0.40763  0.81457  0.47454  1.0000
  H   H813      1.0  0.48850  0.06742  0.41250  1.0000
  C   C488      1.0  0.46559  0.05515  0.26152  1.0000
  H   H814      1.0  0.46718  0.02066  0.25771  1.0000
  N   N34       1.0  0.33944  0.86360  0.25733  1.0000
  H   H815      1.0  0.32757  0.85017  0.29950  1.0000
  H   H816      1.0  0.45170  0.90618  0.49198  1.0000
  C   C489      1.0  0.25218  0.65762  0.43304  1.0000
  H   H817      1.0  0.31705  0.93196  0.25657  1.0000
  H   H818      1.0  0.28305  0.73289  0.34622  1.0000
  H   H819      1.0  0.26950  0.76294  0.35863  1.0000
  H   H820      1.0  0.26961  0.70395  0.35733  1.0000
  H   H821      1.0  0.46547  0.05238  0.27789  1.0000
  H   H822      1.0  0.32184  0.83145  0.26776  1.0000
  H   H823      1.0  0.42451  0.09010  0.25878  1.0000
  Fe  Fe72      1.0  0.24784  0.86910  0.39045  1.0000
  H   H824      1.0  0.47775  0.03409  0.44646  1.0000
  H   H825      1.0  0.32806  0.90703  0.30230  1.0000
  H   H826      1.0  0.45034  0.10965  0.26257  1.0000
  H   H827      1.0  0.47037  0.88776  0.26420  1.0000
  N   N35       1.0  0.41804  0.84292  0.47784  1.0000
  C   C490      1.0  0.41139  0.88700  0.48311  1.0000
  C   C491      1.0  0.45226  0.07833  0.25555  1.0000
  C   C492      1.0  0.46217  0.84582  0.48318  1.0000
  H   H828      1.0  0.31791  0.89255  0.28507  1.0000
  S   S147      1.0  0.25153  0.90072  0.35907  1.0000
  H   H829      1.0  0.25623  0.82380  0.33435  1.0000
  C   C493      1.0  0.42118  0.87385  0.44088  1.0000
  H   H830      1.0  0.44494  0.05653  0.26319  1.0000
  H   H831      1.0  0.35773  0.82171  0.26114  1.0000
  H   H832      1.0  0.47402  0.99010  0.43479  1.0000
  H   H833      1.0  0.41369  0.85582  0.43577  1.0000
  C   C494      1.0  0.32750  0.88385  0.29125  1.0000
  H   H834      1.0  0.42546  0.75077  0.49128  1.0000
  C   C495      1.0  0.24922  0.65309  0.45572  1.0000
  H   H835      1.0  0.40119  0.83216  0.46333  1.0000
  H   H836      1.0  0.49064  0.93992  0.41954  1.0000
  C   C496      1.0  0.28906  0.97469  0.48490  1.0000
  H   H837      1.0  0.24625  0.75621  0.39011  1.0000
  H   H838      1.0  0.42910  0.87721  0.42855  1.0000
  H   H839      1.0  0.26879  0.71610  0.32115  1.0000
  H   H840      1.0  0.34080  0.92244  0.27145  1.0000
  H   H841      1.0  0.34805  0.87284  0.28401  1.0000
  C   C497      1.0  0.36307  0.88473  0.24675  1.0000
  H   H842      1.0  0.33663  0.80079  0.27472  1.0000
  H   H843      1.0  0.41692  0.90784  0.44330  1.0000
  H   H844      1.0  0.24915  0.80355  0.28065  1.0000
  H   H845      1.0  0.41447  0.95365  0.48791  1.0000
  H   H846      1.0  0.25120  0.69294  0.42672  1.0000
  H   H847      1.0  0.26857  0.84387  0.48099  1.0000
  H   H848      1.0  0.24883  0.79481  0.35588  1.0000
  H   H849      1.0  0.48677  0.93284  0.45516  1.0000
  Fe  Fe73      1.0  0.48988  0.85132  0.35924  1.0000
  H   H850      1.0  0.24967  0.60449  0.49343  1.0000
  S   S148      1.0  0.25080  0.02934  0.35814  1.0000
  H   H851      1.0  0.26252  0.64433  0.42919  1.0000
  C   C498      1.0  0.24756  0.76339  0.30929  1.0000
  C   C499      1.0  0.42590  0.82176  0.49458  1.0000
  C   C500      1.0  0.24843  0.80151  0.33957  1.0000
  H   H852      1.0  0.24800  0.71664  0.35757  1.0000
  C   C501      1.0  0.49370  0.95759  0.45642  1.0000
  H   H853      1.0  0.47397  0.07380  0.25535  1.0000
  C   C502      1.0  0.48923  0.97817  0.47571  1.0000
  H   H854      1.0  0.32557  0.76753  0.25064  1.0000
  H   H855      1.0  0.25789  0.03208  0.24887  1.0000
  H   H856      1.0  0.49142  0.77251  0.24610  1.0000
  H   H857      1.0  0.31266  0.88390  0.24659  1.0000
  H   H858      1.0  0.42745  0.91347  0.49537  1.0000
  C   C503      1.0  0.24482  0.72185  0.34241  1.0000
  Fe  Fe74      1.0  0.29984  0.31306  0.71706  1.0000
  S   S149      1.0  0.30291  0.38032  0.70072  1.0000
  H   H859      1.0  0.46897  0.43010  0.59340  1.0000
  Fe  Fe75      1.0  0.30616  0.26648  0.67761  1.0000
  S   S150      1.0  0.30962  0.33151  0.65968  1.0000
  S   S151      1.0  0.30629  0.19919  0.66474  1.0000
  Fe  Fe76      1.0  0.32084  0.34508  0.68478  1.0000
  S   S152      1.0  0.33997  0.37783  0.67495  1.0000
  Fe  Fe77      1.0  0.29172  0.36121  0.67715  1.0000
  S   S153      1.0  0.27313  0.39647  0.66442  1.0000
  S   S154      1.0  0.31831  0.27805  0.70211  1.0000
  S   S155      1.0  0.28774  0.29570  0.69411  1.0000
  C   C504      1.0  0.43765  0.88044  0.62906  1.0000
  C   C505      1.0  0.47588  0.90217  0.64795  1.0000
  Fe  Fe78      1.0  0.32553  0.97818  0.55722  1.0000
  S   S156      1.0  0.31435  0.04064  0.54381  1.0000
  S   S157      1.0  0.34750  0.97411  0.56075  1.0000
  Fe  Fe79      1.0  0.30010  0.93987  0.57422  1.0000
  S   S158      1.0  0.28730  0.00053  0.56285  1.0000
  S   S159      1.0  0.29509  0.87337  0.59016  1.0000
  Fe  Fe80      1.0  0.30060  0.99595  0.53439  1.0000
  Fe  Fe81      1.0  0.30205  0.04054  0.57331  1.0000
  S   S160      1.0  0.29885  0.10797  0.58670  1.0000
  S   S161      1.0  0.31286  0.93396  0.54565  1.0000
  S   S162      1.0  0.31367  0.97953  0.58672  1.0000
  Fe  Fe82      1.0  0.43984  0.42487  0.67740  1.0000
  S   S163      1.0  0.44416  0.49150  0.68406  1.0000
  S   S164      1.0  0.45531  0.39132  0.65638  1.0000
  Fe  Fe83      1.0  0.41208  0.43406  0.69865  1.0000
  S   S165      1.0  0.41453  0.50154  0.70677  1.0000
  S   S166      1.0  0.39441  0.39533  0.70995  1.0000
  Fe  Fe84      1.0  0.42391  0.51610  0.67553  1.0000
  S   S167      1.0  0.41768  0.57555  0.65320  1.0000
  Fe  Fe85      1.0  0.43476  0.47175  0.71482  1.0000
  H   H860      1.0  0.26158  0.46484  0.69638  1.0000
  S   S168      1.0  0.42005  0.45029  0.66707  1.0000
  S   S169      1.0  0.43182  0.40332  0.70857  1.0000
  Fe  Fe86      1.0  0.44769  0.83073  0.53486  1.0000
  S   S170      1.0  0.43334  0.89133  0.53708  1.0000
  H   H861      1.0  0.24906  0.30551  0.61988  1.0000
  Fe  Fe87      1.0  0.43938  0.79055  0.57801  1.0000
  S   S171      1.0  0.42440  0.84904  0.58275  1.0000
  S   S172      1.0  0.44545  0.73664  0.60305  1.0000
  Fe  Fe88      1.0  0.41901  0.84467  0.55205  1.0000
  S   S173      1.0  0.39891  0.84365  0.54082  1.0000
  Fe  Fe89      1.0  0.44007  0.89078  0.56746  1.0000
  S   S174      1.0  0.44324  0.95479  0.57922  1.0000
  S   S175      1.0  0.43307  0.78331  0.54820  1.0000
  S   S176      1.0  0.45536  0.83303  0.56436  1.0000
  C   C506      1.0  0.45828  0.96874  0.58600  1.0000
  C   C507      1.0  0.45843  0.00880  0.59393  1.0000
  C   C508      1.0  0.46999  0.01996  0.60057  1.0000
  C   C509      1.0  0.48148  0.99073  0.59966  1.0000
  C   C510      1.0  0.46990  0.94026  0.58440  1.0000
  H   H862      1.0  0.44950  0.03117  0.59516  1.0000
  H   H863      1.0  0.46992  0.05074  0.60680  1.0000
  H   H864      1.0  0.46999  0.90971  0.57801  1.0000
  C   C511      1.0  0.43729  0.69315  0.61733  1.0000
  C   C512      1.0  0.44360  0.66706  0.63278  1.0000
  C   C513      1.0  0.43769  0.63161  0.64423  1.0000
  C   C514      1.0  0.42537  0.62154  0.64026  1.0000
  C   C515      1.0  0.41902  0.64788  0.62493  1.0000
  C   C516      1.0  0.42492  0.68337  0.61353  1.0000
  H   H865      1.0  0.45317  0.67421  0.63588  1.0000
  H   H866      1.0  0.44269  0.61191  0.65600  1.0000
  H   H867      1.0  0.40949  0.64054  0.62173  1.0000
  H   H868      1.0  0.41991  0.70301  0.60175  1.0000
  C   C517      1.0  0.45981  0.33383  0.65631  1.0000
  C   C518      1.0  0.45415  0.30266  0.67036  1.0000
  C   C519      1.0  0.45789  0.25716  0.66952  1.0000
  C   C520      1.0  0.46738  0.24251  0.65476  1.0000
  C   C521      1.0  0.47319  0.27371  0.64093  1.0000
  C   C522      1.0  0.46937  0.31917  0.64167  1.0000
  H   H869      1.0  0.44699  0.31364  0.68193  1.0000
  C   C523      1.0  0.48795  0.13339  0.54710  1.0000
  H   H870      1.0  0.48052  0.26281  0.62953  1.0000
  H   H871      1.0  0.47385  0.34309  0.63080  1.0000
  C   C524      1.0  0.36156  0.93713  0.55487  1.0000
  C   C525      1.0  0.36156  0.90530  0.54193  1.0000
  C   C526      1.0  0.37309  0.87699  0.53774  1.0000
  C   C527      1.0  0.38469  0.88017  0.54645  1.0000
  C   C528      1.0  0.38465  0.91191  0.55941  1.0000
  C   C529      1.0  0.37315  0.94022  0.56357  1.0000
  H   H872      1.0  0.35277  0.90290  0.53494  1.0000
  H   H873      1.0  0.37304  0.85259  0.52765  1.0000
  H   H874      1.0  0.39349  0.91468  0.56622  1.0000
  H   H875      1.0  0.37326  0.96456  0.57367  1.0000
  C   C530      1.0  0.25453  0.82124  0.59611  1.0000
  C   C531      1.0  0.26594  0.79217  0.59842  1.0000
  C   C532      1.0  0.27828  0.80870  0.59661  1.0000
  C   C533      1.0  0.27935  0.85429  0.59219  1.0000
  C   C534      1.0  0.26794  0.88336  0.58980  1.0000
  C   C535      1.0  0.25558  0.86688  0.59192  1.0000
  H   H876      1.0  0.28703  0.78595  0.59859  1.0000
  H   H877      1.0  0.26862  0.91858  0.58671  1.0000
  C   C536      1.0  0.26601  0.88342  0.50554  1.0000
  C   C537      1.0  0.30473  0.17437  0.64264  1.0000
  C   C538      1.0  0.30436  0.19870  0.62388  1.0000
  C   C539      1.0  0.30258  0.17785  0.60713  1.0000
  C   C540      1.0  0.30144  0.13202  0.60857  1.0000
  C   C541      1.0  0.30217  0.10746  0.62722  1.0000
  C   C542      1.0  0.30376  0.12846  0.64403  1.0000
  H   H878      1.0  0.30539  0.23372  0.62229  1.0000
  H   H879      1.0  0.30211  0.19745  0.59287  1.0000
  H   H880      1.0  0.30130  0.07232  0.62882  1.0000
  H   H881      1.0  0.30409  0.10893  0.65833  1.0000
  C   C543      1.0  0.35465  0.38405  0.68571  1.0000
  C   C544      1.0  0.35800  0.36042  0.70367  1.0000
  C   C545      1.0  0.37004  0.36509  0.71102  1.0000
  C   C546      1.0  0.37889  0.39360  0.70064  1.0000
  C   C547      1.0  0.37544  0.41784  0.68287  1.0000
  C   C548      1.0  0.36348  0.41275  0.67541  1.0000
  H   H882      1.0  0.35136  0.33821  0.71179  1.0000
  H   H883      1.0  0.37253  0.34618  0.72480  1.0000
  H   H884      1.0  0.38206  0.44002  0.67469  1.0000
  H   H885      1.0  0.36101  0.43129  0.66153  1.0000
  C   C549      1.0  0.27155  0.45065  0.65185  1.0000
  C   C550      1.0  0.28162  0.47812  0.65022  1.0000
  C   C551      1.0  0.27981  0.52154  0.64061  1.0000
  C   C552      1.0  0.26792  0.53793  0.63263  1.0000
  C   C553      1.0  0.25787  0.51031  0.63408  1.0000
  C   C554      1.0  0.25970  0.46682  0.64367  1.0000
  H   H886      1.0  0.29079  0.46601  0.65644  1.0000
  H   H887      1.0  0.28765  0.54264  0.63944  1.0000
  H   H888      1.0  0.25054  0.96228  0.53525  1.0000
  C   C555      1.0  0.29021  0.84482  0.52673  1.0000
  H   H889      1.0  0.35299  0.04696  0.58768  1.0000
  H   H890      1.0  0.26205  0.62643  0.69081  1.0000
  H   H891      1.0  0.27693  0.21958  0.67121  1.0000
  H   H892      1.0  0.26709  0.26735  0.60118  1.0000
  C   C556      1.0  0.34962  0.09438  0.55180  1.0000
  H   H893      1.0  0.34651  0.16170  0.58862  1.0000
  H   H894      1.0  0.47539  0.76396  0.62425  1.0000
  S   S177      1.0  0.47167  0.18504  0.65427  1.0000
  H   H895      1.0  0.24904  0.36540  0.63989  1.0000
  Fe  Fe90      1.0  0.48880  0.15540  0.63446  1.0000
  H   H896      1.0  0.36397  0.12615  0.60373  1.0000
  H   H897      1.0  0.46658  0.79083  0.60346  1.0000
  H   H898      1.0  0.27325  0.80979  0.53358  1.0000
  H   H899      1.0  0.25397  0.32839  0.66112  1.0000
  C   C557      1.0  0.36389  0.07254  0.54973  1.0000
  H   H900      1.0  0.45566  0.76139  0.63919  1.0000
  H   H901      1.0  0.37101  0.09650  0.55069  1.0000
  S   S178      1.0  0.26603  0.59316  0.62127  1.0000
  H   H902      1.0  0.33002  0.16190  0.53935  1.0000
  H   H903      1.0  0.36597  0.06114  0.53483  1.0000
  H   H904      1.0  0.48566  0.20162  0.71527  1.0000
  C   C558      1.0  0.25240  0.87393  0.53773  1.0000
  H   H905      1.0  0.24871  0.52249  0.62788  1.0000
  C   C559      1.0  0.25380  0.29598  0.63392  1.0000
  H   H906      1.0  0.25523  0.52663  0.67202  1.0000
  H   H907      1.0  0.46948  0.80747  0.65725  1.0000
  H   H908      1.0  0.25684  0.66515  0.67105  1.0000
  N   N36       1.0  0.34442  0.10827  0.57177  1.0000
  N   N37       1.0  0.26602  0.87969  0.52771  1.0000
  H   H909      1.0  0.32616  0.14080  0.58443  1.0000
  H   H910      1.0  0.40364  0.77910  0.50449  1.0000
  H   H911      1.0  0.34322  0.07117  0.54726  1.0000
  H   H912      1.0  0.29621  0.81438  0.53260  1.0000
  H   H913      1.0  0.33520  0.19640  0.55628  1.0000
  H   H914      1.0  0.47750  0.87605  0.66048  1.0000
  H   H915      1.0  0.36882  0.08787  0.58573  1.0000
  H   H916      1.0  0.26443  0.99295  0.53310  1.0000
  C   C560      1.0  0.35253  0.14132  0.57787  1.0000
  H   H917      1.0  0.24964  0.26511  0.64044  1.0000
  C   C561      1.0  0.48980  0.19669  0.69990  1.0000
  N   N38       1.0  0.34022  0.82606  0.59260  1.0000
  C   C562      1.0  0.34947  0.85621  0.59828  1.0000
  C   C563      1.0  0.34857  0.78470  0.58717  1.0000
  C   C564      1.0  0.33087  0.81472  0.61058  1.0000
  C   C565      1.0  0.33282  0.85027  0.57585  1.0000
  C   C566      1.0  0.34303  0.89885  0.60662  1.0000
  C   C567      1.0  0.35906  0.79158  0.56950  1.0000
  C   C568      1.0  0.32118  0.78102  0.60887  1.0000
  C   C569      1.0  0.32672  0.82185  0.56273  1.0000
  H   H918      1.0  0.35592  0.83829  0.60946  1.0000
  H   H919      1.0  0.35623  0.86740  0.58530  1.0000
  H   H920      1.0  0.34266  0.75927  0.58373  1.0000
  H   H921      1.0  0.35378  0.76826  0.60005  1.0000
  H   H922      1.0  0.33646  0.80180  0.62356  1.0000
  H   H923      1.0  0.32454  0.84482  0.61472  1.0000
  H   H924      1.0  0.32475  0.87413  0.58161  1.0000
  H   H925      1.0  0.33936  0.87120  0.56563  1.0000
  H   H926      1.0  0.35078  0.92062  0.60766  1.0000
  H   H927      1.0  0.33599  0.91786  0.59680  1.0000
  H   H928      1.0  0.33814  0.89187  0.62175  1.0000
  H   H929      1.0  0.35491  0.81100  0.55641  1.0000
  H   H930      1.0  0.36737  0.80772  0.57348  1.0000
  H   H931      1.0  0.36331  0.75885  0.56508  1.0000
  H   H932      1.0  0.31409  0.79394  0.59791  1.0000
  H   H933      1.0  0.31517  0.77557  0.62328  1.0000
  H   H934      1.0  0.32612  0.74820  0.60579  1.0000
  H   H935      1.0  0.31645  0.83600  0.56066  1.0000
  H   H936      1.0  0.32617  0.78684  0.56858  1.0000
  H   H937      1.0  0.33203  0.82366  0.54770  1.0000
  H   H938      1.0  0.37333  0.14266  0.58134  1.0000
  H   H939      1.0  0.31840  0.18630  0.55692  1.0000
  H   H940      1.0  0.32416  0.10555  0.56650  1.0000
  H   H941      1.0  0.26228  0.22213  0.65949  1.0000
  C   C570      1.0  0.36524  0.12257  0.58767  1.0000
  C   C571      1.0  0.26908  0.24284  0.66442  1.0000
  C   C572      1.0  0.25423  0.53315  0.68766  1.0000
  H   H942      1.0  0.47823  0.28402  0.69269  1.0000
  H   H943      1.0  0.45495  0.90948  0.64816  1.0000
  H   H944      1.0  0.44831  0.82398  0.61679  1.0000
  H   H945      1.0  0.45312  0.87502  0.60550  1.0000
  C   C573      1.0  0.45188  0.78191  0.65110  1.0000
  C   C574      1.0  0.27584  0.84288  0.53564  1.0000
  H   H946      1.0  0.49244  0.13927  0.56038  1.0000
  H   H947      1.0  0.24477  0.89376  0.52898  1.0000
  C   C575      1.0  0.33799  0.07599  0.60781  1.0000
  H   H948      1.0  0.32719  0.08436  0.60873  1.0000
  H   H949      1.0  0.33982  0.04507  0.61795  1.0000
  H   H950      1.0  0.34256  0.10226  0.61343  1.0000
  N   N39       1.0  0.26854  0.28913  0.62967  1.0000
  C   C576      1.0  0.27291  0.33274  0.61984  1.0000
  C   C577      1.0  0.24859  0.33153  0.64774  1.0000
  C   C578      1.0  0.27198  0.25590  0.61497  1.0000
  C   C579      1.0  0.27558  0.27535  0.64810  1.0000
  C   C580      1.0  0.28773  0.33320  0.61322  1.0000
  C   C581      1.0  0.25304  0.48861  0.70068  1.0000
  H   H951      1.0  0.49023  0.92808  0.59072  1.0000
  H   H952      1.0  0.44135  0.79292  0.64953  1.0000
  H   H953      1.0  0.26748  0.34492  0.60662  1.0000
  H   H954      1.0  0.27056  0.35882  0.62991  1.0000
  H   H955      1.0  0.26405  0.26078  0.67669  1.0000
  H   H956      1.0  0.48746  0.99444  0.55278  1.0000
  H   H957      1.0  0.26391  0.54374  0.68987  1.0000
  H   H958      1.0  0.28267  0.25271  0.61035  1.0000
  H   H959      1.0  0.28576  0.26047  0.64423  1.0000
  H   H960      1.0  0.27670  0.30507  0.65532  1.0000
  H   H961      1.0  0.28988  0.36809  0.60915  1.0000
  H   H962      1.0  0.29398  0.31909  0.62518  1.0000
  H   H963      1.0  0.29068  0.31604  0.59988  1.0000
  C   C582      1.0  0.27001  0.92240  0.53291  1.0000
  H   H964      1.0  0.25185  0.44580  0.64490  1.0000
  H   H965      1.0  0.24679  0.88963  0.59029  1.0000
  H   H966      1.0  0.41977  0.82101  0.50900  1.0000
  H   H967      1.0  0.47723  0.14297  0.54990  1.0000
  C   C583      1.0  0.49110  0.14643  0.69842  1.0000
  H   H968      1.0  0.27491  0.19230  0.63374  1.0000
  H   H969      1.0  0.39290  0.82945  0.49947  1.0000
  H   H970      1.0  0.26025  0.97283  0.51164  1.0000
  H   H971      1.0  0.27573  0.84220  0.55197  1.0000
  H   H972      1.0  0.27125  0.91996  0.54899  1.0000
  H   H973      1.0  0.29459  0.87302  0.53116  1.0000
  H   H974      1.0  0.48303  0.83297  0.62957  1.0000
  H   H975      1.0  0.27972  0.92937  0.52518  1.0000
  H   H976      1.0  0.40225  0.44354  0.74160  1.0000
  H   H977      1.0  0.48394  0.78750  0.60230  1.0000
  C   C584      1.0  0.45057  0.85652  0.62023  1.0000
  H   H978      1.0  0.34941  0.12323  0.54020  1.0000
  H   H979      1.0  0.43796  0.91689  0.62672  1.0000
  H   H980      1.0  0.47481  0.93476  0.65381  1.0000
  H   H981      1.0  0.45231  0.75992  0.66528  1.0000
  C   C585      1.0  0.26059  0.96450  0.52784  1.0000
  H   H982      1.0  0.47657  0.86179  0.60797  1.0000
  C   C586      1.0  0.47442  0.83663  0.62074  1.0000
  H   H983      1.0  0.48200  0.21134  0.69022  1.0000
  N   N40       1.0  0.40513  0.29623  0.67050  1.0000
  C   C587      1.0  0.39354  0.32096  0.66058  1.0000
  C   C588      1.0  0.41557  0.32758  0.66877  1.0000
  C   C589      1.0  0.40061  0.28330  0.69200  1.0000
  C   C590      1.0  0.40961  0.25574  0.66016  1.0000
  C   C591      1.0  0.38068  0.29845  0.66369  1.0000
  C   C592      1.0  0.42130  0.34258  0.64755  1.0000
  C   C593      1.0  0.41114  0.27556  0.70688  1.0000
  C   C594      1.0  0.42231  0.22786  0.66632  1.0000
  H   H984      1.0  0.39110  0.35422  0.66570  1.0000
  H   H985      1.0  0.39591  0.32726  0.64430  1.0000
  H   H986      1.0  0.42409  0.31354  0.67696  1.0000
  H   H987      1.0  0.41164  0.35781  0.67587  1.0000
  H   H988      1.0  0.39327  0.30944  0.69768  1.0000
  H   H989      1.0  0.39539  0.25300  0.69375  1.0000
  H   H990      1.0  0.40190  0.23251  0.66257  1.0000
  H   H991      1.0  0.41068  0.26394  0.64378  1.0000
  H   H992      1.0  0.38186  0.26594  0.65789  1.0000
  H   H993      1.0  0.37660  0.29483  0.67941  1.0000
  H   H994      1.0  0.37307  0.31988  0.65549  1.0000
  H   H995      1.0  0.42587  0.31423  0.63975  1.0000
  H   H996      1.0  0.41388  0.36304  0.63876  1.0000
  H   H997      1.0  0.42926  0.36369  0.64833  1.0000
  H   H998      1.0  0.40662  0.26177  0.72149  1.0000
  H   H999      1.0  0.41464  0.30735  0.70917  1.0000
  H   H1000     1.0  0.41960  0.25197  0.70257  1.0000
  H   H1001     1.0  0.42015  0.20287  0.67913  1.0000
  H   H1002     1.0  0.42989  0.24772  0.66966  1.0000
  H   H1003     1.0  0.42703  0.21032  0.65372  1.0000
  N   N41       1.0  0.44994  0.52354  0.60841  1.0000
  C   C595      1.0  0.44979  0.57219  0.60094  1.0000
  C   C596      1.0  0.45247  0.51828  0.62994  1.0000
  C   C597      1.0  0.43643  0.51049  0.60684  1.0000
  C   C598      1.0  0.46035  0.49784  0.59585  1.0000
  C   C599      1.0  0.44624  0.58616  0.57954  1.0000
  C   C600      1.0  0.46520  0.53550  0.63446  1.0000
  C   C601      1.0  0.43421  0.46189  0.61368  1.0000
  C   C602      1.0  0.46611  0.45195  0.60526  1.0000
  H   H1004     1.0  0.44272  0.59221  0.61051  1.0000
  H   H1005     1.0  0.45954  0.58401  0.60158  1.0000
  H   H1006     1.0  0.45279  0.48342  0.63666  1.0000
  H   H1007     1.0  0.44418  0.53567  0.63875  1.0000
  H   H1008     1.0  0.42884  0.53152  0.61538  1.0000
  H   H1009     1.0  0.43389  0.51622  0.59129  1.0000
  H   H1010     1.0  0.45655  0.49306  0.58172  1.0000
  H   H1011     1.0  0.46894  0.51722  0.59167  1.0000
  H   H1012     1.0  0.45216  0.56594  0.56879  1.0000
  H   H1013     1.0  0.43559  0.58554  0.57835  1.0000
  H   H1014     1.0  0.44827  0.62111  0.57515  1.0000
  H   H1015     1.0  0.46729  0.52252  0.64985  1.0000
  H   H1016     1.0  0.47382  0.52464  0.62447  1.0000
  H   H1017     1.0  0.46404  0.57216  0.63371  1.0000
  H   H1018     1.0  0.43969  0.43952  0.60341  1.0000
  H   H1019     1.0  0.42361  0.45814  0.61348  1.0000
  H   H1020     1.0  0.43664  0.45100  0.62901  1.0000
  H   H1021     1.0  0.48448  0.08057  0.53104  1.0000
  H   H1022     1.0  0.45937  0.43428  0.61625  1.0000
  H   H1023     1.0  0.47536  0.45448  0.61185  1.0000
  H   H1024     1.0  0.26526  0.75696  0.60170  1.0000
  H   H1025     1.0  0.42932  0.87337  0.62134  1.0000
  C   C603      1.0  0.48137  0.95082  0.59157  1.0000
  H   H1026     1.0  0.45468  0.83968  0.66384  1.0000
  C   C604      1.0  0.34347  0.06758  0.58660  1.0000
  N   N42       1.0  0.46195  0.85202  0.63279  1.0000
  S   S179      1.0  0.48851  0.13231  0.60455  1.0000
  H   H1027     1.0  0.24971  0.80860  0.52879  1.0000
  C   C605      1.0  0.32871  0.17091  0.55468  1.0000
  H   H1028     1.0  0.26626  0.61369  0.66584  1.0000
  H   H1029     1.0  0.25821  0.20610  0.62651  1.0000
  S   S180      1.0  0.46107  0.81509  0.50709  1.0000
  H   H1030     1.0  0.46330  0.92236  0.62458  1.0000
  H   H1031     1.0  0.43552  0.86969  0.64504  1.0000
  H   H1032     1.0  0.45349  0.23314  0.68041  1.0000
  C   C606      1.0  0.45987  0.82135  0.65174  1.0000
  H   H1033     1.0  0.35537  0.16523  0.56489  1.0000
  C   C607      1.0  0.47482  0.79214  0.61241  1.0000
  C   C608      1.0  0.33054  0.12981  0.57008  1.0000
  H   H1034     1.0  0.36566  0.04278  0.56044  1.0000
  C   C609      1.0  0.46343  0.89764  0.63796  1.0000
  H   H1035     1.0  0.33696  0.04532  0.58168  1.0000
  C   C610      1.0  0.25842  0.62915  0.67605  1.0000
  H   H1036     1.0  0.48542  0.06574  0.55689  1.0000
  H   H1037     1.0  0.27135  0.18814  0.60932  1.0000
  C   C611      1.0  0.26878  0.20823  0.62188  1.0000
  H   H1038     1.0  0.48471  0.90210  0.63708  1.0000
  Fe  Fe91      1.0  0.24658  0.63200  0.61425  1.0000
  S   S181      1.0  0.44374  0.49172  0.74143  1.0000
  C   C612      1.0  0.49025  0.08420  0.54352  1.0000
  H   H1039     1.0  0.48781  0.32954  0.68957  1.0000
  H   H1040     1.0  0.48990  0.29230  0.67116  1.0000
  C   C613      1.0  0.48810  0.29416  0.68729  1.0000
  H   H1041     1.0  0.25111  0.88693  0.55236  1.0000
  H   H1042     1.0  0.25363  0.58309  0.71564  1.0000
  H   H1043     1.0  0.25819  0.90922  0.50037  1.0000
  S   S182      1.0  0.29069  0.00568  0.50503  1.0000
  H   H1044     1.0  0.40581  0.88314  0.49798  1.0000
  H   H1045     1.0  0.43760  0.76214  0.50605  1.0000
  H   H1046     1.0  0.27510  0.89613  0.49790  1.0000
  H   H1047     1.0  0.25395  0.80682  0.55391  1.0000
  C   C614      1.0  0.24546  0.60833  0.67600  1.0000
  H   H1048     1.0  0.26852  0.81064  0.50385  1.0000
  H   H1049     1.0  0.29119  0.84602  0.51039  1.0000
  H   H1050     1.0  0.48112  0.13523  0.69993  1.0000
  H   H1051     1.0  0.49157  0.15585  0.53418  1.0000
  C   C615      1.0  0.24844  0.82635  0.54204  1.0000
  H   H1052     1.0  0.24568  0.59860  0.66084  1.0000
  H   H1053     1.0  0.25334  0.49182  0.71656  1.0000
  H   H1054     1.0  0.43392  0.84184  0.49630  1.0000
  C   C616      1.0  0.26383  0.84170  0.49643  1.0000
  H   H1055     1.0  0.25318  0.83928  0.49600  1.0000
  H   H1056     1.0  0.48061  0.59936  0.89477  1.0000
  Fe  Fe92      1.0  0.27124  0.37985  0.86112  1.0000
  S   S183      1.0  0.25289  0.24684  0.90187  1.0000
  S   S184      1.0  0.28339  0.38851  0.83071  1.0000
  Fe  Fe93      1.0  0.26973  0.39350  0.90639  1.0000
  H   H1057     1.0  0.38871  0.44956  0.81817  1.0000
  S   S185      1.0  0.28191  0.39786  0.93277  1.0000
  Fe  Fe94      1.0  0.25610  0.31923  0.89285  1.0000
  H   H1058     1.0  0.24911  0.57048  0.79823  1.0000
  H   H1059     1.0  0.26774  0.48022  0.83492  1.0000
  H   H1060     1.0  0.25829  0.19188  0.87141  1.0000
  S   S186      1.0  0.27700  0.33628  0.88866  1.0000
  S   S187      1.0  0.26567  0.43910  0.87826  1.0000
  H   H1061     1.0  0.28166  0.22132  0.81621  1.0000
  S   S188      1.0  0.47232  0.47195  0.86906  1.0000
  H   H1062     1.0  0.25238  0.41211  0.82310  1.0000
  H   H1063     1.0  0.43636  0.35449  0.96261  1.0000
  S   S189      1.0  0.47354  0.36534  0.87658  1.0000
  Fe  Fe95      1.0  0.47427  0.41661  0.84971  1.0000
  S   S190      1.0  0.46204  0.40120  0.82534  1.0000
  Fe  Fe96      1.0  0.47342  0.42008  0.89562  1.0000
  S   S191      1.0  0.45984  0.43593  0.92333  1.0000
  C   C617      1.0  0.28413  0.15933  0.87275  1.0000
  H   H1064     1.0  0.41498  0.51918  0.74881  1.0000
  C   C618      1.0  0.45960  0.40698  0.94761  1.0000
  C   C619      1.0  0.46632  0.36491  0.95163  1.0000
  C   C620      1.0  0.46519  0.34222  0.97093  1.0000
  H   H1065     1.0  0.40778  0.38962  0.75223  1.0000
  C   C621      1.0  0.45101  0.40393  0.98260  1.0000
  C   C622      1.0  0.45202  0.42640  0.96325  1.0000
  H   H1066     1.0  0.47220  0.34945  0.93981  1.0000
  H   H1067     1.0  0.47026  0.30937  0.97376  1.0000
  H   H1068     1.0  0.38626  0.48469  0.77862  1.0000
  H   H1069     1.0  0.44678  0.45890  0.96032  1.0000
  C   C623      1.0  0.45815  0.42608  0.80130  1.0000
  C   C624      1.0  0.45984  0.47022  0.79441  1.0000
  C   C625      1.0  0.45570  0.48918  0.77587  1.0000
  C   C626      1.0  0.44998  0.46430  0.76375  1.0000
  C   C627      1.0  0.44860  0.41977  0.77040  1.0000
  C   C628      1.0  0.45257  0.40098  0.78908  1.0000
  H   H1070     1.0  0.46407  0.49011  0.80357  1.0000
  H   H1071     1.0  0.42970  0.48030  0.81252  1.0000
  H   H1072     1.0  0.46410  0.25037  0.79487  1.0000
  H   H1073     1.0  0.45115  0.36686  0.79423  1.0000
  C   C629      1.0  0.41100  0.43424  0.99395  1.0000
  C   C630      1.0  0.47095  0.51175  0.96311  1.0000
  C   C631      1.0  0.27462  0.24934  0.85299  1.0000
  H   H1074     1.0  0.40884  0.43359  0.96295  1.0000
  C   C632      1.0  0.48700  0.29707  0.83179  1.0000
  C   C633      1.0  0.24651  0.22939  0.85009  1.0000
  H   H1075     1.0  0.40401  0.31795  0.96622  1.0000
  H   H1076     1.0  0.46676  0.58533  0.92685  1.0000
  H   H1077     1.0  0.48964  0.53789  0.96289  1.0000
  H   H1078     1.0  0.42718  0.41444  0.93737  1.0000
  H   H1079     1.0  0.47937  0.27393  0.86177  1.0000
  C   C634      1.0  0.27846  0.48906  0.97318  1.0000
  C   C635      1.0  0.27657  0.46758  0.95667  1.0000
  C   C636      1.0  0.28373  0.42687  0.95347  1.0000
  C   C637      1.0  0.29272  0.40814  0.96722  1.0000
  C   C638      1.0  0.29443  0.42923  0.98392  1.0000
  C   C639      1.0  0.41743  0.49839  0.78833  1.0000
  H   H1080     1.0  0.26968  0.48280  0.94631  1.0000
  H   H1081     1.0  0.29838  0.37683  0.96497  1.0000
  H   H1082     1.0  0.26542  0.24719  0.81885  1.0000
  C   C640      1.0  0.28788  0.32725  0.77121  1.0000
  C   C641      1.0  0.27840  0.31395  0.78658  1.0000
  C   C642      1.0  0.27672  0.33280  0.80465  1.0000
  C   C643      1.0  0.28470  0.36464  0.80787  1.0000
  C   C644      1.0  0.29402  0.37853  0.79240  1.0000
  C   C645      1.0  0.29557  0.36023  0.77420  1.0000
  H   H1083     1.0  0.27227  0.28896  0.78439  1.0000
  H   H1084     1.0  0.26922  0.32291  0.81606  1.0000
  H   H1085     1.0  0.30023  0.40334  0.79456  1.0000
  H   H1086     1.0  0.27915  0.13856  0.84614  1.0000
  C   C646      1.0  0.42189  0.29101  0.99463  1.0000
  N   N43       1.0  0.27163  0.20772  0.84550  1.0000
  C   C647      1.0  0.48093  0.54438  0.95419  1.0000
  H   H1087     1.0  0.28713  0.18784  0.87899  1.0000
  H   H1088     1.0  0.39946  0.58787  0.74947  1.0000
  H   H1089     1.0  0.46658  0.52964  0.92318  1.0000
  S   S192      1.0  0.28993  0.30034  0.74910  1.0000
  H   H1090     1.0  0.27295  0.24685  0.86939  1.0000
  H   H1091     1.0  0.44425  0.40002  0.76135  1.0000
  C   C648      1.0  0.28863  0.26286  0.84701  1.0000
  H   H1092     1.0  0.42649  0.50531  0.77856  1.0000
  H   H1093     1.0  0.25176  0.38499  0.79419  1.0000
  H   H1094     1.0  0.40019  0.37221  0.95461  1.0000
  C   C649      1.0  0.25428  0.41228  0.78267  1.0000
  H   H1095     1.0  0.26137  0.41457  0.98723  1.0000
  H   H1096     1.0  0.48913  0.37734  0.81259  1.0000
  H   H1097     1.0  0.40157  0.41702  0.80556  1.0000
  H   H1098     1.0  0.48313  0.47541  0.92894  1.0000
  C   C650      1.0  0.47588  0.56827  0.89856  1.0000
  H   H1099     1.0  0.26414  0.50769  0.79156  1.0000
  H   H1100     1.0  0.41309  0.27656  0.99144  1.0000
  H   H1101     1.0  0.48047  0.63472  0.92796  1.0000
  C   C651      1.0  0.39429  0.48186  0.78859  1.0000
  H   H1102     1.0  0.39292  0.57026  0.77404  1.0000
  C   C652      1.0  0.49084  0.49841  0.92785  1.0000
  C   C653      1.0  0.39258  0.43978  0.80339  1.0000
  H   H1103     1.0  0.26497  0.41519  0.78154  1.0000
  H   H1104     1.0  0.29623  0.23895  0.85389  1.0000
  H   H1105     1.0  0.28934  0.29517  0.85234  1.0000
  H   H1106     1.0  0.29104  0.26754  0.83079  1.0000
  C   C654      1.0  0.42172  0.46648  0.80630  1.0000
  H   H1107     1.0  0.29150  0.17512  0.84214  1.0000
  C   C655      1.0  0.28734  0.47008  0.98703  1.0000
  C   C656      1.0  0.48430  0.25934  0.84851  1.0000
  H   H1108     1.0  0.25335  0.66278  0.86831  1.0000
  H   H1109     1.0  0.30292  0.37093  0.76264  1.0000
  H   H1110     1.0  0.42595  0.43342  0.80249  1.0000
  H   H1111     1.0  0.39199  0.51081  0.79715  1.0000
  H   H1112     1.0  0.48204  0.54113  0.89172  1.0000
  H   H1113     1.0  0.41364  0.46373  0.81830  1.0000
  H   H1114     1.0  0.42198  0.44545  0.75893  1.0000
  H   H1115     1.0  0.38508  0.42079  0.79880  1.0000
  N   N44       1.0  0.40740  0.48424  0.77652  1.0000
  H   H1116     1.0  0.27294  0.52069  0.97524  1.0000
  H   H1117     1.0  0.46645  0.57330  0.89164  1.0000
  H   H1118     1.0  0.26761  0.18948  0.79693  1.0000
  H   H1119     1.0  0.26775  0.27810  0.84768  1.0000
  H   H1120     1.0  0.26050  0.35743  0.98589  1.0000
  H   H1121     1.0  0.25552  0.52624  0.83026  1.0000
  C   C657      1.0  0.26707  0.17915  0.81314  1.0000
  H   H1122     1.0  0.39805  0.51133  0.74991  1.0000
  C   C658      1.0  0.45744  0.36132  0.98650  1.0000
  H   H1123     1.0  0.42626  0.31718  0.95570  1.0000
  H   H1124     1.0  0.45681  0.52365  0.77098  1.0000
  C   C659      1.0  0.27164  0.21609  0.82331  1.0000
  C   C660      1.0  0.40302  0.35337  0.96877  1.0000
  C   C661      1.0  0.41529  0.41559  0.97408  1.0000
  H   H1125     1.0  0.47780  0.31992  0.83107  1.0000
  C   C662      1.0  0.26319  0.38114  0.99539  1.0000
  H   H1126     1.0  0.47634  0.57786  0.95728  1.0000
  H   H1127     1.0  0.24703  0.26135  0.85581  1.0000
  S   S193      1.0  0.25096  0.35856  0.86429  1.0000
  H   H1128     1.0  0.41005  0.58109  0.76875  1.0000
  H   H1129     1.0  0.29222  0.13215  0.87445  1.0000
  H   H1130     1.0  0.27535  0.14757  0.88180  1.0000
  C   C663      1.0  0.28185  0.16972  0.85061  1.0000
  H   H1131     1.0  0.27353  0.14769  0.81536  1.0000
  C   C664      1.0  0.40339  0.42282  0.75592  1.0000
  H   H1132     1.0  0.30137  0.41407  0.99423  1.0000
  C   C665      1.0  0.47152  0.24785  0.80574  1.0000
  H   H1133     1.0  0.24530  0.15921  0.91203  1.0000
  C   C666      1.0  0.42643  0.35241  0.95801  1.0000
  C   C667      1.0  0.26110  0.48594  0.80517  1.0000
  C   C668      1.0  0.47307  0.55688  0.92110  1.0000
  H   H1134     1.0  0.25643  0.16288  0.85151  1.0000
  H   H1135     1.0  0.47466  0.47692  0.96130  1.0000
  C   C669      1.0  0.26409  0.50646  0.82347  1.0000
  H   H1136     1.0  0.41373  0.52995  0.79441  1.0000
  H   H1137     1.0  0.27172  0.52952  0.81906  1.0000
  C   C670      1.0  0.41974  0.34197  0.99339  1.0000
  C   C671      1.0  0.41263  0.44137  0.76840  1.0000
  C   C672      1.0  0.42579  0.37909  0.93732  1.0000
  H   H1138     1.0  0.26824  0.45585  0.80447  1.0000
  N   N45       1.0  0.48501  0.54390  0.93244  1.0000
  N   N46       1.0  0.41588  0.36601  0.97387  1.0000
  H   H1139     1.0  0.46141  0.52011  0.95664  1.0000
  H   H1140     1.0  0.44511  0.41925  0.99442  1.0000
  H   H1141     1.0  0.25224  0.40234  0.76834  1.0000
  H   H1142     1.0  0.43403  0.36547  0.92722  1.0000
  H   H1143     1.0  0.41657  0.37633  0.93079  1.0000
  H   H1144     1.0  0.48679  0.37114  0.78738  1.0000
  H   H1145     1.0  0.42514  0.42709  0.96966  1.0000
  C   C673      1.0  0.25843  0.19577  0.85506  1.0000
  H   H1146     1.0  0.48474  0.27971  0.78344  1.0000
  H   H1147     1.0  0.46598  0.25338  0.82013  1.0000
  S   S194      1.0  0.24905  0.37377  0.91161  1.0000
  H   H1148     1.0  0.49321  0.63105  0.94441  1.0000
  H   H1149     1.0  0.24886  0.48070  0.77326  1.0000
  H   H1150     1.0  0.39357  0.41871  0.76384  1.0000
  C   C674      1.0  0.40572  0.51889  0.75890  1.0000
  H   H1151     1.0  0.47662  0.21385  0.80628  1.0000
  H   H1152     1.0  0.38819  0.39620  0.98517  1.0000
  H   H1153     1.0  0.47458  0.31560  0.79845  1.0000
  H   H1154     1.0  0.41535  0.41451  0.78005  1.0000
  H   H1155     1.0  0.24527  0.23501  0.83407  1.0000
  C   C675      1.0  0.39104  0.36062  0.98395  1.0000
  C   C676      1.0  0.49099  0.62446  0.92959  1.0000
  H   H1156     1.0  0.25671  0.17345  0.81792  1.0000
  H   H1157     1.0  0.46898  0.51387  0.97925  1.0000
  H   H1158     1.0  0.38248  0.34786  0.97881  1.0000
  C   C677      1.0  0.40179  0.56702  0.76342  1.0000
  Fe  Fe97      1.0  0.24557  0.41528  0.88255  1.0000
  H   H1159     1.0  0.40982  0.47096  0.99140  1.0000
  H   H1160     1.0  0.47793  0.23577  0.84467  1.0000
  C   C678      1.0  0.48091  0.28345  0.79901  1.0000
  H   H1161     1.0  0.43064  0.27958  0.98494  1.0000
  H   H1162     1.0  0.49361  0.24070  0.85308  1.0000
  N   N47       1.0  0.24726  0.47437  0.80524  1.0000
  N   N48       1.0  0.49209  0.28408  0.81150  1.0000
  H   H1163     1.0  0.49409  0.31593  0.83758  1.0000
  C   C679      1.0  0.24599  0.45650  0.78607  1.0000
  C   C680      1.0  0.49401  0.36654  0.79860  1.0000
  H   H1164     1.0  0.24630  0.68217  0.89093  1.0000
  H   H1165     1.0  0.24510  0.45490  0.83686  1.0000
  Fe  Fe98      1.0  0.49450  0.46378  0.86763  1.0000
  Fe  Fe99      1.0  0.50967  0.66114  0.10071  1.0000
  C   C681      1.0  0.67013  0.55125  0.00239  1.0000
  S   S195      1.0  0.51156  0.69407  0.06846  1.0000
  Fe  Fe100     1.0  0.51796  0.62420  0.14259  1.0000
  C   C682      1.0  0.67270  0.50038  0.00356  1.0000
  S   S196      1.0  0.53509  0.61304  0.16251  1.0000
  H   H1166     1.0  0.73853  0.73099  0.14652  1.0000
  H   H1167     1.0  0.52021  0.50564  0.20630  1.0000
  C   C683      1.0  0.66453  0.62961  0.24278  1.0000
  C   C684      1.0  0.72875  0.78933  0.19696  1.0000
  S   S197      1.0  0.51956  0.59560  0.11323  1.0000
  S   S198      1.0  0.50955  0.69181  0.12929  1.0000
  N   N49       1.0  0.66043  0.57045  0.01796  1.0000
  S   S199      1.0  0.72502  0.70536  0.10223  1.0000
  C   C685      1.0  0.64654  0.56350  0.01473  1.0000
  Fe  Fe101     1.0  0.49908  0.57645  0.12228  1.0000
  S   S200      1.0  0.71549  0.61003  0.12030  1.0000
  H   H1168     1.0  0.54364  0.58160  0.02833  1.0000
  Fe  Fe102     1.0  0.72178  0.64263  0.08965  1.0000
  S   S201      1.0  0.71021  0.64904  0.06168  1.0000
  Fe  Fe103     1.0  0.72056  0.66991  0.13302  1.0000
  S   S202      1.0  0.70794  0.70893  0.15659  1.0000
  H   H1169     1.0  0.51520  0.52908  0.08405  1.0000
  C   C686      1.0  0.50894  0.52581  0.03595  1.0000
  H   H1170     1.0  0.51598  0.44674  0.08498  1.0000
  C   C687      1.0  0.70750  0.57555  0.00675  1.0000
  C   C688      1.0  0.66658  0.68207  0.21297  1.0000
  H   H1171     1.0  0.73537  0.62962  0.01174  1.0000
  H   H1172     1.0  0.71878  0.79031  0.15909  1.0000
  C   C689      1.0  0.71571  0.55693  0.02156  1.0000
  C   C690      1.0  0.71672  0.57870  0.03834  1.0000
  C   C691      1.0  0.70952  0.61976  0.04067  1.0000
  C   C692      1.0  0.70133  0.63849  0.02579  1.0000
  H   H1173     1.0  0.74153  0.82886  0.04812  1.0000
  H   H1174     1.0  0.72136  0.52523  0.02009  1.0000
  H   H1175     1.0  0.72305  0.56359  0.04952  1.0000
  H   H1176     1.0  0.69570  0.67020  0.02731  1.0000
  H   H1177     1.0  0.64837  0.49004  0.01836  1.0000
  C   C693      1.0  0.70345  0.70781  0.22511  1.0000
  C   C694      1.0  0.69626  0.73989  0.21290  1.0000
  C   C695      1.0  0.69767  0.73932  0.19211  1.0000
  C   C696      1.0  0.70626  0.70675  0.18309  1.0000
  C   C697      1.0  0.71344  0.67467  0.19530  1.0000
  C   C698      1.0  0.71208  0.67541  0.21607  1.0000
  H   H1178     1.0  0.68970  0.76543  0.21946  1.0000
  H   H1179     1.0  0.69212  0.76457  0.18291  1.0000
  H   H1180     1.0  0.72011  0.64941  0.18874  1.0000
  H   H1181     1.0  0.64223  0.60842  0.22773  1.0000
  H   H1182     1.0  0.65640  0.56881  0.04969  1.0000
  H   H1183     1.0  0.50786  0.78162  0.23705  1.0000
  H   H1184     1.0  0.51130  0.60180  0.06873  1.0000
  H   H1185     1.0  0.64513  0.56823  0.99865  1.0000
  H   H1186     1.0  0.71691  0.84440  0.12909  1.0000
  H   H1187     1.0  0.51682  0.62470  0.23202  1.0000
  H   H1188     1.0  0.53169  0.56208  0.01557  1.0000
  H   H1189     1.0  0.68581  0.62495  0.23263  1.0000
  C   C699      1.0  0.52564  0.62025  0.22205  1.0000
  C   C700      1.0  0.52454  0.62036  0.20162  1.0000
  C   C701      1.0  0.53582  0.61436  0.18846  1.0000
  C   C702      1.0  0.54818  0.60839  0.19614  1.0000
  C   C703      1.0  0.54929  0.60840  0.21657  1.0000
  H   H1190     1.0  0.51826  0.45098  0.05861  1.0000
  H   H1191     1.0  0.51496  0.62491  0.19605  1.0000
  H   H1192     1.0  0.55699  0.60386  0.18615  1.0000
  H   H1193     1.0  0.55887  0.60388  0.22210  1.0000
  C   C704      1.0  0.54249  0.69393  0.01381  1.0000
  C   C705      1.0  0.54624  0.67819  0.03289  1.0000
  C   C706      1.0  0.53694  0.67702  0.04970  1.0000
  C   C707      1.0  0.52374  0.69256  0.04775  1.0000
  C   C708      1.0  0.51997  0.70817  0.02868  1.0000
  C   C709      1.0  0.52922  0.70846  0.01182  1.0000
  H   H1194     1.0  0.55646  0.66707  0.03469  1.0000
  H   H1195     1.0  0.54006  0.66520  0.06420  1.0000
  H   H1196     1.0  0.50983  0.72053  0.02692  1.0000
  H   H1197     1.0  0.52792  0.61208  0.02765  1.0000
  H   H1198     1.0  0.63934  0.58880  0.02144  1.0000
  H   H1199     1.0  0.73439  0.84150  0.12447  1.0000
  H   H1200     1.0  0.56201  0.50812  0.21308  1.0000
  H   H1201     1.0  0.71776  0.65048  0.22525  1.0000
  H   H1202     1.0  0.67883  0.53875  0.05883  1.0000
  N   N50       1.0  0.51420  0.54518  0.05235  1.0000
  H   H1203     1.0  0.74403  0.84748  0.17244  1.0000
  H   H1204     1.0  0.68514  0.54084  0.03350  1.0000
  H   H1205     1.0  0.50853  0.61558  0.04384  1.0000
  Fe  Fe104     1.0  0.73700  0.58505  0.12182  1.0000
  H   H1206     1.0  0.67915  0.59120  0.04449  1.0000
  H   H1207     1.0  0.66200  0.51671  0.04211  1.0000
  C   C710      1.0  0.53298  0.57812  0.02877  1.0000
  H   H1208     1.0  0.64442  0.64697  0.20539  1.0000
  H   H1209     1.0  0.50852  0.54250  0.00404  1.0000
  C   C711      1.0  0.51234  0.51431  0.07125  1.0000
  C   C712      1.0  0.65720  0.64633  0.99650  1.0000
  C   C713      1.0  0.56531  0.48975  0.22703  1.0000
  C   C714      1.0  0.52870  0.54970  0.04806  1.0000
  H   H1210     1.0  0.65339  0.76984  0.22986  1.0000
  H   H1211     1.0  0.53444  0.51696  0.04688  1.0000
  H   H1212     1.0  0.53241  0.56352  0.06048  1.0000
  H   H1213     1.0  0.72593  0.79293  0.12446  1.0000
  H   H1214     1.0  0.51808  0.46374  0.22668  1.0000
  S   S203      1.0  0.49835  0.59950  0.15235  1.0000
  C   C715      1.0  0.52213  0.49564  0.22201  1.0000
  H   H1215     1.0  0.66635  0.65341  0.20455  1.0000
  C   C716      1.0  0.64171  0.51847  0.02310  1.0000
  H   H1216     1.0  0.62933  0.64952  0.22091  1.0000
  C   C717      1.0  0.66228  0.72477  0.19977  1.0000
  H   H1217     1.0  0.66488  0.71935  0.18401  1.0000
  H   H1218     1.0  0.64007  0.51528  0.03949  1.0000
  H   H1219     1.0  0.50070  0.73835  0.22851  1.0000
  C   C718      1.0  0.73992  0.64741  0.99802  1.0000
  C   C719      1.0  0.66130  0.61975  0.01600  1.0000
  H   H1220     1.0  0.69401  0.63186  0.99784  1.0000
  H   H1221     1.0  0.67206  0.48296  0.01869  1.0000
  H   H1222     1.0  0.72733  0.76673  0.21090  1.0000
  C   C720      1.0  0.67747  0.55635  0.04385  1.0000
  H   H1223     1.0  0.65513  0.63488  0.02830  1.0000
  N   N51       1.0  0.65959  0.67508  0.23344  1.0000
  H   H1224     1.0  0.50914  0.59035  0.01585  1.0000
  C   C721      1.0  0.72622  0.82318  0.13174  1.0000
  H   H1225     1.0  0.52615  0.72098  0.99735  1.0000
  C   C722      1.0  0.73684  0.76302  0.18115  1.0000
  H   H1226     1.0  0.65816  0.68188  0.99702  1.0000
  H   H1227     1.0  0.64034  0.70936  0.22745  1.0000
  H   H1228     1.0  0.72403  0.84248  0.16118  1.0000
  C   C723      1.0  0.64490  0.67629  0.23318  1.0000
  C   C724      1.0  0.53800  0.61414  0.22973  1.0000
  C   C725      1.0  0.72692  0.81141  0.15422  1.0000
  H   H1229     1.0  0.65156  0.73411  0.20097  1.0000
  H   H1230     1.0  0.67727  0.68284  0.21385  1.0000
  H   H1231     1.0  0.51666  0.52165  0.23053  1.0000
  H   H1232     1.0  0.49996  0.50941  0.04177  1.0000
  H   H1233     1.0  0.50215  0.80706  0.20362  1.0000
  C   C726      1.0  0.70031  0.61669  0.00903  1.0000
  C   C727      1.0  0.51979  0.46750  0.07154  1.0000
  H   H1234     1.0  0.57412  0.50471  0.23006  1.0000
  C   C728      1.0  0.53704  0.49320  0.22363  1.0000
  H   H1235     1.0  0.53072  0.39553  0.23044  1.0000
  C   C729      1.0  0.64019  0.64312  0.22101  1.0000
  H   H1236     1.0  0.66742  0.75274  0.20282  1.0000
  H   H1237     1.0  0.67150  0.62697  0.01721  1.0000
  H   H1238     1.0  0.73143  0.73433  0.17978  1.0000
  H   H1239     1.0  0.51619  0.49909  0.03050  1.0000
  H   H1240     1.0  0.71876  0.80200  0.19275  1.0000
  C   C730      1.0  0.50709  0.58952  0.05638  1.0000
  C   C731      1.0  0.66344  0.55222  0.03872  1.0000
  S   S204      1.0  0.74164  0.64287  0.13601  1.0000
  C   C732      1.0  0.50505  0.55820  0.01769  1.0000
  H   H1241     1.0  0.56857  0.45479  0.22488  1.0000
  H   H1242     1.0  0.50312  0.73891  0.19280  1.0000
  H   H1243     1.0  0.63204  0.51641  0.01759  1.0000
  C   C733      1.0  0.49853  0.77238  0.23274  1.0000
  H   H1244     1.0  0.67978  0.56453  0.00171  1.0000
  H   H1245     1.0  0.73386  0.81687  0.20044  1.0000
  H   H1246     1.0  0.50180  0.50896  0.07481  1.0000
  H   H1247     1.0  0.55166  0.41556  0.23230  1.0000
  H   H1248     1.0  0.54210  0.47416  0.21167  1.0000
  H   H1249     1.0  0.53043  0.46795  0.07276  1.0000
  H   H1250     1.0  0.67316  0.71578  0.24293  1.0000
  H   H1251     1.0  0.53942  0.52776  0.21931  1.0000
  H   H1252     1.0  0.68298  0.49126  0.99748  1.0000
  N   N52       1.0  0.73977  0.78853  0.16108  1.0000
  H   H1253     1.0  0.66317  0.60369  0.23341  1.0000
  S   S205      1.0  0.74214  0.51358  0.13500  1.0000
  S   S206      1.0  0.74295  0.61427  0.09071  1.0000
  N   N53       1.0  0.54202  0.47520  0.24340  1.0000
  C   C734      1.0  0.54487  0.42554  0.24509  1.0000
  H   H1254     1.0  0.74460  0.67486  0.00261  1.0000
  H   H1255     1.0  0.73846  0.46364  0.24482  1.0000
  C   C735      1.0  0.55478  0.49414  0.24472  1.0000
  C   C736      1.0  0.65415  0.75362  0.24509  1.0000
  Fe  Fe105     1.0  0.55373  0.59694  0.27912  1.0000
  S   S207      1.0  0.56523  0.64634  0.28994  1.0000
  Fe  Fe106     1.0  0.49921  0.93913  0.36559  1.0000
  Fe  Fe107     1.0  0.56085  0.52411  0.31380  1.0000
  S   S208      1.0  0.57278  0.56821  0.32678  1.0000
  S   S209      1.0  0.55667  0.45213  0.32451  1.0000
  Fe  Fe108     1.0  0.55644  0.62236  0.32036  1.0000
  S   S210      1.0  0.54992  0.66694  0.34445  1.0000
  Fe  Fe109     1.0  0.58090  0.58929  0.29557  1.0000
  S   S211      1.0  0.60318  0.58945  0.28786  1.0000
  S   S212      1.0  0.54390  0.57701  0.30957  1.0000
  S   S213      1.0  0.57000  0.54113  0.28263  1.0000
  Fe  Fe110     1.0  0.55443  0.25565  0.41807  1.0000
  S   S214      1.0  0.55815  0.20311  0.39748  1.0000
  S   S215      1.0  0.55609  0.33013  0.40828  1.0000
  Fe  Fe111     1.0  0.55203  0.18534  0.45536  1.0000
  S   S216      1.0  0.55607  0.12873  0.43657  1.0000
  H   H1256     1.0  0.50332  0.93824  0.45902  1.0000
  Fe  Fe112     1.0  0.57184  0.16714  0.41942  1.0000
  S   S217      1.0  0.59219  0.13989  0.40644  1.0000
  Fe  Fe113     1.0  0.54213  0.16906  0.41646  1.0000
  S   S218      1.0  0.52438  0.14445  0.40527  1.0000
  S   S219      1.0  0.56884  0.22091  0.43926  1.0000
  S   S220      1.0  0.53734  0.22438  0.43595  1.0000
  Fe  Fe114     1.0  0.66270  0.73301  0.30254  1.0000
  S   S221      1.0  0.67467  0.78532  0.28572  1.0000
  S   S222      1.0  0.64054  0.73474  0.30038  1.0000
  Fe  Fe115     1.0  0.68636  0.68736  0.32342  1.0000
  S   S223      1.0  0.69995  0.73589  0.30789  1.0000
  S   S224      1.0  0.69017  0.62803  0.34646  1.0000
  Fe  Fe116     1.0  0.68322  0.78876  0.31487  1.0000
  S   S225      1.0  0.68494  0.85711  0.32568  1.0000
  Fe  Fe117     1.0  0.69036  0.72884  0.28012  1.0000
  H   H1257     1.0  0.73251  0.51628  0.41638  1.0000
  S   S226      1.0  0.67020  0.73992  0.33161  1.0000
  S   S227      1.0  0.67781  0.67698  0.29574  1.0000
  Fe  Fe118     1.0  0.69310  0.11985  0.41228  1.0000
  S   S228      1.0  0.70442  0.05542  0.42364  1.0000
  S   S229      1.0  0.70107  0.17394  0.38963  1.0000
  Fe  Fe119     1.0  0.66717  0.09493  0.43458  1.0000
  S   S230      1.0  0.67701  0.02940  0.44704  1.0000
  S   S231      1.0  0.64607  0.11456  0.44722  1.0000
  Fe  Fe120     1.0  0.69334  0.06745  0.45342  1.0000
  H   H1258     1.0  0.53652  0.72011  0.37331  1.0000
  Fe  Fe121     1.0  0.68701  0.02308  0.41624  1.0000
  S   S232      1.0  0.68679  0.95515  0.40405  1.0000
  S   S233      1.0  0.68304  0.13313  0.44208  1.0000
  S   S234      1.0  0.67623  0.08719  0.40367  1.0000
  C   C737      1.0  0.73058  0.26842  0.40053  1.0000
  C   C738      1.0  0.72426  0.27505  0.38313  1.0000
  C   C739      1.0  0.71522  0.24590  0.38002  1.0000
  C   C740      1.0  0.71230  0.21030  0.39434  1.0000
  C   C741      1.0  0.71852  0.20407  0.41181  1.0000
  C   C742      1.0  0.72763  0.23291  0.41484  1.0000
  H   H1259     1.0  0.72632  0.30252  0.37212  1.0000
  H   H1260     1.0  0.71042  0.25103  0.36649  1.0000
  H   H1261     1.0  0.71638  0.17683  0.42293  1.0000
  C   C743      1.0  0.68559  0.88330  0.34778  1.0000
  C   C744      1.0  0.68645  0.92936  0.34607  1.0000
  C   C745      1.0  0.68698  0.95172  0.36287  1.0000
  C   C746      1.0  0.68664  0.92853  0.38193  1.0000
  C   C747      1.0  0.68576  0.88248  0.38367  1.0000
  C   C748      1.0  0.68523  0.86011  0.36685  1.0000
  H   H1262     1.0  0.68681  0.94795  0.33152  1.0000
  H   H1263     1.0  0.68775  0.98693  0.36101  1.0000
  H   H1264     1.0  0.68551  0.86380  0.39819  1.0000
  H   H1265     1.0  0.68461  0.82480  0.36865  1.0000
  C   C749      1.0  0.70588  0.59759  0.34714  1.0000
  C   C750      1.0  0.71673  0.61191  0.33505  1.0000
  C   C751      1.0  0.72914  0.58742  0.33610  1.0000
  C   C752      1.0  0.73081  0.54815  0.34903  1.0000
  C   C753      1.0  0.71994  0.53362  0.36110  1.0000
  C   C754      1.0  0.70753  0.55841  0.36020  1.0000
  H   H1266     1.0  0.71560  0.64204  0.32499  1.0000
  H   H1267     1.0  0.52359  0.45982  0.39606  1.0000
  H   H1268     1.0  0.52261  0.47925  0.25986  1.0000
  H   H1269     1.0  0.69918  0.54717  0.36964  1.0000
  C   C755      1.0  0.60704  0.13390  0.41806  1.0000
  C   C756      1.0  0.60719  0.13722  0.43821  1.0000
  C   C757      1.0  0.61921  0.13137  0.44685  1.0000
  C   C758      1.0  0.63124  0.12290  0.43543  1.0000
  C   C759      1.0  0.63111  0.12120  0.41514  1.0000
  C   C760      1.0  0.61908  0.12582  0.40659  1.0000
  H   H1270     1.0  0.59801  0.14348  0.44722  1.0000
  H   H1271     1.0  0.61918  0.13314  0.46254  1.0000
  H   H1272     1.0  0.64028  0.11676  0.40604  1.0000
  H   H1273     1.0  0.61909  0.12371  0.39094  1.0000
  C   C761      1.0  0.51997  0.01726  0.37805  1.0000
  C   C762      1.0  0.53201  0.02311  0.38487  1.0000
  C   C763      1.0  0.53360  0.06186  0.39315  1.0000
  C   C764      1.0  0.52320  0.09547  0.39446  1.0000
  C   C765      1.0  0.51122  0.08975  0.38742  1.0000
  C   C766      1.0  0.50958  0.05084  0.37937  1.0000
  H   H1274     1.0  0.54015  0.99751  0.38380  1.0000
  H   H1275     1.0  0.54288  0.06583  0.39846  1.0000
  H   H1276     1.0  0.50316  0.11573  0.38819  1.0000
  C   C767      1.0  0.55747  0.41773  0.34766  1.0000
  C   C768      1.0  0.55355  0.37473  0.34939  1.0000
  C   C769      1.0  0.55334  0.34712  0.36762  1.0000
  C   C770      1.0  0.55685  0.36238  0.38455  1.0000
  C   C771      1.0  0.56092  0.40522  0.38276  1.0000
  C   C772      1.0  0.56146  0.43235  0.36442  1.0000
  H   H1277     1.0  0.55049  0.36278  0.33658  1.0000
  H   H1278     1.0  0.55015  0.31441  0.36867  1.0000
  H   H1279     1.0  0.56374  0.41741  0.39568  1.0000
  H   H1280     1.0  0.56479  0.46481  0.36329  1.0000
  C   C773      1.0  0.61340  0.62988  0.29193  1.0000
  C   C774      1.0  0.62709  0.62219  0.28725  1.0000
  C   C775      1.0  0.63554  0.65359  0.28997  1.0000
  C   C776      1.0  0.63042  0.69327  0.29730  1.0000
  C   C777      1.0  0.61675  0.70096  0.30195  1.0000
  C   C778      1.0  0.60829  0.66941  0.29942  1.0000
  H   H1281     1.0  0.63113  0.59182  0.28137  1.0000
  H   H1282     1.0  0.64599  0.64749  0.28614  1.0000
  H   H1283     1.0  0.61265  0.73165  0.30752  1.0000
  H   H1284     1.0  0.59780  0.67593  0.30302  1.0000
  C   C779      1.0  0.53447  0.69865  0.34514  1.0000
  C   C780      1.0  0.52635  0.70124  0.32983  1.0000
  C   C781      1.0  0.51426  0.72801  0.33063  1.0000
  C   C782      1.0  0.51035  0.75312  0.34646  1.0000
  C   C783      1.0  0.51845  0.75032  0.36180  1.0000
  C   C784      1.0  0.53038  0.72265  0.36125  1.0000
  H   H1285     1.0  0.52939  0.68276  0.31736  1.0000
  H   H1286     1.0  0.66414  0.54222  0.31934  1.0000
  H   H1287     1.0  0.51535  0.76859  0.37430  1.0000
  N   N54       1.0  0.54354  0.84505  0.33461  1.0000
  C   C785      1.0  0.54769  0.80614  0.32299  1.0000
  C   C786      1.0  0.52942  0.86090  0.33115  1.0000
  C   C787      1.0  0.54477  0.82930  0.35630  1.0000
  C   C788      1.0  0.55256  0.88027  0.32728  1.0000
  C   C789      1.0  0.56127  0.78063  0.32656  1.0000
  C   C790      1.0  0.52665  0.87528  0.30941  1.0000
  C   C791      1.0  0.53500  0.85171  0.37165  1.0000
  C   C792      1.0  0.54908  0.92507  0.33554  1.0000
  H   H1288     1.0  0.54032  0.78167  0.32612  1.0000
  H   H1289     1.0  0.54808  0.81662  0.30680  1.0000
  H   H1290     1.0  0.52560  0.88937  0.33943  1.0000
  H   H1291     1.0  0.52298  0.83443  0.33697  1.0000
  H   H1292     1.0  0.54333  0.79369  0.35963  1.0000
  H   H1293     1.0  0.55488  0.83158  0.36023  1.0000
  H   H1294     1.0  0.56279  0.86873  0.33078  1.0000
  H   H1295     1.0  0.55313  0.88705  0.31088  1.0000
  H   H1296     1.0  0.56940  0.80148  0.32187  1.0000
  H   H1297     1.0  0.56189  0.76583  0.34211  1.0000
  H   H1298     1.0  0.56291  0.75250  0.31748  1.0000
  H   H1299     1.0  0.53253  0.90205  0.30234  1.0000
  H   H1300     1.0  0.66474  0.07368  0.47967  1.0000
  H   H1301     1.0  0.51617  0.88861  0.30894  1.0000
  H   H1302     1.0  0.53504  0.88792  0.37008  1.0000
  H   H1303     1.0  0.53773  0.83895  0.38675  1.0000
  H   H1304     1.0  0.52484  0.84363  0.37093  1.0000
  H   H1305     1.0  0.53921  0.94100  0.33211  1.0000
  H   H1306     1.0  0.55624  0.94817  0.32853  1.0000
  H   H1307     1.0  0.54988  0.92206  0.35165  1.0000
  N   N55       1.0  0.60106  0.27280  0.39049  1.0000
  C   C793      1.0  0.61068  0.23881  0.38097  1.0000
  C   C794      1.0  0.58747  0.26508  0.38630  1.0000
  C   C795      1.0  0.60194  0.26436  0.41255  1.0000
  C   C796      1.0  0.60464  0.31852  0.38234  1.0000
  C   C797      1.0  0.62512  0.23684  0.38561  1.0000
  C   C798      1.0  0.59313  0.29614  0.42527  1.0000
  C   C799      1.0  0.59336  0.35664  0.38171  1.0000
  H   H1308     1.0  0.60756  0.20508  0.38514  1.0000
  H   H1309     1.0  0.61087  0.24464  0.36457  1.0000
  H   H1310     1.0  0.57990  0.29010  0.39203  1.0000
  H   H1311     1.0  0.59967  0.23003  0.41820  1.0000
  H   H1312     1.0  0.61206  0.26653  0.41633  1.0000
  H   H1313     1.0  0.61227  0.32830  0.39083  1.0000
  H   H1314     1.0  0.60927  0.31900  0.36686  1.0000
  H   H1315     1.0  0.62868  0.27002  0.38372  1.0000
  H   H1316     1.0  0.62652  0.22026  0.40074  1.0000
  H   H1317     1.0  0.63147  0.21637  0.37532  1.0000
  H   H1318     1.0  0.57480  0.26833  0.36251  1.0000
  H   H1319     1.0  0.59350  0.28285  0.44110  1.0000
  H   H1320     1.0  0.58268  0.29949  0.42234  1.0000
  H   H1321     1.0  0.59683  0.32912  0.42352  1.0000
  H   H1322     1.0  0.58667  0.35387  0.37036  1.0000
  H   H1323     1.0  0.59759  0.38861  0.37747  1.0000
  H   H1324     1.0  0.58745  0.35904  0.39605  1.0000
  H   H1325     1.0  0.52808  0.84693  0.30055  1.0000
  C   C800      1.0  0.53244  0.49034  0.26008  1.0000
  H   H1326     1.0  0.51703  0.48611  0.34056  1.0000
  C   C801      1.0  0.52163  0.47279  0.35434  1.0000
  N   N56       1.0  0.52500  0.54412  0.36881  1.0000
  C   C802      1.0  0.52499  0.49101  0.40183  1.0000
  H   H1327     1.0  0.52720  0.44042  0.35163  1.0000
  H   H1328     1.0  0.55959  0.47828  0.25803  1.0000
  H   H1329     1.0  0.49952  0.98227  0.40639  1.0000
  C   C803      1.0  0.51859  0.53214  0.38941  1.0000
  H   H1330     1.0  0.52844  0.48707  0.29205  1.0000
  H   H1331     1.0  0.51406  0.91664  0.40749  1.0000
  H   H1332     1.0  0.65879  0.62118  0.25724  1.0000
  C   C804      1.0  0.67370  0.19627  0.48941  1.0000
  C   C805      1.0  0.53654  0.47583  0.28116  1.0000
  H   H1333     1.0  0.51074  0.90207  0.43332  1.0000
  C   C806      1.0  0.73935  0.53782  0.40720  1.0000
  H   H1334     1.0  0.73244  0.22761  0.42837  1.0000
  S   S235      1.0  0.53860  0.61226  0.25587  1.0000
  H   H1335     1.0  0.50033  0.04717  0.37388  1.0000
  H   H1336     1.0  0.50930  0.03012  0.42245  1.0000
  H   H1337     1.0  0.73750  0.59896  0.32676  1.0000
  H   H1338     1.0  0.70378  0.14717  0.48717  1.0000
  S   S236      1.0  0.74243  0.30259  0.40515  1.0000
  S   S237      1.0  0.70046  0.05291  0.48503  1.0000
  H   H1339     1.0  0.54411  0.55606  0.39705  1.0000
  H   H1340     1.0  0.65856  0.77650  0.25318  1.0000
  S   S238      1.0  0.49583  0.87690  0.38604  1.0000
  H   H1341     1.0  0.58950  0.23161  0.35946  1.0000
  H   H1342     1.0  0.65138  0.52627  0.34834  1.0000
  C   C807      1.0  0.49853  0.96116  0.42079  1.0000
  H   H1343     1.0  0.50795  0.72959  0.31883  1.0000
  H   H1344     1.0  0.51385  0.46664  0.36654  1.0000
  N   N57       1.0  0.64652  0.98606  0.39807  1.0000
  C   C808      1.0  0.65084  0.00651  0.41494  1.0000
  C   C809      1.0  0.65411  0.00476  0.37940  1.0000
  C   C810      1.0  0.65009  0.93661  0.40189  1.0000
  C   C811      1.0  0.63186  0.99728  0.39785  1.0000
  C   C812      1.0  0.64486  0.99031  0.43589  1.0000
  C   C813      1.0  0.65068  0.05445  0.37279  1.0000
  C   C814      1.0  0.65078  0.90951  0.38422  1.0000
  C   C815      1.0  0.62550  0.98688  0.37977  1.0000
  H   H1345     1.0  0.66172  0.00087  0.41513  1.0000
  H   H1346     1.0  0.64847  0.04290  0.41317  1.0000
  H   H1347     1.0  0.65296  0.98756  0.36652  1.0000
  H   H1348     1.0  0.66485  0.99942  0.38106  1.0000
  H   H1349     1.0  0.65994  0.92920  0.40767  1.0000
  H   H1350     1.0  0.64308  0.92154  0.41362  1.0000
  H   H1351     1.0  0.62660  0.97944  0.41095  1.0000
  H   H1352     1.0  0.62892  0.03280  0.39975  1.0000
  H   H1353     1.0  0.64885  0.00799  0.44676  1.0000
  H   H1354     1.0  0.63405  0.99836  0.43770  1.0000
  H   H1355     1.0  0.64758  0.95448  0.44002  1.0000
  H   H1356     1.0  0.64013  0.06283  0.37053  1.0000
  H   H1357     1.0  0.65357  0.07549  0.38321  1.0000
  H   H1358     1.0  0.65637  0.06333  0.35839  1.0000
  H   H1359     1.0  0.64163  0.91409  0.37680  1.0000
  H   H1360     1.0  0.65252  0.87377  0.38968  1.0000
  H   H1361     1.0  0.65924  0.91655  0.37326  1.0000
  H   H1362     1.0  0.62142  0.95444  0.38291  1.0000
  H   H1363     1.0  0.63212  0.98712  0.36598  1.0000
  H   H1364     1.0  0.61727  0.01282  0.37648  1.0000
  N   N58       1.0  0.64855  0.59786  0.34679  1.0000
  C   C816      1.0  0.64933  0.63230  0.36043  1.0000
  C   C817      1.0  0.62427  0.58944  0.35929  1.0000
  C   C818      1.0  0.64258  0.67896  0.35417  1.0000
  H   H1365     1.0  0.63132  0.62881  0.33264  1.0000
  H   H1366     1.0  0.66705  0.61517  0.33126  1.0000
  H   H1367     1.0  0.65315  0.64052  0.31985  1.0000
  H   H1368     1.0  0.64517  0.62154  0.37572  1.0000
  H   H1369     1.0  0.65977  0.63675  0.36185  1.0000
  H   H1370     1.0  0.62575  0.55524  0.36683  1.0000
  H   H1371     1.0  0.64643  0.69254  0.33924  1.0000
  H   H1372     1.0  0.64464  0.70186  0.36454  1.0000
  H   H1373     1.0  0.63175  0.67980  0.35473  1.0000
  H   H1374     1.0  0.51399  0.00080  0.44501  1.0000
  H   H1375     1.0  0.52014  0.48912  0.41716  1.0000
  C   C819      1.0  0.58550  0.26416  0.36433  1.0000
  H   H1376     1.0  0.73379  0.57098  0.40455  1.0000
  S   S239      1.0  0.51844  0.96795  0.36769  1.0000
  H   H1377     1.0  0.58474  0.23305  0.39431  1.0000
  H   H1378     1.0  0.51431  0.63890  0.35943  1.0000
  C   C820      1.0  0.65714  0.60895  0.32799  1.0000
  H   H1379     1.0  0.53938  0.58535  0.35354  1.0000
  H   H1380     1.0  0.67705  0.20697  0.47374  1.0000
  H   H1381     1.0  0.62396  0.61345  0.37017  1.0000
  C   C821      1.0  0.63468  0.59743  0.34163  1.0000
  H   H1382     1.0  0.59008  0.29086  0.35452  1.0000
  H   H1383     1.0  0.53560  0.49181  0.40287  1.0000
  H   H1384     1.0  0.64734  0.54650  0.37155  1.0000
  H   H1385     1.0  0.50026  0.09118  0.43640  1.0000
  H   H1386     1.0  0.61441  0.59338  0.35364  1.0000
  H   H1387     1.0  0.53708  0.51448  0.34504  1.0000
  C   C822      1.0  0.51470  0.56797  0.35595  1.0000
  C   C823      1.0  0.50777  0.61206  0.36243  1.0000
  H   H1388     1.0  0.51803  0.56052  0.39827  1.0000
  C   C824      1.0  0.65313  0.55303  0.35701  1.0000
  H   H1389     1.0  0.67454  0.54792  0.34771  1.0000
  H   H1390     1.0  0.51902  0.57510  0.34037  1.0000
  H   H1391     1.0  0.50667  0.54692  0.35536  1.0000
  H   H1392     1.0  0.66983  0.51249  0.36936  1.0000
  H   H1393     1.0  0.55210  0.52608  0.37688  1.0000
  C   C825      1.0  0.66771  0.54605  0.36138  1.0000
  S   S240      1.0  0.70221  0.70656  0.25155  1.0000
  H   H1394     1.0  0.66312  0.14888  0.47891  1.0000
  H   H1395     1.0  0.63411  0.57108  0.33209  1.0000
  C   C826      1.0  0.54707  0.55800  0.38094  1.0000
  H   H1396     1.0  0.72112  0.50350  0.37116  1.0000
  C   C827      1.0  0.51158  0.93067  0.42175  1.0000
  H   H1397     1.0  0.53841  0.48387  0.36834  1.0000
  C   C828      1.0  0.65911  0.57417  0.31317  1.0000
  S   S241      1.0  0.55063  0.16343  0.48898  1.0000
  H   H1398     1.0  0.64977  0.56860  0.30771  1.0000
  H   H1399     1.0  0.55447  0.58226  0.37775  1.0000
  H   H1400     1.0  0.66555  0.58657  0.30006  1.0000
  C   C829      1.0  0.53122  0.50419  0.35915  1.0000
  H   H1401     1.0  0.53107  0.60624  0.37506  1.0000
  H   H1402     1.0  0.51996  0.94878  0.42377  1.0000
  H   H1403     1.0  0.67005  0.57007  0.37096  1.0000
  H   H1404     1.0  0.50993  0.06852  0.45568  1.0000
  C   C830      1.0  0.53532  0.57519  0.36896  1.0000
  C   C831      1.0  0.66965  0.14895  0.49091  1.0000
  H   H1405     1.0  0.67884  0.12797  0.48658  1.0000
  H   H1406     1.0  0.52417  0.41181  0.25437  1.0000
  H   H1407     1.0  0.74252  0.30986  0.34125  1.0000
  C   C832      1.0  0.50157  0.06212  0.44780  1.0000
  H   H1408     1.0  0.50819  0.52579  0.38896  1.0000
  H   H1409     1.0  0.74331  0.64963  0.38333  1.0000
  H   H1410     1.0  0.66166  0.69528  0.26211  1.0000
  H   H1411     1.0  0.50390  0.60887  0.37823  1.0000
  H   H1412     1.0  0.53839  0.43938  0.28440  1.0000
  C   C833      1.0  0.50541  0.01916  0.43787  1.0000
  H   H1413     1.0  0.64415  0.75005  0.25263  1.0000
  H   H1414     1.0  0.54524  0.49151  0.28395  1.0000
  H   H1415     1.0  0.74271  0.20817  0.37142  1.0000
  H   H1416     1.0  0.55293  0.53003  0.24649  1.0000
  H   H1417     1.0  0.64016  0.67031  0.24855  1.0000
  N   N59       1.0  0.49481  0.98905  0.43762  1.0000
  H   H1418     1.0  0.53061  0.52710  0.25829  1.0000
  H   H1419     1.0  0.68146  0.58862  0.25415  1.0000
  H   H1420     1.0  0.49660  0.99873  0.47938  1.0000
  H   H1421     1.0  0.74188  0.52330  0.39313  1.0000
  H   H1422     1.0  0.49929  0.62313  0.35358  1.0000
  H   H1423     1.0  0.53558  0.36485  0.25326  1.0000
  H   H1424     1.0  0.64946  0.06511  0.49458  1.0000
  H   H1425     1.0  0.55048  0.41239  0.25801  1.0000
  C   C834      1.0  0.67922  0.62251  0.24655  1.0000
  H   H1426     1.0  0.68177  0.64564  0.25634  1.0000
  S   S242      1.0  0.49490  0.91094  0.33838  1.0000
  C   C835      1.0  0.66272  0.70867  0.24618  1.0000
  C   C836      1.0  0.53307  0.39857  0.24564  1.0000
  H   H1427     1.0  0.74141  0.25301  0.34002  1.0000
  H   H1428     1.0  0.66555  0.22075  0.49394  1.0000
  C   C837      1.0  0.66032  0.06017  0.49430  1.0000
  S   S243      1.0  0.49488  0.78496  0.34714  1.0000
  H   H1429     1.0  0.53271  0.06266  0.55391  1.0000
  S   S244      1.0  0.50775  0.18530  0.62605  1.0000
  H   H1430     1.0  0.66623  0.08857  0.55146  1.0000
  H   H1431     1.0  0.73060  0.44483  0.51640  1.0000
  S   S245      1.0  0.51969  0.09286  0.60874  1.0000
  C   C838      1.0  0.70481  0.12906  0.50165  1.0000
  Fe  Fe122     1.0  0.51732  0.11899  0.63870  1.0000
  S   S246      1.0  0.53339  0.12194  0.65950  1.0000
  Fe  Fe123     1.0  0.50854  0.15674  0.59704  1.0000
  S   S247      1.0  0.51154  0.19707  0.56647  1.0000
  H   H1432     1.0  0.50864  0.19571  0.72332  1.0000
  H   H1433     1.0  0.66126  0.28289  0.69582  1.0000
  H   H1434     1.0  0.73286  0.35060  0.55546  1.0000
  S   S248      1.0  0.72340  0.20993  0.60150  1.0000
  H   H1435     1.0  0.52407  0.23029  0.65349  1.0000
  H   H1436     1.0  0.73438  0.94774  0.56946  1.0000
  S   S249      1.0  0.71844  0.10730  0.61429  1.0000
  C   C839      1.0  0.64417  0.19265  0.51432  1.0000
  Fe  Fe124     1.0  0.72155  0.15074  0.58534  1.0000
  S   S250      1.0  0.71052  0.15975  0.55676  1.0000
  Fe  Fe125     1.0  0.72220  0.16411  0.63049  1.0000
  S   S251      1.0  0.71021  0.16518  0.66132  1.0000
  C   C840      1.0  0.52328  0.07504  0.51115  1.0000
  H   H1437     1.0  0.52134  0.04881  0.50240  1.0000
  C   C841      1.0  0.49822  0.98616  0.54992  1.0000
  C   C842      1.0  0.73830  0.36017  0.56715  1.0000
  C   C843      1.0  0.70705  0.15158  0.51767  1.0000
  C   C844      1.0  0.70859  0.12894  0.53671  1.0000
  C   C845      1.0  0.70769  0.08325  0.53943  1.0000
  C   C846      1.0  0.70544  0.06073  0.52344  1.0000
  C   C847      1.0  0.73140  0.17156  0.72268  1.0000
  H   H1438     1.0  0.70761  0.18693  0.51526  1.0000
  H   H1439     1.0  0.70828  0.06552  0.55404  1.0000
  H   H1440     1.0  0.70464  0.02553  0.52594  1.0000
  C   C848      1.0  0.69763  0.23936  0.71677  1.0000
  C   C849      1.0  0.70459  0.26013  0.69995  1.0000
  C   C850      1.0  0.70869  0.23796  0.68305  1.0000
  C   C851      1.0  0.70563  0.19480  0.68245  1.0000
  C   C852      1.0  0.69860  0.17410  0.69926  1.0000
  C   C853      1.0  0.69473  0.19595  0.71632  1.0000
  H   H1441     1.0  0.70682  0.29378  0.69995  1.0000
  H   H1442     1.0  0.71400  0.25461  0.67031  1.0000
  H   H1443     1.0  0.69613  0.14081  0.69905  1.0000
  H   H1444     1.0  0.68934  0.17940  0.72899  1.0000
  C   C854      1.0  0.67003  0.14203  0.52734  1.0000
  H   H1445     1.0  0.61816  0.25147  0.72623  1.0000
  C   C855      1.0  0.52589  0.21445  0.70500  1.0000
  H   H1446     1.0  0.64351  0.12306  0.52472  1.0000
  H   H1447     1.0  0.73274  0.38856  0.57379  1.0000
  H   H1448     1.0  0.51080  0.27255  0.65108  1.0000
  H   H1449     1.0  0.66035  0.06380  0.52517  1.0000
  C   C856      1.0  0.53970  0.17440  0.51031  1.0000
  H   H1450     1.0  0.72645  0.25953  0.73052  1.0000
  C   C857      1.0  0.52021  0.21234  0.52685  1.0000
  C   C858      1.0  0.52274  0.18813  0.54522  1.0000
  C   C859      1.0  0.53385  0.15716  0.54603  1.0000
  C   C860      1.0  0.54226  0.15045  0.52872  1.0000
  H   H1451     1.0  0.52625  0.02779  0.57493  1.0000
  H   H1452     1.0  0.51168  0.23654  0.52600  1.0000
  H   H1453     1.0  0.53607  0.13878  0.56006  1.0000
  H   H1454     1.0  0.55087  0.12659  0.52961  1.0000
  C   C861      1.0  0.53940  0.07896  0.72586  1.0000
  C   C862      1.0  0.52890  0.06506  0.71736  1.0000
  C   C863      1.0  0.52684  0.07791  0.69722  1.0000
  C   C864      1.0  0.53535  0.10461  0.68513  1.0000
  C   C865      1.0  0.54584  0.11848  0.69364  1.0000
  C   C866      1.0  0.54781  0.10609  0.71383  1.0000
  C   C867      1.0  0.51595  0.24880  0.66211  1.0000
  H   H1455     1.0  0.51877  0.06670  0.69098  1.0000
  H   H1456     1.0  0.55254  0.13898  0.68450  1.0000
  H   H1457     1.0  0.55597  0.11697  0.71998  1.0000
  H   H1458     1.0  0.72872  0.02548  0.55751  1.0000
  C   C868      1.0  0.51114  0.06586  0.55807  1.0000
  H   H1459     1.0  0.50354  0.10530  0.51101  1.0000
  C   C869      1.0  0.73807  0.97375  0.57659  1.0000
  H   H1460     1.0  0.68064  0.12942  0.52582  1.0000
  H   H1461     1.0  0.73099  0.97997  0.58963  1.0000
  H   H1462     1.0  0.65388  0.13630  0.55127  1.0000
  H   H1463     1.0  0.51291  0.12574  0.52740  1.0000
  H   H1464     1.0  0.66324  0.02390  0.49580  1.0000
  H   H1465     1.0  0.63431  0.19534  0.52272  1.0000
  H   H1466     1.0  0.53122  0.20909  0.69040  1.0000
  H   H1467     1.0  0.50490  0.05389  0.57154  1.0000
  H   H1468     1.0  0.72104  0.17749  0.71916  1.0000
  H   H1469     1.0  0.53111  0.06253  0.52090  1.0000
  H   H1470     1.0  0.73481  0.04387  0.52440  1.0000
  S   S252      1.0  0.49609  0.00201  0.60880  1.0000
  C   C870      1.0  0.66533  0.07992  0.51139  1.0000
  N   N60       1.0  0.73222  0.16585  0.74475  1.0000
  H   H1471     1.0  0.49646  0.12720  0.71049  1.0000
  C   C871      1.0  0.49893  0.26662  0.69890  1.0000
  H   H1472     1.0  0.74014  0.97561  0.51237  1.0000
  C   C872      1.0  0.74077  0.95866  0.52763  1.0000
  H   H1473     1.0  0.73970  0.04372  0.57201  1.0000
  H   H1474     1.0  0.51429  0.00433  0.52936  1.0000
  H   H1475     1.0  0.66925  0.25300  0.71596  1.0000
  C   C873      1.0  0.66083  0.27746  0.71222  1.0000
  H   H1476     1.0  0.51125  0.18189  0.67097  1.0000
  C   C874      1.0  0.50649  0.21578  0.67287  1.0000
  H   H1477     1.0  0.64341  0.21187  0.49952  1.0000
  H   H1478     1.0  0.66973  0.13874  0.55921  1.0000
  N   N61       1.0  0.66329  0.12976  0.51058  1.0000
  H   H1479     1.0  0.53207  0.19542  0.71621  1.0000
  H   H1480     1.0  0.66213  0.30944  0.71734  1.0000
  H   H1481     1.0  0.51223  0.10039  0.56052  1.0000
  H   H1482     1.0  0.72774  0.42282  0.54166  1.0000
  H   H1483     1.0  0.67598  0.06783  0.51167  1.0000
  H   H1484     1.0  0.63978  0.28511  0.71421  1.0000
  H   H1485     1.0  0.74267  0.92259  0.52645  1.0000
  H   H1486     1.0  0.49774  0.21993  0.66423  1.0000
  H   H1487     1.0  0.64672  0.22968  0.71402  1.0000
  H   H1488     1.0  0.52673  0.01089  0.55133  1.0000
  H   H1489     1.0  0.66998  0.17827  0.52702  1.0000
  H   H1490     1.0  0.54437  0.95527  0.73932  1.0000
  H   H1491     1.0  0.51471  0.16100  0.70475  1.0000
  N   N62       1.0  0.50218  0.21939  0.69441  1.0000
  H   H1492     1.0  0.66301  0.18170  0.72746  1.0000
  C   C875      1.0  0.65949  0.17805  0.74339  1.0000
  H   H1493     1.0  0.52235  0.04394  0.72641  1.0000
  C   C876      1.0  0.66447  0.12508  0.54838  1.0000
  S   S253      1.0  0.49827  0.08990  0.64787  1.0000
  H   H1494     1.0  0.73295  0.47768  0.53517  1.0000
  C   C877      1.0  0.64756  0.26062  0.72053  1.0000
  C   C878      1.0  0.73416  0.44324  0.53126  1.0000
  H   H1495     1.0  0.73855  0.33267  0.57945  1.0000
  C   C879      1.0  0.51243  0.19617  0.70744  1.0000
  H   H1496     1.0  0.73688  0.14194  0.69543  1.0000
  N   N63       1.0  0.64522  0.25372  0.74275  1.0000
  Fe  Fe126     1.0  0.74038  0.09073  0.61230  1.0000
  C   C880      1.0  0.51060  0.09469  0.52242  1.0000
  C   C881      1.0  0.52497  0.04051  0.55923  1.0000
  H   H1497     1.0  0.50760  0.28547  0.69627  1.0000
  H   H1498     1.0  0.64430  0.13632  0.49908  1.0000
  H   H1499     1.0  0.52528  0.24957  0.70759  1.0000
  H   H1500     1.0  0.52065  0.26747  0.67163  1.0000
  H   H1501     1.0  0.68217  0.19732  0.49805  1.0000
  C   C882      1.0  0.73870  0.01740  0.56263  1.0000
  C   C883      1.0  0.73811  0.13312  0.71146  1.0000
  C   C884      1.0  0.52856  0.20534  0.50948  1.0000
  C   C885      1.0  0.64870  0.14349  0.51235  1.0000
  H   H1502     1.0  0.52723  0.10154  0.50031  1.0000
  N   N64       1.0  0.50442  0.06552  0.53953  1.0000
  Fe  Fe127     1.0  0.49957  0.06945  0.61713  1.0000
  H   H1503     1.0  0.73572  0.10386  0.54681  1.0000
  H   H1504     1.0  0.49970  0.95283  0.54478  1.0000
  S   S254      1.0  0.74327  0.13073  0.58272  1.0000
  H   H1505     1.0  0.73350  0.10204  0.71603  1.0000
  H   H1506     1.0  0.73111  0.96483  0.53623  1.0000
  H   H1507     1.0  0.49577  0.26747  0.71494  1.0000
  H   H1508     1.0  0.65046  0.20843  0.52285  1.0000
  H   H1509     1.0  0.49586  0.13798  0.68391  1.0000
  H   H1510     1.0  0.73590  0.20165  0.71558  1.0000
  H   H1511     1.0  0.62061  0.29693  0.73919  1.0000
  C   C886      1.0  0.70388  0.08336  0.50441  1.0000
  H   H1512     1.0  0.50296  0.98347  0.56389  1.0000
  H   H1513     1.0  0.73701  0.12023  0.52080  1.0000
  H   H1514     1.0  0.71252  0.11517  0.73426  1.0000
  H   H1515     1.0  0.73968  0.45246  0.56623  1.0000
  S   S255      1.0  0.69233  0.26978  0.73744  1.0000
  H   H1516     1.0  0.49887  0.02107  0.52050  1.0000
  C   C887      1.0  0.50430  0.01961  0.53385  1.0000
  H   H1517     1.0  0.74207  0.00056  0.68993  1.0000
  H   H1518     1.0  0.63295  0.20105  0.74232  1.0000
  H   H1519     1.0  0.63935  0.32476  0.74126  1.0000
  C   C888      1.0  0.74211  0.10003  0.53295  1.0000
  C   C889      1.0  0.62007  0.26080  0.74075  1.0000
  C   C890      1.0  0.74438  0.05139  0.52867  1.0000
  S   S256      1.0  0.74420  0.14522  0.62928  1.0000
  H   H1520     1.0  0.52644  0.22413  0.49550  1.0000
  Fe  Fe128     1.0  0.55521  0.70546  0.95918  1.0000
  S   S257      1.0  0.56348  0.64372  0.94563  1.0000
  H   H1521     1.0  0.70606  0.13763  0.75701  1.0000
  Fe  Fe129     1.0  0.55276  0.75838  0.91753  1.0000
  S   S258      1.0  0.56035  0.69840  0.90204  1.0000
  S   S259      1.0  0.54520  0.82467  0.89987  1.0000
  Fe  Fe130     1.0  0.54750  0.65981  0.92503  1.0000
  S   S260      1.0  0.53736  0.59749  0.92379  1.0000
  Fe  Fe131     1.0  0.57572  0.68642  0.92392  1.0000
  S   S261      1.0  0.59651  0.66341  0.91101  1.0000
  S   S262      1.0  0.53864  0.72005  0.93945  1.0000
  S   S263      1.0  0.56875  0.74807  0.93848  1.0000
  H   H1522     1.0  0.53082  0.51130  0.91982  1.0000
  Fe  Fe132     1.0  0.56300  0.04343  0.81625  1.0000
  S   S264      1.0  0.57194  0.10643  0.81882  1.0000
  S   S265      1.0  0.56822  0.98077  0.83803  1.0000
  Fe  Fe133     1.0  0.55467  0.07917  0.77390  1.0000
  S   S266      1.0  0.56384  0.14227  0.77370  1.0000
  H   H1523     1.0  0.62755  0.72208  0.91037  1.0000
  Fe  Fe134     1.0  0.58092  0.10181  0.78776  1.0000
  S   S267      1.0  0.60303  0.10502  0.77854  1.0000
  Fe  Fe135     1.0  0.55424  0.14285  0.80491  1.0000
  S   S268      1.0  0.54454  0.21235  0.80896  1.0000
  S   S269      1.0  0.57256  0.03791  0.78528  1.0000
  S   S270      1.0  0.54444  0.08075  0.80480  1.0000
  Fe  Fe136     1.0  0.66845  0.57778  0.94161  1.0000
  S   S271      1.0  0.68013  0.51369  0.95177  1.0000
  S   S272      1.0  0.64774  0.59576  0.95586  1.0000
  Fe  Fe137     1.0  0.69271  0.61294  0.91791  1.0000
  S   S273      1.0  0.70587  0.55064  0.92634  1.0000
  S   S274      1.0  0.69731  0.67975  0.90153  1.0000
  Fe  Fe138     1.0  0.68897  0.51401  0.91985  1.0000
  S   S275      1.0  0.68959  0.44715  0.90624  1.0000
  Fe  Fe139     1.0  0.69581  0.55537  0.95733  1.0000
  C   C891      1.0  0.72268  0.70390  0.95236  1.0000
  S   S276      1.0  0.67639  0.57690  0.90976  1.0000
  S   S277      1.0  0.68362  0.61878  0.94886  1.0000
  Fe  Fe140     1.0  0.66780  0.21488  0.80459  1.0000
  S   S278      1.0  0.67095  0.28387  0.79017  1.0000
  S   S279      1.0  0.64650  0.19915  0.81359  1.0000
  Fe  Fe141     1.0  0.69732  0.18947  0.80620  1.0000
  S   S280      1.0  0.70183  0.25698  0.79201  1.0000
  S   S281      1.0  0.71644  0.14455  0.80926  1.0000
  Fe  Fe142     1.0  0.68540  0.28490  0.81295  1.0000
  S   S282      1.0  0.68802  0.34738  0.82806  1.0000
  Fe  Fe143     1.0  0.68724  0.24968  0.77078  1.0000
  H   H1524     1.0  0.70823  0.18087  0.85212  1.0000
  S   S283      1.0  0.68159  0.21724  0.82821  1.0000
  S   S284      1.0  0.68332  0.18109  0.78404  1.0000
  C   C892      1.0  0.68889  0.42060  0.88418  1.0000
  C   C893      1.0  0.68686  0.37533  0.88609  1.0000
  C   C894      1.0  0.68632  0.35280  0.86931  1.0000
  C   C895      1.0  0.68812  0.37468  0.85007  1.0000
  C   C896      1.0  0.69022  0.41986  0.84816  1.0000
  C   C897      1.0  0.69050  0.44264  0.86494  1.0000
  H   H1525     1.0  0.68550  0.35766  0.90074  1.0000
  H   H1526     1.0  0.68441  0.31854  0.87129  1.0000
  H   H1527     1.0  0.69160  0.43757  0.83351  1.0000
  H   H1528     1.0  0.69211  0.47724  0.86295  1.0000
  C   C898      1.0  0.72629  0.02505  0.85517  1.0000
  C   C899      1.0  0.73566  0.03838  0.83993  1.0000
  C   C900      1.0  0.73245  0.07501  0.82599  1.0000
  C   C901      1.0  0.71984  0.09841  0.82704  1.0000
  C   C902      1.0  0.71045  0.08509  0.84224  1.0000
  C   C903      1.0  0.71370  0.04874  0.85630  1.0000
  H   H1529     1.0  0.72285  0.19817  0.76989  1.0000
  H   H1530     1.0  0.70070  0.10263  0.84312  1.0000
  H   H1531     1.0  0.70640  0.03858  0.86804  1.0000
  H   H1532     1.0  0.73548  0.22935  0.87115  1.0000
  C   C904      1.0  0.72534  0.76539  0.89130  1.0000
  C   C905      1.0  0.71325  0.74699  0.89385  1.0000
  C   C906      1.0  0.71278  0.70113  0.89859  1.0000
  C   C907      1.0  0.72454  0.67368  0.90055  1.0000
  H   H1533     1.0  0.49517  0.49972  0.91225  1.0000
  H   H1534     1.0  0.72557  0.80077  0.88777  1.0000
  H   H1535     1.0  0.70423  0.76850  0.89217  1.0000
  H   H1536     1.0  0.72432  0.63828  0.90394  1.0000
  C   C908      1.0  0.61487  0.13277  0.78807  1.0000
  C   C909      1.0  0.62820  0.12533  0.78090  1.0000
  C   C910      1.0  0.63801  0.14540  0.78842  1.0000
  C   C911      1.0  0.63459  0.17371  0.80308  1.0000
  C   C912      1.0  0.62126  0.18109  0.81024  1.0000
  C   C913      1.0  0.61147  0.16083  0.80282  1.0000
  H   H1537     1.0  0.63099  0.10333  0.76964  1.0000
  H   H1538     1.0  0.64823  0.13828  0.78317  1.0000
  H   H1539     1.0  0.61848  0.20268  0.82167  1.0000
  H   H1540     1.0  0.60128  0.16702  0.80850  1.0000
  C   C914      1.0  0.51820  0.27266  0.85936  1.0000
  C   C915      1.0  0.52210  0.22685  0.86110  1.0000
  C   C916      1.0  0.53048  0.20769  0.84609  1.0000
  C   C917      1.0  0.53511  0.23440  0.82929  1.0000
  C   C918      1.0  0.53150  0.28031  0.82784  1.0000
  C   C919      1.0  0.52305  0.29937  0.84275  1.0000
  H   H1541     1.0  0.51845  0.20599  0.87399  1.0000
  H   H1542     1.0  0.53320  0.17232  0.84740  1.0000
  H   H1543     1.0  0.53513  0.30123  0.81496  1.0000
  H   H1544     1.0  0.52029  0.33472  0.84137  1.0000
  C   C920      1.0  0.55191  0.86751  0.88264  1.0000
  C   C921      1.0  0.56533  0.86661  0.87619  1.0000
  C   C922      1.0  0.57007  0.90149  0.86267  1.0000
  C   C923      1.0  0.56154  0.93790  0.85529  1.0000
  C   C924      1.0  0.54813  0.93876  0.86170  1.0000
  C   C925      1.0  0.54339  0.90388  0.87518  1.0000
  H   H1545     1.0  0.57206  0.83909  0.88170  1.0000
  H   H1546     1.0  0.58046  0.90016  0.85792  1.0000
  H   H1547     1.0  0.54141  0.96662  0.85659  1.0000
  H   H1548     1.0  0.53302  0.90531  0.88010  1.0000
  C   C926      1.0  0.61053  0.64419  0.92396  1.0000
  C   C927      1.0  0.61034  0.64391  0.94442  1.0000
  C   C928      1.0  0.62178  0.62859  0.95399  1.0000
  C   C929      1.0  0.63347  0.61310  0.94326  1.0000
  C   C930      1.0  0.63359  0.61268  0.92286  1.0000
  C   C931      1.0  0.62223  0.62864  0.91324  1.0000
  H   H1549     1.0  0.60141  0.65577  0.95286  1.0000
  H   H1550     1.0  0.62155  0.62892  0.96980  1.0000
  H   H1551     1.0  0.64243  0.59992  0.91451  1.0000
  H   H1552     1.0  0.62248  0.62860  0.89741  1.0000
  C   C932      1.0  0.52953  0.57803  0.90518  1.0000
  C   C933      1.0  0.52499  0.60592  0.88898  1.0000
  C   C934      1.0  0.51777  0.58939  0.87564  1.0000
  C   C935      1.0  0.51500  0.54498  0.87837  1.0000
  C   C936      1.0  0.51998  0.51676  0.89417  1.0000
  C   C937      1.0  0.52718  0.53327  0.90749  1.0000
  H   H1553     1.0  0.52673  0.64042  0.88701  1.0000
  H   H1554     1.0  0.51405  0.61141  0.86337  1.0000
  H   H1555     1.0  0.51818  0.48232  0.89621  1.0000
  H   H1556     1.0  0.61147  0.25450  0.75160  1.0000
  C   C938      1.0  0.64475  0.29779  0.75065  1.0000
  H   H1557     1.0  0.56355  0.86329  0.80372  1.0000
  C   C939      1.0  0.73368  0.16812  0.85943  1.0000
  H   H1558     1.0  0.49932  0.57435  0.91083  1.0000
  C   C940      1.0  0.56628  0.89762  0.80140  1.0000
  H   H1559     1.0  0.71330  0.65274  0.94095  1.0000
  C   C941      1.0  0.71087  0.67810  0.95131  1.0000
  C   C942      1.0  0.53914  0.94542  0.75400  1.0000
  H   H1560     1.0  0.50562  0.44364  0.93494  1.0000
  H   H1561     1.0  0.53944  0.87323  0.82607  1.0000
  H   H1562     1.0  0.64029  0.33145  0.77713  1.0000
  H   H1563     1.0  0.73289  0.13448  0.86744  1.0000
  C   C943      1.0  0.52864  0.97474  0.81696  1.0000
  C   C944      1.0  0.72352  0.20303  0.75346  1.0000
  N   N65       1.0  0.73402  0.67957  0.96295  1.0000
  H   H1564     1.0  0.72868  0.18775  0.88840  1.0000
  S   S285      1.0  0.49645  0.41203  0.84635  1.0000
  C   C945      1.0  0.72828  0.20433  0.87298  1.0000
  C   C946      1.0  0.72916  0.66538  0.98412  1.0000
  H   H1565     1.0  0.49776  0.46666  0.95631  1.0000
  H   H1566     1.0  0.73976  0.73918  0.97225  1.0000
  H   H1567     1.0  0.73980  0.08516  0.81433  1.0000
  H   H1568     1.0  0.51958  0.99828  0.81790  1.0000
  H   H1569     1.0  0.71512  0.22808  0.82792  1.0000
  C   C947      1.0  0.65618  0.22308  0.75166  1.0000
  H   H1570     1.0  0.70476  0.28183  0.85252  1.0000
  C   C948      1.0  0.50769  0.22446  0.79433  1.0000
  H   H1571     1.0  0.66546  0.23917  0.74998  1.0000
  H   H1572     1.0  0.73981  0.57260  0.94759  1.0000
  C   C949      1.0  0.53365  0.86602  0.81439  1.0000
  H   H1573     1.0  0.57200  0.90405  0.78687  1.0000
  H   H1574     1.0  0.55682  0.91454  0.76565  1.0000
  H   H1575     1.0  0.54568  0.86092  0.78666  1.0000
  H   H1576     1.0  0.64316  0.27275  0.78248  1.0000
  H   H1577     1.0  0.65389  0.21570  0.76791  1.0000
  H   H1578     1.0  0.71884  0.73445  0.95930  1.0000
  H   H1579     1.0  0.66367  0.63616  0.98352  1.0000
  C   C950      1.0  0.70310  0.15641  0.88236  1.0000
  H   H1580     1.0  0.71246  0.13813  0.88681  1.0000
  N   N66       1.0  0.57966  0.54014  0.90409  1.0000
  C   C951      1.0  0.56692  0.53458  0.91686  1.0000
  C   C952      1.0  0.57811  0.58563  0.89266  1.0000
  C   C953      1.0  0.59036  0.53830  0.91772  1.0000
  C   C954      1.0  0.58226  0.50337  0.89099  1.0000
  C   C955      1.0  0.56639  0.49148  0.93117  1.0000
  C   C956      1.0  0.56692  0.59417  0.87887  1.0000
  C   C957      1.0  0.60443  0.54150  0.90789  1.0000
  C   C958      1.0  0.59141  0.51171  0.87169  1.0000
  H   H1581     1.0  0.56436  0.56253  0.92598  1.0000
  H   H1582     1.0  0.55863  0.53547  0.90757  1.0000
  H   H1583     1.0  0.58723  0.59412  0.88364  1.0000
  H   H1584     1.0  0.57623  0.61125  0.90308  1.0000
  H   H1585     1.0  0.58811  0.56518  0.92756  1.0000
  H   H1586     1.0  0.59102  0.50669  0.92766  1.0000
  H   H1587     1.0  0.58643  0.47233  0.89945  1.0000
  H   H1588     1.0  0.57282  0.49566  0.88628  1.0000
  H   H1589     1.0  0.56961  0.46149  0.92370  1.0000
  H   H1590     1.0  0.57213  0.49180  0.94397  1.0000
  H   H1591     1.0  0.55603  0.48909  0.93738  1.0000
  H   H1592     1.0  0.56819  0.62508  0.86878  1.0000
  H   H1593     1.0  0.56679  0.56712  0.86963  1.0000
  H   H1594     1.0  0.55720  0.59964  0.88740  1.0000
  H   H1595     1.0  0.60534  0.57211  0.89758  1.0000
  H   H1596     1.0  0.60815  0.51189  0.90038  1.0000
  H   H1597     1.0  0.61105  0.54250  0.91959  1.0000
  H   H1598     1.0  0.59780  0.48068  0.86922  1.0000
  H   H1599     1.0  0.59804  0.53760  0.87147  1.0000
  H   H1600     1.0  0.58557  0.51928  0.85870  1.0000
  N   N67       1.0  0.61239  0.02670  0.84116  1.0000
  C   C959      1.0  0.62395  0.03525  0.82615  1.0000
  C   C960      1.0  0.60513  0.99250  0.83407  1.0000
  C   C961      1.0  0.61759  0.00906  0.86083  1.0000
  C   C962      1.0  0.60388  0.06999  0.84254  1.0000
  C   C963      1.0  0.63395  0.06417  0.83199  1.0000
  C   C964      1.0  0.60043  0.00363  0.81321  1.0000
  C   C965      1.0  0.60935  0.97714  0.87504  1.0000
  C   C966      1.0  0.59142  0.06876  0.85707  1.0000
  H   H1601     1.0  0.62957  0.00339  0.82260  1.0000
  H   H1602     1.0  0.62058  0.05214  0.81193  1.0000
  H   H1603     1.0  0.59626  0.98541  0.84415  1.0000
  H   H1604     1.0  0.61147  0.96039  0.83408  1.0000
  H   H1605     1.0  0.62741  0.98979  0.85858  1.0000
  H   H1606     1.0  0.61921  0.03682  0.86906  1.0000
  H   H1607     1.0  0.60945  0.09517  0.84722  1.0000
  H   H1608     1.0  0.60083  0.08427  0.82776  1.0000
  H   H1609     1.0  0.62954  0.09831  0.83385  1.0000
  H   H1610     1.0  0.63865  0.04952  0.84548  1.0000
  H   H1611     1.0  0.64196  0.06728  0.81982  1.0000
  H   H1612     1.0  0.59390  0.03494  0.81184  1.0000
  H   H1613     1.0  0.60870  0.00481  0.80143  1.0000
  H   H1614     1.0  0.59458  0.97720  0.81039  1.0000
  H   H1615     1.0  0.61319  0.97240  0.88981  1.0000
  H   H1616     1.0  0.61026  0.94402  0.86974  1.0000
  H   H1617     1.0  0.59879  0.98910  0.87716  1.0000
  H   H1618     1.0  0.58470  0.04573  0.85353  1.0000
  H   H1619     1.0  0.58588  0.10225  0.85607  1.0000
  H   H1620     1.0  0.59384  0.06077  0.87258  1.0000
  H   H1621     1.0  0.55075  0.92778  0.81989  1.0000
  H   H1622     1.0  0.73738  0.25436  0.75006  1.0000
  H   H1623     1.0  0.69538  0.21369  0.86392  1.0000
  H   H1624     1.0  0.55779  0.96540  0.80156  1.0000
  H   H1625     1.0  0.49646  0.64617  0.91812  1.0000
  C   C967      1.0  0.63864  0.29957  0.77215  1.0000
  N   N68       1.0  0.65834  0.73680  0.90824  1.0000
  C   C968      1.0  0.66626  0.75945  0.89077  1.0000
  C   C969      1.0  0.65885  0.68888  0.90490  1.0000
  C   C970      1.0  0.66505  0.73974  0.92652  1.0000
  C   C971      1.0  0.64454  0.76003  0.90958  1.0000
  C   C972      1.0  0.66876  0.80759  0.89220  1.0000
  C   C973      1.0  0.65327  0.68036  0.88585  1.0000
  C   C974      1.0  0.65887  0.71782  0.94627  1.0000
  C   C975      1.0  0.63356  0.73354  0.92088  1.0000
  H   H1626     1.0  0.67607  0.74046  0.88797  1.0000
  H   H1627     1.0  0.66136  0.76055  0.87696  1.0000
  H   H1628     1.0  0.65373  0.66897  0.91731  1.0000
  H   H1629     1.0  0.66919  0.67327  0.90434  1.0000
  H   H1630     1.0  0.67550  0.72520  0.92467  1.0000
  H   H1631     1.0  0.66531  0.77479  0.92896  1.0000
  H   H1632     1.0  0.64426  0.79122  0.91644  1.0000
  H   H1633     1.0  0.64137  0.77028  0.89446  1.0000
  H   H1634     1.0  0.67283  0.82237  0.87747  1.0000
  H   H1635     1.0  0.65965  0.82857  0.89651  1.0000
  H   H1636     1.0  0.67630  0.80886  0.90252  1.0000
  H   H1637     1.0  0.64323  0.69721  0.88439  1.0000
  H   H1638     1.0  0.65986  0.69007  0.87249  1.0000
  H   H1639     1.0  0.65270  0.64428  0.88617  1.0000
  H   H1640     1.0  0.64921  0.73553  0.95077  1.0000
  H   H1641     1.0  0.66535  0.71998  0.95802  1.0000
  H   H1642     1.0  0.65803  0.68222  0.94614  1.0000
  H   H1643     1.0  0.62661  0.75584  0.92962  1.0000
  H   H1644     1.0  0.63687  0.70514  0.93139  1.0000
  S   S286      1.0  0.50491  0.52675  0.86217  1.0000
  H   H1645     1.0  0.66693  0.56244  0.98738  1.0000
  H   H1646     1.0  0.73726  0.58108  0.97302  1.0000
  H   H1647     1.0  0.72316  0.69341  0.99082  1.0000
  H   H1648     1.0  0.51004  0.49502  0.94030  1.0000
  H   H1649     1.0  0.70680  0.66320  0.96592  1.0000
  C   C976      1.0  0.72035  0.25327  0.83311  1.0000
  S   S287      1.0  0.72982  0.97956  0.87326  1.0000
  H   H1650     1.0  0.69848  0.25877  0.88825  1.0000
  C   C977      1.0  0.55423  0.93208  0.80400  1.0000
  H   H1651     1.0  0.72683  0.27529  0.89444  1.0000
  H   H1652     1.0  0.71900  0.28363  0.82245  1.0000
  C   C978      1.0  0.73663  0.69202  0.89772  1.0000
  H   H1653     1.0  0.55380  0.97205  0.76795  1.0000
  N   N69       1.0  0.71461  0.22678  0.87022  1.0000
  H   H1654     1.0  0.70922  0.21971  0.90194  1.0000
  C   C979      1.0  0.70524  0.19539  0.86611  1.0000
  H   H1655     1.0  0.73458  0.09400  0.74959  1.0000
  C   C980      1.0  0.70903  0.24582  0.88906  1.0000
  H   H1656     1.0  0.70283  0.70138  0.94504  1.0000
  S   S288      1.0  0.54170  0.06040  0.75131  1.0000
  C   C981      1.0  0.71603  0.28350  0.89489  1.0000
  S   S289      1.0  0.50692  0.29498  0.87786  1.0000
  H   H1657     1.0  0.72591  0.71531  0.93673  1.0000
  C   C982      1.0  0.71485  0.26464  0.85381  1.0000
  H   H1658     1.0  0.74082  0.15906  0.78152  1.0000
  H   H1659     1.0  0.53489  0.82933  0.81519  1.0000
  H   H1660     1.0  0.52314  0.95976  0.78932  1.0000
  H   H1661     1.0  0.52979  0.88693  0.78454  1.0000
  C   C983      1.0  0.72739  0.25008  0.74653  1.0000
  H   H1662     1.0  0.69705  0.16758  0.89555  1.0000
  H   H1663     1.0  0.51586  0.24453  0.78844  1.0000
  H   H1664     1.0  0.72764  0.11921  0.77051  1.0000
  H   H1665     1.0  0.65113  0.15769  0.74595  1.0000
  H   H1666     1.0  0.53518  0.91375  0.75303  1.0000
  H   H1667     1.0  0.52667  0.94447  0.82691  1.0000
  H   H1668     1.0  0.53643  0.99069  0.82254  1.0000
  H   H1669     1.0  0.52309  0.87689  0.81815  1.0000
  C   C984      1.0  0.53834  0.88585  0.79331  1.0000
  H   H1670     1.0  0.72435  0.59750  0.95706  1.0000
  H   H1671     1.0  0.63073  0.22442  0.76454  1.0000
  H   H1672     1.0  0.72096  0.29005  0.85695  1.0000
  H   H1673     1.0  0.72926  0.17050  0.84530  1.0000
  H   H1674     1.0  0.71240  0.28956  0.91029  1.0000
  S   S290      1.0  0.70676  0.54621  0.98578  1.0000
  H   H1675     1.0  0.51239  0.19014  0.79777  1.0000
  H   H1676     1.0  0.53471  0.99908  0.78734  1.0000
  C   C985      1.0  0.73709  0.73793  0.89320  1.0000
  H   H1677     1.0  0.57300  0.90019  0.81280  1.0000
  C   C986      1.0  0.50066  0.31857  0.80130  1.0000
  H   H1678     1.0  0.69755  0.13253  0.87663  1.0000
  C   C987      1.0  0.53230  0.96642  0.79520  1.0000
  N   N70       1.0  0.54335  0.93070  0.79106  1.0000
  H   H1679     1.0  0.73107  0.24289  0.83244  1.0000
  C   C988      1.0  0.50053  0.24027  0.81353  1.0000
  H   H1680     1.0  0.71173  0.08051  0.75727  1.0000
  H   H1681     1.0  0.50823  0.24164  0.82358  1.0000
  H   H1682     1.0  0.72243  0.63942  0.98506  1.0000
  H   H1683     1.0  0.50453  0.31108  0.78617  1.0000
  C   C989      1.0  0.72765  0.12235  0.75416  1.0000
  H   H1684     1.0  0.50943  0.31879  0.80946  1.0000
  H   H1685     1.0  0.50093  0.22378  0.78287  1.0000
  H   H1686     1.0  0.62786  0.29803  0.77346  1.0000
  C   C990      1.0  0.54899  0.94077  0.76987  1.0000
  H   H1687     1.0  0.71362  0.31518  0.88552  1.0000
  S   S291      1.0  0.49545  0.41461  0.89486  1.0000
  C   C991      1.0  0.74393  0.71217  0.96318  1.0000
  H   H1688     1.0  0.50161  0.38928  0.79324  1.0000
  C   C992      1.0  0.73503  0.59603  0.95797  1.0000
  Fe  Fe144     1.0  0.49559  0.36342  0.87381  1.0000
  H   H1689     1.0  0.72045  0.27416  0.75433  1.0000
  H   H1690     1.0  0.74172  0.75945  0.93619  1.0000
  H   H1691     1.0  0.74016  0.64944  0.93603  1.0000
  H   H1692     1.0  0.71326  0.20346  0.74978  1.0000
  H   H1693     1.0  0.53097  0.97181  0.75628  1.0000
  C   C993      1.0  0.50165  0.47530  0.94075  1.0000
  H   H1694     1.0  0.65482  0.30819  0.75006  1.0000
  C   C994      1.0  0.63251  0.23334  0.74828  1.0000
  C   C995      1.0  0.71370  0.11409  0.75022  1.0000
  C   C996      1.0  0.74051  0.64127  0.95226  1.0000
  S   S292      1.0  0.55483  0.69559  0.99327  1.0000
  H   H1695     1.0  0.50401  0.56574  0.93484  1.0000
  H   H1696     1.0  0.74438  0.16999  0.85554  1.0000
  C   C997      1.0  0.49525  0.57561  0.92645  1.0000
  H   H1697     1.0  0.66761  0.15884  0.75124  1.0000
  H   H1698     1.0  0.66599  0.48716  0.99461  1.0000
  H   H1699     1.0  0.64680  0.64395  0.99422  1.0000
  H   H1700     1.0  0.49481  0.21311  0.82071  1.0000
  H   H1701     1.0  0.91289  0.81069  0.00677  1.0000
  H   H1702     1.0  0.75494  0.96212  0.03231  1.0000
  Fe  Fe145     1.0  0.94701  0.87538  0.07800  1.0000
  S   S293      1.0  0.95108  0.80464  0.07091  1.0000
  S   S294      1.0  0.96483  0.89898  0.08956  1.0000
  Fe  Fe146     1.0  0.91887  0.88324  0.06519  1.0000
  S   S295      1.0  0.92134  0.81350  0.05753  1.0000
  S   S296      1.0  0.90085  0.93266  0.05880  1.0000
  Fe  Fe147     1.0  0.93096  0.79469  0.08603  1.0000
  S   S297      1.0  0.92377  0.73916  0.10935  1.0000
  Fe  Fe148     1.0  0.94125  0.82950  0.04305  1.0000
  H   H1703     1.0  0.74600  0.78961  0.09575  1.0000
  S   S298      1.0  0.92727  0.86437  0.09458  1.0000
  S   S299      1.0  0.93839  0.90024  0.04923  1.0000
  Fe  Fe149     1.0  0.91019  0.45436  0.19808  1.0000
  S   S300      1.0  0.92279  0.45590  0.16912  1.0000
  S   S301      1.0  0.88767  0.45757  0.20251  1.0000
  Fe  Fe150     1.0  0.93417  0.44861  0.22271  1.0000
  S   S302      1.0  0.94851  0.44941  0.19539  1.0000
  N   N71       1.0  0.78022  0.31048  0.11482  1.0000
  Fe  Fe151     1.0  0.93417  0.50342  0.18119  1.0000
  S   S303      1.0  0.94411  0.55698  0.15999  1.0000
  Fe  Fe152     1.0  0.93635  0.40294  0.18472  1.0000
  S   S304      1.0  0.94330  0.33834  0.17226  1.0000
  S   S305      1.0  0.92061  0.50587  0.20951  1.0000
  S   S306      1.0  0.92291  0.39801  0.21266  1.0000
  Fe  Fe153     1.0  0.82163  0.94193  0.05943  1.0000
  S   S307      1.0  0.81968  0.00942  0.04201  1.0000
  S   S308      1.0  0.84050  0.89645  0.06520  1.0000
  Fe  Fe154     1.0  0.79188  0.94438  0.07037  1.0000
  S   S309      1.0  0.78844  0.01332  0.05450  1.0000
  S   S310      1.0  0.77317  0.91378  0.08362  1.0000
  Fe  Fe155     1.0  0.80220  0.98671  0.02967  1.0000
  Fe  Fe156     1.0  0.80600  0.02984  0.06846  1.0000
  S   S311      1.0  0.80985  0.09436  0.08104  1.0000
  S   S312      1.0  0.80519  0.91783  0.04549  1.0000
  S   S313      1.0  0.80842  0.96238  0.08596  1.0000
  Fe  Fe157     1.0  0.82903  0.31284  0.18732  1.0000
  S   S314      1.0  0.81742  0.25634  0.20127  1.0000
  S   S315      1.0  0.85143  0.31223  0.18617  1.0000
  Fe  Fe158     1.0  0.80493  0.36513  0.17065  1.0000
  S   S316      1.0  0.79174  0.31350  0.18333  1.0000
  S   S317      1.0  0.80001  0.43094  0.15239  1.0000
  Fe  Fe159     1.0  0.80205  0.31034  0.21121  1.0000
  H   H1704     1.0  0.99120  0.34235  0.15744  1.0000
  Fe  Fe160     1.0  0.80797  0.26327  0.17232  1.0000
  S   S318      1.0  0.80253  0.20432  0.15730  1.0000
  S   S319      1.0  0.81426  0.36570  0.19883  1.0000
  S   S320      1.0  0.82053  0.31605  0.15805  1.0000
  C   C998      1.0  0.76901  0.51576  0.13463  1.0000
  C   C999      1.0  0.78173  0.49671  0.13852  1.0000
  C   C1000     1.0  0.78382  0.45337  0.14798  1.0000
  C   C1001     1.0  0.77307  0.42907  0.15358  1.0000
  H   H1705     1.0  0.76752  0.54913  0.12726  1.0000
  H   H1706     1.0  0.78999  0.51573  0.13411  1.0000
  C   C1002     1.0  0.80766  0.12409  0.10257  1.0000
  C   C1003     1.0  0.81429  0.16205  0.10237  1.0000
  C   C1004     1.0  0.81311  0.18626  0.11895  1.0000
  C   C1005     1.0  0.80507  0.17352  0.13611  1.0000
  C   C1006     1.0  0.79847  0.13554  0.13632  1.0000
  C   C1007     1.0  0.79982  0.11088  0.11986  1.0000
  H   H1707     1.0  0.82046  0.17276  0.08925  1.0000
  H   H1708     1.0  0.81836  0.21502  0.11840  1.0000
  H   H1709     1.0  0.79222  0.12498  0.14939  1.0000
  H   H1710     1.0  0.79466  0.08187  0.12050  1.0000
  C   C1008     1.0  0.77090  0.85676  0.08612  1.0000
  C   C1009     1.0  0.78148  0.82401  0.08446  1.0000
  C   C1010     1.0  0.75589  0.79898  0.09281  1.0000
  C   C1011     1.0  0.75809  0.84403  0.09020  1.0000
  H   H1711     1.0  0.95341  0.42348  0.14584  1.0000
  C   C1012     1.0  0.89056  0.34807  0.23846  1.0000
  C   C1013     1.0  0.87784  0.41599  0.19848  1.0000
  C   C1014     1.0  0.88310  0.37918  0.18898  1.0000
  C   C1015     1.0  0.87489  0.34757  0.18563  1.0000
  C   C1016     1.0  0.86134  0.35224  0.19167  1.0000
  C   C1017     1.0  0.85612  0.38862  0.20154  1.0000
  C   C1018     1.0  0.86433  0.42032  0.20487  1.0000
  H   H1712     1.0  0.89347  0.37519  0.18404  1.0000
  H   H1713     1.0  0.87907  0.31943  0.17811  1.0000
  H   H1714     1.0  0.84576  0.39235  0.20653  1.0000
  H   H1715     1.0  0.86016  0.44849  0.21235  1.0000
  C   C1019     1.0  0.92962  0.68733  0.12240  1.0000
  C   C1020     1.0  0.94276  0.66912  0.12025  1.0000
  C   C1021     1.0  0.94696  0.62925  0.13178  1.0000
  C   C1022     1.0  0.93810  0.60659  0.14544  1.0000
  C   C1023     1.0  0.92493  0.62441  0.14734  1.0000
  C   C1024     1.0  0.92076  0.66450  0.13597  1.0000
  H   H1716     1.0  0.94970  0.68588  0.10981  1.0000
  H   H1717     1.0  0.95718  0.61596  0.13012  1.0000
  H   H1718     1.0  0.91796  0.60765  0.15774  1.0000
  H   H1719     1.0  0.91058  0.67811  0.13781  1.0000
  C   C1025     1.0  0.88422  0.92120  0.05994  1.0000
  C   C1026     1.0  0.87482  0.95423  0.05223  1.0000
  C   C1027     1.0  0.86143  0.94709  0.05338  1.0000
  C   C1028     1.0  0.85730  0.90680  0.06238  1.0000
  C   C1029     1.0  0.86675  0.87354  0.06976  1.0000
  C   C1030     1.0  0.88013  0.88063  0.06856  1.0000
  H   H1720     1.0  0.87789  0.98565  0.04540  1.0000
  H   H1721     1.0  0.85430  0.97280  0.04743  1.0000
  H   H1722     1.0  0.86368  0.84219  0.07669  1.0000
  H   H1723     1.0  0.88723  0.85489  0.07458  1.0000
  C   C1031     1.0  0.98500  0.28084  0.15160  1.0000
  C   C1032     1.0  0.98294  0.32335  0.15783  1.0000
  C   C1033     1.0  0.97024  0.34140  0.16447  1.0000
  C   C1034     1.0  0.95952  0.31710  0.16475  1.0000
  C   C1035     1.0  0.96162  0.27462  0.15863  1.0000
  C   C1036     1.0  0.97429  0.25648  0.15213  1.0000
  C   C1037     1.0  0.76931  0.39099  0.10706  1.0000
  H   H1724     1.0  0.96872  0.37416  0.16912  1.0000
  H   H1725     1.0  0.95337  0.25562  0.15878  1.0000
  H   H1726     1.0  0.97575  0.22377  0.14735  1.0000
  C   C1038     1.0  0.97290  0.02698  0.11318  1.0000
  C   C1039     1.0  0.96050  0.02342  0.10693  1.0000
  C   C1040     1.0  0.95785  0.98473  0.09955  1.0000
  C   C1041     1.0  0.96756  0.94889  0.09851  1.0000
  C   C1042     1.0  0.97992  0.95229  0.10493  1.0000
  C   C1043     1.0  0.98258  0.99104  0.11224  1.0000
  H   H1727     1.0  0.94830  0.98267  0.09468  1.0000
  H   H1728     1.0  0.74983  0.86919  0.09138  1.0000
  H   H1729     1.0  0.96182  0.75427  0.15337  1.0000
  H   H1730     1.0  0.75670  0.51151  0.22521  1.0000
  H   H1731     1.0  0.97418  0.11259  0.04933  1.0000
  H   H1732     1.0  0.89736  0.78515  0.03195  1.0000
  H   H1733     1.0  0.75954  0.41049  0.10913  1.0000
  H   H1734     1.0  0.79609  0.38334  0.10491  1.0000
  H   H1735     1.0  0.88982  0.91083  0.01886  1.0000
  H   H1736     1.0  0.78794  0.33851  0.13823  1.0000
  H   H1737     1.0  0.75764  0.70622  0.16636  1.0000
  H   H1738     1.0  0.76435  0.85890  0.14703  1.0000
  H   H1739     1.0  0.97301  0.38660  0.20291  1.0000
  C   C1044     1.0  0.75145  0.82664  0.03988  1.0000
  H   H1740     1.0  0.96643  0.07574  0.06798  1.0000
  H   H1741     1.0  0.74913  0.47548  0.21338  1.0000
  H   H1742     1.0  0.74605  0.74859  0.18770  1.0000
  H   H1743     1.0  0.74819  0.87721  0.13940  1.0000
  H   H1744     1.0  0.98839  0.25296  0.21009  1.0000
  C   C1045     1.0  0.79292  0.43997  0.23002  1.0000
  H   H1745     1.0  0.78529  0.52468  0.20544  1.0000
  C   C1046     1.0  0.97987  0.27868  0.21133  1.0000
  C   C1047     1.0  0.97940  0.38584  0.21496  1.0000
  H   H1746     1.0  0.79754  0.45555  0.21589  1.0000
  C   C1048     1.0  0.91847  0.94016  0.00481  1.0000
  H   H1747     1.0  0.92862  0.94162  0.00858  1.0000
  C   C1049     1.0  0.89136  0.90494  0.00302  1.0000
  H   H1748     1.0  0.80252  0.26570  0.09680  1.0000
  H   H1749     1.0  0.97146  0.26508  0.20622  1.0000
  H   H1750     1.0  0.98858  0.15314  0.06282  1.0000
  H   H1751     1.0  0.94474  0.52038  0.08126  1.0000
  C   C1050     1.0  0.74566  0.75524  0.14731  1.0000
  H   H1752     1.0  0.94000  0.51434  0.10732  1.0000
  C   C1051     1.0  0.86583  0.50155  0.15383  1.0000
  H   H1753     1.0  0.86542  0.44619  0.13792  1.0000
  H   H1754     1.0  0.87671  0.49626  0.15098  1.0000
  H   H1755     1.0  0.86222  0.53015  0.14349  1.0000
  H   H1756     1.0  0.85805  0.38357  0.13509  1.0000
  H   H1757     1.0  0.86377  0.50954  0.16931  1.0000
  N   N72       1.0  0.84861  0.02819  0.10200  1.0000
  C   C1052     1.0  0.85468  0.04956  0.08258  1.0000
  C   C1053     1.0  0.85978  0.00706  0.11376  1.0000
  C   C1054     1.0  0.84066  0.06432  0.11257  1.0000
  C   C1055     1.0  0.83991  0.99514  0.09748  1.0000
  C   C1056     1.0  0.84503  0.07725  0.06886  1.0000
  C   C1057     1.0  0.86871  0.96934  0.10463  1.0000
  C   C1058     1.0  0.83745  0.05468  0.13511  1.0000
  C   C1059     1.0  0.83447  0.96319  0.11488  1.0000
  H   H1758     1.0  0.86204  0.07167  0.08516  1.0000
  H   H1759     1.0  0.86017  0.02428  0.07368  1.0000
  H   H1760     1.0  0.85629  0.99330  0.12889  1.0000
  H   H1761     1.0  0.86617  0.03256  0.11610  1.0000
  H   H1762     1.0  0.84573  0.09504  0.11031  1.0000
  H   H1763     1.0  0.83110  0.07375  0.10622  1.0000
  H   H1764     1.0  0.83113  0.01255  0.09054  1.0000
  H   H1765     1.0  0.84479  0.97488  0.08589  1.0000
  H   H1766     1.0  0.85068  0.09106  0.05520  1.0000
  H   H1767     1.0  0.83799  0.05688  0.06410  1.0000
  H   H1768     1.0  0.83957  0.10576  0.07569  1.0000
  H   H1769     1.0  0.87489  0.98197  0.09132  1.0000
  H   H1770     1.0  0.87561  0.95325  0.11546  1.0000
  H   H1771     1.0  0.86307  0.94321  0.10100  1.0000
  H   H1772     1.0  0.83283  0.02372  0.13948  1.0000
  H   H1773     1.0  0.83030  0.08196  0.14023  1.0000
  H   H1774     1.0  0.84632  0.05411  0.14308  1.0000
  H   H1775     1.0  0.82468  0.97707  0.12117  1.0000
  H   H1776     1.0  0.84101  0.95369  0.12680  1.0000
  H   H1777     1.0  0.83328  0.93146  0.10932  1.0000
  H   H1778     1.0  0.79862  0.44670  0.24201  1.0000
  C   C1060     1.0  0.77739  0.51985  0.19639  1.0000
  C   C1061     1.0  0.77644  0.26602  0.12449  1.0000
  H   H1779     1.0  0.76801  0.38564  0.23427  1.0000
  H   H1780     1.0  0.77614  0.40850  0.11390  1.0000
  H   H1781     1.0  0.77186  0.39212  0.09090  1.0000
  C   C1062     1.0  0.77107  0.26389  0.14646  1.0000
  H   H1782     1.0  0.79790  0.29206  0.13024  1.0000
  H   H1783     1.0  0.95089  0.76789  0.11711  1.0000
  H   H1784     1.0  0.96581  0.73522  0.12139  1.0000
  H   H1785     1.0  0.78502  0.24035  0.12391  1.0000
  Fe  Fe161     1.0  0.74577  0.67498  0.10477  1.0000
  H   H1786     1.0  0.95037  0.90189  0.00145  1.0000
  H   H1787     1.0  0.79763  0.27360  0.07211  1.0000
  H   H1788     1.0  0.79826  0.80984  0.01824  1.0000
  C   C1063     1.0  0.79182  0.84025  0.01357  1.0000
  N   N73       1.0  0.90451  0.87848  0.99879  1.0000
  H   H1789     1.0  0.76856  0.54309  0.19966  1.0000
  H   H1790     1.0  0.98692  0.02838  0.07262  1.0000
  H   H1791     1.0  0.98270  0.46126  0.14580  1.0000
  H   H1792     1.0  0.77755  0.27793  0.15537  1.0000
  H   H1793     1.0  0.93708  0.74913  0.17442  1.0000
  H   H1794     1.0  0.77064  0.22865  0.15262  1.0000
  C   C1064     1.0  0.75589  0.87351  0.03513  1.0000
  H   H1795     1.0  0.98749  0.92471  0.10427  1.0000
  H   H1796     1.0  0.97318  0.05561  0.04540  1.0000
  H   H1797     1.0  0.78969  0.23619  0.09039  1.0000
  H   H1798     1.0  0.76092  0.28057  0.14835  1.0000
  C   C1065     1.0  0.91490  0.89239  0.00996  1.0000
  C   C1066     1.0  0.96268  0.85082  0.17195  1.0000
  H   H1799     1.0  0.97542  0.51443  0.15144  1.0000
  C   C1067     1.0  0.96084  0.76938  0.12154  1.0000
  C   C1068     1.0  0.77874  0.84069  0.02689  1.0000
  H   H1800     1.0  0.77640  0.91712  0.04120  1.0000
  H   H1801     1.0  0.95993  0.87039  0.13246  1.0000
  C   C1069     1.0  0.97477  0.07784  0.05629  1.0000
  C   C1070     1.0  0.74905  0.82182  0.16331  1.0000
  C   C1071     1.0  0.79159  0.32232  0.12473  1.0000
  H   H1802     1.0  0.84403  0.40127  0.12051  1.0000
  H   H1803     1.0  0.97578  0.40698  0.13249  1.0000
  H   H1804     1.0  0.76675  0.47032  0.18823  1.0000
  C   C1072     1.0  0.77363  0.92030  0.02576  1.0000
  H   H1805     1.0  0.96606  0.79193  0.11013  1.0000
  H   H1806     1.0  0.76575  0.34788  0.13345  1.0000
  H   H1807     1.0  0.76915  0.99102  0.02685  1.0000
  H   H1808     1.0  0.93992  0.29589  0.24049  1.0000
  S   S321      1.0  0.94846  0.80680  0.01277  1.0000
  C   C1073     1.0  0.84984  0.49046  0.11268  1.0000
  H   H1809     1.0  0.77523  0.80804  0.02650  1.0000
  H   H1810     1.0  0.89807  0.84019  0.03757  1.0000
  H   H1811     1.0  0.93577  0.39746  0.13590  1.0000
  H   H1812     1.0  0.76255  0.70828  0.14058  1.0000
  H   H1813     1.0  0.95292  0.05095  0.10768  1.0000
  H   H1814     1.0  0.79138  0.83331  0.08134  1.0000
  H   H1815     1.0  0.86278  0.43364  0.16354  1.0000
  C   C1074     1.0  0.77845  0.45848  0.23433  1.0000
  H   H1816     1.0  0.82049  0.45266  0.17640  1.0000
  C   C1075     1.0  0.85994  0.45890  0.15117  1.0000
  H   H1817     1.0  0.96234  0.88426  0.16351  1.0000
  H   H1818     1.0  0.78276  0.92627  0.01616  1.0000
  C   C1076     1.0  0.76652  0.76617  0.09170  1.0000
  H   H1819     1.0  0.85557  0.45815  0.11104  1.0000
  C   C1077     1.0  0.75826  0.49141  0.14004  1.0000
  C   C1078     1.0  0.94855  0.51588  0.09605  1.0000
  H   H1820     1.0  0.95341  0.54590  0.09714  1.0000
  C   C1079     1.0  0.75491  0.84765  0.14424  1.0000
  H   H1821     1.0  0.77455  0.39570  0.16090  1.0000
  H   H1822     1.0  0.75764  0.82734  0.13194  1.0000
  H   H1823     1.0  0.91186  0.88883  0.02605  1.0000
  C   C1080     1.0  0.77929  0.77899  0.08730  1.0000
  H   H1824     1.0  0.85653  0.51697  0.11051  1.0000
  H   H1825     1.0  0.97714  0.35106  0.11016  1.0000
  C   C1081     1.0  0.76034  0.44802  0.14955  1.0000
  N   N74       1.0  0.76843  0.87855  0.02176  1.0000
  H   H1826     1.0  0.95430  0.44835  0.09084  1.0000
  C   C1082     1.0  0.84720  0.38870  0.13533  1.0000
  S   S322      1.0  0.97577  0.07699  0.12188  1.0000
  N   N75       1.0  0.76936  0.45227  0.21927  1.0000
  H   H1827     1.0  0.94497  0.47579  0.13825  1.0000
  H   H1828     1.0  0.98234  0.30768  0.20091  1.0000
  C   C1083     1.0  0.84086  0.49305  0.13221  1.0000
  C   C1084     1.0  0.95839  0.47368  0.09784  1.0000
  H   H1829     1.0  0.96740  0.48101  0.08795  1.0000
  N   N76       1.0  0.84523  0.46340  0.15021  1.0000
  H   H1830     1.0  0.84285  0.46460  0.18203  1.0000
  C   C1085     1.0  0.95019  0.44529  0.13256  1.0000
  S   S323      1.0  0.76448  0.70890  0.09585  1.0000
  H   H1831     1.0  0.78758  0.75387  0.08631  1.0000
  H   H1832     1.0  0.98892  0.36585  0.21174  1.0000
  H   H1833     1.0  0.84215  0.39889  0.16575  1.0000
  H   H1834     1.0  0.84388  0.35520  0.13902  1.0000
  C   C1086     1.0  0.83894  0.48330  0.16849  1.0000
  C   C1087     1.0  0.95082  0.82632  0.16920  1.0000
  C   C1088     1.0  0.76582  0.88375  0.00028  1.0000
  C   C1089     1.0  0.84068  0.41805  0.15106  1.0000
  H   H1835     1.0  0.84362  0.49752  0.10010  1.0000
  C   C1090     1.0  0.95002  0.85842  0.13407  1.0000
  C   C1091     1.0  0.79398  0.26832  0.08800  1.0000
  H   H1836     1.0  0.82994  0.42041  0.14964  1.0000
  H   H1837     1.0  0.94859  0.85116  0.11901  1.0000
  H   H1838     1.0  0.77457  0.30249  0.08602  1.0000
  C   C1092     1.0  0.96795  0.49380  0.12592  1.0000
  H   H1839     1.0  0.89658  0.36867  0.22743  1.0000
  H   H1840     1.0  0.95166  0.79490  0.17933  1.0000
  H   H1841     1.0  0.99209  0.99305  0.11725  1.0000
  H   H1842     1.0  0.96063  0.52332  0.12714  1.0000
  H   H1843     1.0  0.96245  0.85561  0.18780  1.0000
  H   H1844     1.0  0.94084  0.90925  0.15302  1.0000
  H   H1845     1.0  0.97032  0.79830  0.14199  1.0000
  C   C1093     1.0  0.96082  0.78415  0.14231  1.0000
  H   H1846     1.0  0.76241  0.97240  0.00700  1.0000
  H   H1847     1.0  0.75754  0.90977  0.99741  1.0000
  H   H1848     1.0  0.98118  0.42778  0.10794  1.0000
  H   H1849     1.0  0.97614  0.50527  0.11522  1.0000
  S   S324      1.0  0.79470  0.00163  0.99833  1.0000
  H   H1850     1.0  0.88320  0.88593  0.00055  1.0000
  H   H1851     1.0  0.84006  0.52837  0.13501  1.0000
  H   H1852     1.0  0.79729  0.86847  0.01505  1.0000
  H   H1853     1.0  0.80737  0.33507  0.10084  1.0000
  N   N77       1.0  0.94953  0.81706  0.14843  1.0000
  H   H1854     1.0  0.75074  0.81065  0.02652  1.0000
  N   N78       1.0  0.96193  0.45701  0.11850  1.0000
  H   H1855     1.0  0.99367  0.11954  0.03047  1.0000
  H   H1856     1.0  0.98764  0.08223  0.07880  1.0000
  H   H1857     1.0  0.94288  0.40525  0.11122  1.0000
  H   H1858     1.0  0.94117  0.92564  0.12705  1.0000
  C   C1094     1.0  0.93536  0.75211  0.15859  1.0000
  H   H1859     1.0  0.81898  0.50162  0.15855  1.0000
  H   H1860     1.0  0.77819  0.49404  0.23638  1.0000
  H   H1861     1.0  0.75803  0.80506  0.04977  1.0000
  H   H1862     1.0  0.83081  0.48688  0.12931  1.0000
  H   H1863     1.0  0.94181  0.84590  0.17523  1.0000
  C   C1095     1.0  0.97234  0.41809  0.11768  1.0000
  C   C1096     1.0  0.97331  0.48311  0.14640  1.0000
  C   C1097     1.0  0.96838  0.37602  0.11079  1.0000
  H   H1864     1.0  0.76892  0.25424  0.11639  1.0000
  H   H1865     1.0  0.77807  0.38786  0.21182  1.0000
  C   C1098     1.0  0.93973  0.89744  0.13871  1.0000
  C   C1099     1.0  0.93646  0.79939  0.14818  1.0000
  H   H1866     1.0  0.92524  0.74349  0.15787  1.0000
  H   H1867     1.0  0.84138  0.51781  0.16828  1.0000
  C   C1100     1.0  0.78355  0.30678  0.09306  1.0000
  H   H1868     1.0  0.93372  0.80031  0.13284  1.0000
  H   H1869     1.0  0.76724  0.81107  0.99847  1.0000
  H   H1870     1.0  0.92837  0.82097  0.15538  1.0000
  H   H1871     1.0  0.96095  0.36058  0.12161  1.0000
  C   C1101     1.0  0.76876  0.40337  0.21904  1.0000
  C   C1102     1.0  0.82381  0.48586  0.17179  1.0000
  H   H1872     1.0  0.93093  0.44696  0.12106  1.0000
  H   H1873     1.0  0.97220  0.83157  0.16804  1.0000
  H   H1874     1.0  0.92956  0.88918  0.13839  1.0000
  C   C1103     1.0  0.93957  0.42275  0.12427  1.0000
  H   H1875     1.0  0.92416  0.86966  0.00896  1.0000
  H   H1876     1.0  0.78107  0.84035  0.04245  1.0000
  H   H1877     1.0  0.96607  0.46850  0.15776  1.0000
  H   H1878     1.0  0.96498  0.38179  0.09579  1.0000
  H   H1879     1.0  0.82029  0.50607  0.18404  1.0000
  C   C1104     1.0  0.89534  0.82074  0.02639  1.0000
  S   S325      1.0  0.78786  0.31266  0.23970  1.0000
  C   C1105     1.0  0.98769  0.06312  0.06598  1.0000
  H   H1880     1.0  0.75890  0.35434  0.20770  1.0000
  H   H1881     1.0  0.76646  0.75126  0.15345  1.0000
  H   H1882     1.0  0.75205  0.42903  0.15375  1.0000
  H   H1883     1.0  0.78314  0.45113  0.19288  1.0000
  H   H1884     1.0  0.75733  0.80661  0.17198  1.0000
  H   H1885     1.0  0.74751  0.89530  0.02891  1.0000
  H   H1886     1.0  0.75957  0.33175  0.11245  1.0000
  H   H1887     1.0  0.94210  0.72719  0.15108  1.0000
  C   C1106     1.0  0.75882  0.72913  0.15254  1.0000
  H   H1888     1.0  0.80782  0.36295  0.12197  1.0000
  H   H1889     1.0  0.75758  0.40683  0.19291  1.0000
  C   C1107     1.0  0.76832  0.34377  0.11753  1.0000
  C   C1108     1.0  0.80109  0.35266  0.11217  1.0000
  H   H1890     1.0  0.89359  0.31305  0.23596  1.0000
  C   C1109     1.0  0.75755  0.39070  0.20833  1.0000
  C   C1110     1.0  0.76430  0.96342  0.02273  1.0000
  C   C1111     1.0  0.75603  0.47567  0.22485  1.0000
  H   H1891     1.0  0.78710  0.33758  0.08506  1.0000
  C   C1112     1.0  0.90308  0.83027  0.00591  1.0000
  H   H1892     1.0  0.95940  0.33610  0.20836  1.0000
  H   H1893     1.0  0.88457  0.82751  0.02545  1.0000
  H   H1894     1.0  0.98170  0.42036  0.21504  1.0000
  H   H1895     1.0  0.79394  0.40359  0.23003  1.0000
  H   H1896     1.0  0.75673  0.88468  0.04979  1.0000
  H   H1897     1.0  0.78099  0.52918  0.18068  1.0000
  H   H1898     1.0  0.99256  0.04402  0.02768  1.0000
  C   C1113     1.0  0.77420  0.47139  0.19874  1.0000
  H   H1899     1.0  0.79039  0.83952  0.99779  1.0000
  H   H1900     1.0  0.91171  0.96315  0.01346  1.0000
  H   H1901     1.0  0.74742  0.77050  0.13189  1.0000
  C   C1114     1.0  0.97284  0.36981  0.23545  1.0000
  C   C1115     1.0  0.94704  0.29334  0.22720  1.0000
  H   H1902     1.0  0.74781  0.39843  0.21646  1.0000
  H   H1903     1.0  0.94117  0.29553  0.21432  1.0000
  H   H1904     1.0  0.88010  0.35510  0.23545  1.0000
  C   C1116     1.0  0.95580  0.33168  0.22426  1.0000
  H   H1905     1.0  0.94919  0.36242  0.22661  1.0000
  C   C1117     1.0  0.97719  0.28871  0.23306  1.0000
  H   H1906     1.0  0.89975  0.43127  0.23828  1.0000
  H   H1907     1.0  0.97458  0.25705  0.24166  1.0000
  H   H1908     1.0  0.87680  0.42774  0.24307  1.0000
  H   H1909     1.0  0.95284  0.26043  0.22848  1.0000
  H   H1910     1.0  0.98676  0.29413  0.23806  1.0000
  N   N79       1.0  0.96688  0.32654  0.23741  1.0000
  H   H1911     1.0  0.96524  0.39677  0.23982  1.0000
  C   C1118     1.0  0.74930  0.45934  0.24534  1.0000
  H   H1912     1.0  0.87915  0.96687  0.99675  1.0000
  Fe  Fe162     1.0  0.97365  0.39969  0.39564  1.0000
  S   S326      1.0  0.98074  0.46069  0.37735  1.0000
  S   S327      1.0  0.95655  0.40233  0.41998  1.0000
  H   H1913     1.0  0.76664  0.15487  0.35145  1.0000
  H   H1914     1.0  0.97099  0.25326  0.47724  1.0000
  C   C1119     1.0  0.97412  0.19916  0.43094  1.0000
  Fe  Fe163     1.0  0.98027  0.42465  0.35049  1.0000
  S   S328      1.0  0.97534  0.46095  0.32006  1.0000
  H   H1915     1.0  0.97304  0.18226  0.40087  1.0000
  S   S329      1.0  0.97157  0.36684  0.36854  1.0000
  H   H1916     1.0  0.96696  0.20063  0.47111  1.0000
  Fe  Fe164     1.0  0.77341  0.41491  0.39628  1.0000
  H   H1917     1.0  0.75076  0.62503  0.41336  1.0000
  S   S330      1.0  0.78669  0.43166  0.41916  1.0000
  Fe  Fe165     1.0  0.77456  0.37825  0.35452  1.0000
  C   C1120     1.0  0.75136  0.62240  0.38180  1.0000
  S   S331      1.0  0.78930  0.35254  0.32953  1.0000
  H   H1918     1.0  0.76438  0.47680  0.48282  1.0000
  H   H1919     1.0  0.90298  0.34058  0.26203  1.0000
  S   S332      1.0  0.74675  0.51956  0.34980  1.0000
  H   H1920     1.0  0.78119  0.16538  0.31826  1.0000
  S   S333      1.0  0.77571  0.44487  0.36434  1.0000
  S   S334      1.0  0.77434  0.34708  0.38633  1.0000
  C   C1121     1.0  0.76883  0.57922  0.44168  1.0000
  C   C1122     1.0  0.78578  0.44484  0.44422  1.0000
  C   C1123     1.0  0.77384  0.45454  0.45554  1.0000
  C   C1124     1.0  0.77369  0.46845  0.47455  1.0000
  H   H1921     1.0  0.77777  0.58166  0.44911  1.0000
  C   C1125     1.0  0.79738  0.46092  0.47185  1.0000
  C   C1126     1.0  0.79751  0.44806  0.45265  1.0000
  H   H1922     1.0  0.76470  0.45194  0.44953  1.0000
  H   H1923     1.0  0.86320  0.39696  0.28427  1.0000
  H   H1924     1.0  0.91051  0.40991  0.25633  1.0000
  H   H1925     1.0  0.80684  0.44083  0.44417  1.0000
  C   C1127     1.0  0.78850  0.32637  0.26426  1.0000
  C   C1128     1.0  0.80035  0.32892  0.27218  1.0000
  C   C1129     1.0  0.80034  0.33746  0.29202  1.0000
  C   C1130     1.0  0.78853  0.34463  0.30419  1.0000
  C   C1131     1.0  0.77665  0.34307  0.29613  1.0000
  C   C1132     1.0  0.77667  0.33364  0.27641  1.0000
  H   H1926     1.0  0.80955  0.32315  0.26319  1.0000
  H   H1927     1.0  0.80960  0.33826  0.29804  1.0000
  H   H1928     1.0  0.76747  0.34832  0.30522  1.0000
  H   H1929     1.0  0.76742  0.33158  0.27058  1.0000
  C   C1133     1.0  0.95714  0.38585  0.44581  1.0000
  C   C1134     1.0  0.94531  0.38470  0.45820  1.0000
  Fe  Fe166     1.0  0.75360  0.45247  0.36585  1.0000
  H   H1930     1.0  0.88320  0.37640  0.29527  1.0000
  C   C1135     1.0  0.96895  0.35471  0.47424  1.0000
  C   C1136     1.0  0.96899  0.37178  0.45408  1.0000
  H   H1931     1.0  0.93608  0.39559  0.45197  1.0000
  H   H1932     1.0  0.77760  0.52685  0.42483  1.0000
  C   C1137     1.0  0.75139  0.53942  0.41856  1.0000
  H   H1933     1.0  0.97818  0.37321  0.44486  1.0000
  C   C1138     1.0  0.94862  0.43637  0.27284  1.0000
  C   C1139     1.0  0.95766  0.46783  0.26870  1.0000
  C   C1140     1.0  0.96579  0.47450  0.28325  1.0000
  C   C1141     1.0  0.96518  0.44951  0.30204  1.0000
  C   C1142     1.0  0.95634  0.41734  0.30600  1.0000
  C   C1143     1.0  0.94808  0.41109  0.29156  1.0000
  H   H1934     1.0  0.76301  0.55598  0.45179  1.0000
  H   H1935     1.0  0.97253  0.49956  0.27997  1.0000
  H   H1936     1.0  0.95568  0.39791  0.32035  1.0000
  H   H1937     1.0  0.94116  0.38662  0.29501  1.0000
  N   N80       1.0  0.89004  0.40083  0.26530  1.0000
  H   H1938     1.0  0.90722  0.34964  0.29269  1.0000
  S   S335      1.0  0.75136  0.42623  0.39827  1.0000
  C   C1144     1.0  0.75051  0.18020  0.37070  1.0000
  C   C1145     1.0  0.89265  0.35414  0.25990  1.0000
  H   H1939     1.0  0.89166  0.49650  0.25526  1.0000
  H   H1940     1.0  0.75185  0.47842  0.25691  1.0000
  H   H1941     1.0  0.87479  0.45601  0.26425  1.0000
  H   H1942     1.0  0.78269  0.54268  0.36473  1.0000
  H   H1943     1.0  0.97226  0.35145  0.27670  1.0000
  H   H1944     1.0  0.78115  0.25909  0.32783  1.0000
  H   H1945     1.0  0.97940  0.17893  0.44294  1.0000
  H   H1946     1.0  0.86573  0.36338  0.26396  1.0000
  S   S336      1.0  0.93777  0.42696  0.25537  1.0000
  C   C1146     1.0  0.75783  0.61159  0.40155  1.0000
  C   C1147     1.0  0.90056  0.42746  0.25444  1.0000
  C   C1148     1.0  0.87686  0.42235  0.25945  1.0000
  H   H1947     1.0  0.98443  0.60475  0.34558  1.0000
  H   H1948     1.0  0.93609  0.36670  0.48767  1.0000
  H   H1949     1.0  0.97976  0.29662  0.27189  1.0000
  C   C1149     1.0  0.96097  0.31779  0.25855  1.0000
  H   H1950     1.0  0.77122  0.50387  0.39581  1.0000
  H   H1951     1.0  0.75848  0.63543  0.36973  1.0000
  C   C1150     1.0  0.78071  0.55733  0.37893  1.0000
  H   H1952     1.0  0.75562  0.17562  0.38438  1.0000
  C   C1151     1.0  0.90357  0.38393  0.29559  1.0000
  N   N81       1.0  0.97326  0.24775  0.43343  1.0000
  H   H1953     1.0  0.75434  0.18839  0.33882  1.0000
  H   H1954     1.0  0.95821  0.48767  0.25446  1.0000
  N   N82       1.0  0.76805  0.22511  0.35038  1.0000
  H   H1955     1.0  0.98031  0.54834  0.35091  1.0000
  C   C1152     1.0  0.75934  0.26785  0.35220  1.0000
  C   C1153     1.0  0.98062  0.18497  0.41093  1.0000
  C   C1154     1.0  0.77589  0.22876  0.33046  1.0000
  H   H1956     1.0  0.98580  0.15113  0.41356  1.0000
  C   C1155     1.0  0.89016  0.39933  0.28737  1.0000
  C   C1156     1.0  0.78545  0.47185  0.48292  1.0000
  H   H1957     1.0  0.77947  0.59375  0.37534  1.0000
  H   H1958     1.0  0.90239  0.38407  0.31191  1.0000
  C   C1157     1.0  0.76008  0.18640  0.35186  1.0000
  H   H1959     1.0  0.95244  0.34261  0.26167  1.0000
  H   H1960     1.0  0.76627  0.63186  0.39992  1.0000
  H   H1961     1.0  0.78955  0.16938  0.33960  1.0000
  H   H1962     1.0  0.77110  0.22486  0.38130  1.0000
  H   H1963     1.0  0.76333  0.61262  0.44003  1.0000
  H   H1964     1.0  0.99176  0.53170  0.32292  1.0000
  H   H1965     1.0  0.78530  0.28164  0.36086  1.0000
  Fe  Fe167     1.0  0.99247  0.33738  0.37165  1.0000
  S   S337      1.0  0.75255  0.38684  0.35469  1.0000
  H   H1966     1.0  0.90915  0.48956  0.25186  1.0000
  C   C1158     1.0  0.76840  0.53929  0.39055  1.0000
  H   H1967     1.0  0.78095  0.18263  0.36985  1.0000
  N   N83       1.0  0.76245  0.56364  0.40770  1.0000
  C   C1159     1.0  0.94528  0.36845  0.47848  1.0000
  H   H1968     1.0  0.95514  0.23938  0.40675  1.0000
  H   H1969     1.0  0.97053  0.31292  0.41711  1.0000
  C   C1160     1.0  0.98575  0.25901  0.44042  1.0000
  Fe  Fe168     1.0  0.75229  0.35941  0.38700  1.0000
  C   C1161     1.0  0.90047  0.47484  0.25992  1.0000
  H   H1970     1.0  0.98199  0.57947  0.37055  1.0000
  H   H1971     1.0  0.78125  0.58052  0.41462  1.0000
  H   H1972     1.0  0.95441  0.24145  0.47956  1.0000
  S   S338      1.0  0.99390  0.36594  0.39998  1.0000
  H   H1973     1.0  0.88655  0.43215  0.29239  1.0000
  C   C1162     1.0  0.77684  0.21787  0.36708  1.0000
  H   H1974     1.0  0.96556  0.30359  0.28920  1.0000
  H   H1975     1.0  0.97798  0.27245  0.40241  1.0000
  H   H1976     1.0  0.91118  0.40629  0.28976  1.0000
  C   C1163     1.0  0.78576  0.18829  0.32616  1.0000
  H   H1977     1.0  0.95697  0.28512  0.26120  1.0000
  C   C1164     1.0  0.77305  0.56148  0.42159  1.0000
  H   H1978     1.0  0.79615  0.23538  0.35297  1.0000
  H   H1979     1.0  0.75512  0.50460  0.42365  1.0000
  H   H1980     1.0  0.80653  0.46352  0.47785  1.0000
  H   H1981     1.0  0.75187  0.42377  0.25005  1.0000
  H   H1982     1.0  0.95277  0.24761  0.44522  1.0000
  H   H1983     1.0  0.96407  0.18819  0.43254  1.0000
  H   H1984     1.0  0.95696  0.29093  0.39169  1.0000
  C   C1165     1.0  0.97036  0.27765  0.41478  1.0000
  H   H1985     1.0  0.76928  0.23356  0.31837  1.0000
  H   H1986     1.0  0.76130  0.53817  0.37969  1.0000
  H   H1987     1.0  0.78951  0.54722  0.38716  1.0000
  C   C1166     1.0  0.78849  0.24613  0.36454  1.0000
  C   C1167     1.0  0.95702  0.27412  0.40704  1.0000
  H   H1988     1.0  0.88647  0.33156  0.26988  1.0000
  H   H1989     1.0  0.79316  0.24250  0.37863  1.0000
  H   H1990     1.0  0.75243  0.28372  0.32231  1.0000
  H   H1991     1.0  0.98467  0.29428  0.44328  1.0000
  H   H1992     1.0  0.97816  0.34269  0.48033  1.0000
  C   C1168     1.0  0.96211  0.25805  0.44899  1.0000
  H   H1993     1.0  0.77510  0.44199  0.24918  1.0000
  C   C1169     1.0  0.97034  0.31739  0.27477  1.0000
  H   H1994     1.0  0.74732  0.55471  0.43207  1.0000
  H   H1995     1.0  0.98785  0.23917  0.45470  1.0000
  H   H1996     1.0  0.94885  0.29150  0.41599  1.0000
  H   H1997     1.0  0.79449  0.19974  0.31677  1.0000
  C   C1170     1.0  0.96392  0.23667  0.47032  1.0000
  H   H1998     1.0  0.96008  0.29428  0.44955  1.0000
  C   C1171     1.0  0.86491  0.39755  0.26798  1.0000
  H   H1999     1.0  0.75451  0.26889  0.36751  1.0000
  H   H2000     1.0  0.98064  0.36822  0.24564  1.0000
  H   H2001     1.0  0.98800  0.20596  0.40312  1.0000
  H   H2002     1.0  0.76533  0.29634  0.34963  1.0000
  C   C1172     1.0  0.74841  0.27844  0.33799  1.0000
  H   H2003     1.0  0.85596  0.41540  0.26174  1.0000
  C   C1173     1.0  0.95711  0.35265  0.48656  1.0000
  H   H2004     1.0  0.90134  0.47577  0.27583  1.0000
  C   C1174     1.0  0.98607  0.57330  0.35534  1.0000
  H   H2005     1.0  0.74691  0.59507  0.37689  1.0000
  H   H2006     1.0  0.91045  0.42092  0.49239  1.0000
  H   H2007     1.0  0.74548  0.15010  0.37052  1.0000
  H   H2008     1.0  0.91645  0.53418  0.49439  1.0000
  Fe  Fe169     1.0  0.94105  0.95774  0.72309  1.0000
  S   S339      1.0  0.95171  0.97549  0.69312  1.0000
  H   H2009     1.0  0.85085  0.32390  0.56055  1.0000
  Fe  Fe170     1.0  0.91924  0.91900  0.70487  1.0000
  S   S340      1.0  0.92870  0.93222  0.67371  1.0000
  S   S341      1.0  0.89885  0.89873  0.71699  1.0000
  Fe  Fe171     1.0  0.94777  0.90758  0.68709  1.0000
  S   S342      1.0  0.96590  0.86979  0.67257  1.0000
  Fe  Fe172     1.0  0.93212  0.99914  0.68152  1.0000
  S   S343      1.0  0.92400  0.06291  0.66315  1.0000
  S   S344      1.0  0.93811  0.88889  0.71775  1.0000
  S   S345      1.0  0.92168  0.98700  0.71198  1.0000
  S   S346      1.0  0.97364  0.67598  0.64633  1.0000
  H   H2010     1.0  0.78685  0.38839  0.52657  1.0000
  Fe  Fe173     1.0  0.94171  0.27300  0.58157  1.0000
  S   S347      1.0  0.93029  0.32998  0.59538  1.0000
  S   S348      1.0  0.94961  0.20710  0.59851  1.0000
  Fe  Fe174     1.0  0.94481  0.32921  0.54071  1.0000
  S   S349      1.0  0.93327  0.38965  0.55207  1.0000
  S   S350      1.0  0.95767  0.32584  0.51118  1.0000
  Fe  Fe175     1.0  0.94483  0.37343  0.57862  1.0000
  S   S351      1.0  0.94997  0.43008  0.59408  1.0000
  Fe  Fe176     1.0  0.91932  0.34253  0.56809  1.0000
  S   S352      1.0  0.89760  0.36198  0.57769  1.0000
  S   S353      1.0  0.95717  0.31590  0.56663  1.0000
  S   S354      1.0  0.93003  0.28239  0.55495  1.0000
  Fe  Fe177     1.0  0.83214  0.82055  0.68192  1.0000
  S   S355      1.0  0.82044  0.76534  0.69696  1.0000
  S   S356      1.0  0.85469  0.81810  0.67744  1.0000
  Fe  Fe178     1.0  0.80767  0.87258  0.66554  1.0000
  S   S357      1.0  0.79457  0.82081  0.67902  1.0000
  S   S358      1.0  0.80233  0.94133  0.64979  1.0000
  Fe  Fe179     1.0  0.80505  0.82002  0.70664  1.0000
  H   H2011     1.0  0.82521  0.31329  0.52764  1.0000
  Fe  Fe180     1.0  0.81079  0.77027  0.66824  1.0000
  S   S359      1.0  0.80756  0.70494  0.65583  1.0000
  S   S360      1.0  0.81749  0.87403  0.69328  1.0000
  S   S361      1.0  0.82318  0.82290  0.65305  1.0000
  Fe  Fe181     1.0  0.82554  0.45848  0.54725  1.0000
  S   S362      1.0  0.81618  0.52462  0.53418  1.0000
  S   S363      1.0  0.84577  0.42964  0.53464  1.0000
  Fe  Fe182     1.0  0.80047  0.43906  0.57320  1.0000
  S   S364      1.0  0.78963  0.50409  0.56204  1.0000
  S   S365      1.0  0.79067  0.39141  0.59707  1.0000
  Fe  Fe183     1.0  0.79853  0.48863  0.53151  1.0000
  Fe  Fe184     1.0  0.80813  0.53462  0.56586  1.0000
  S   S366      1.0  0.80983  0.60184  0.57786  1.0000
  S   S367      1.0  0.80834  0.42232  0.54301  1.0000
  S   S368      1.0  0.81850  0.46987  0.57863  1.0000
  C   C1175     1.0  0.78279  0.34518  0.59315  1.0000
  C   C1176     1.0  0.78572  0.32458  0.57589  1.0000
  C   C1177     1.0  0.76691  0.29189  0.60521  1.0000
  C   C1178     1.0  0.77349  0.32829  0.60789  1.0000
  H   H2012     1.0  0.79289  0.33705  0.56448  1.0000
  H   H2013     1.0  0.98355  0.76858  0.55682  1.0000
  H   H2014     1.0  0.77124  0.34379  0.62136  1.0000
  C   C1179     1.0  0.80778  0.67762  0.63378  1.0000
  C   C1180     1.0  0.81129  0.69785  0.61468  1.0000
  C   C1181     1.0  0.81181  0.67428  0.59797  1.0000
  C   C1182     1.0  0.80889  0.62989  0.59983  1.0000
  C   C1183     1.0  0.80541  0.60965  0.61894  1.0000
  C   C1184     1.0  0.80483  0.63328  0.63565  1.0000
  H   H2015     1.0  0.81359  0.73176  0.61273  1.0000
  H   H2016     1.0  0.81447  0.69069  0.58340  1.0000
  H   H2017     1.0  0.80308  0.57576  0.62086  1.0000
  H   H2018     1.0  0.80209  0.61690  0.65019  1.0000
  C   C1185     1.0  0.78709  0.96151  0.64059  1.0000
  C   C1186     1.0  0.77770  0.93335  0.63853  1.0000
  C   C1187     1.0  0.77209  0.02498  0.62869  1.0000
  C   C1188     1.0  0.78426  0.00732  0.63552  1.0000
  H   H2019     1.0  0.77000  0.06032  0.62491  1.0000
  H   H2020     1.0  0.79150  0.02931  0.63701  1.0000
  C   C1189     1.0  0.88319  0.37897  0.56549  1.0000
  C   C1190     1.0  0.87213  0.39930  0.57609  1.0000
  C   C1191     1.0  0.86054  0.41465  0.56696  1.0000
  C   C1192     1.0  0.85987  0.40945  0.54713  1.0000
  C   C1193     1.0  0.87082  0.38835  0.53663  1.0000
  C   C1194     1.0  0.88245  0.37325  0.54573  1.0000
  H   H2021     1.0  0.87262  0.40382  0.59141  1.0000
  H   H2022     1.0  0.85223  0.43114  0.57515  1.0000
  H   H2023     1.0  0.87035  0.38401  0.52129  1.0000
  H   H2024     1.0  0.89084  0.35726  0.53748  1.0000
  H   H2025     1.0  0.94034  0.22788  0.64913  1.0000
  H   H2026     1.0  0.78866  0.99927  0.68955  1.0000
  C   C1195     1.0  0.97735  0.42290  0.59224  1.0000
  C   C1196     1.0  0.96539  0.44732  0.59746  1.0000
  C   C1197     1.0  0.96553  0.48554  0.60681  1.0000
  C   C1198     1.0  0.97744  0.49904  0.61114  1.0000
  S   S369      1.0  0.79079  0.82600  0.73525  1.0000
  H   H2027     1.0  0.97743  0.39373  0.58484  1.0000
  H   H2028     1.0  0.95635  0.50463  0.61095  1.0000
  H   H2029     1.0  0.97736  0.52829  0.61851  1.0000
  C   C1199     1.0  0.93145  0.10297  0.64549  1.0000
  C   C1200     1.0  0.92352  0.14034  0.63753  1.0000
  C   C1201     1.0  0.92886  0.17253  0.62322  1.0000
  C   C1202     1.0  0.94224  0.16779  0.61662  1.0000
  C   C1203     1.0  0.95019  0.13066  0.62471  1.0000
  C   C1204     1.0  0.94485  0.09848  0.63903  1.0000
  H   H2030     1.0  0.91317  0.14449  0.64245  1.0000
  H   H2031     1.0  0.92261  0.20088  0.61724  1.0000
  H   H2032     1.0  0.96055  0.12656  0.61977  1.0000
  H   H2033     1.0  0.95111  0.07009  0.64496  1.0000
  C   C1205     1.0  0.88656  0.87845  0.70510  1.0000
  C   C1206     1.0  0.87359  0.88018  0.71412  1.0000
  C   C1207     1.0  0.86360  0.86323  0.70560  1.0000
  C   C1208     1.0  0.86654  0.84348  0.68810  1.0000
  C   C1209     1.0  0.87950  0.84208  0.67900  1.0000
  C   C1210     1.0  0.88943  0.85973  0.68734  1.0000
  H   H2034     1.0  0.87124  0.89442  0.72790  1.0000
  H   H2035     1.0  0.85371  0.86438  0.71284  1.0000
  H   H2036     1.0  0.88192  0.82669  0.66553  1.0000
  H   H2037     1.0  0.89938  0.85767  0.68032  1.0000
  C   C1211     1.0  0.96772  0.81574  0.66557  1.0000
  C   C1212     1.0  0.98004  0.79905  0.65702  1.0000
  C   C1213     1.0  0.98201  0.75624  0.65113  1.0000
  C   C1214     1.0  0.97164  0.72976  0.65371  1.0000
  C   C1215     1.0  0.95932  0.74643  0.66224  1.0000
  C   C1216     1.0  0.95736  0.78925  0.66819  1.0000
  C   C1217     1.0  0.79035  0.96889  0.70003  1.0000
  H   H2038     1.0  0.77497  0.40319  0.55811  1.0000
  H   H2039     1.0  0.95125  0.72614  0.66424  1.0000
  H   H2040     1.0  0.94784  0.80182  0.67473  1.0000
  C   C1218     1.0  0.97883  0.27952  0.60906  1.0000
  H   H2041     1.0  0.96735  0.72949  0.58093  1.0000
  H   H2042     1.0  0.77239  0.39505  0.51416  1.0000
  H   H2043     1.0  0.92282  0.51977  0.51830  1.0000
  C   C1219     1.0  0.98776  0.76110  0.71684  1.0000
  H   H2044     1.0  0.75241  0.13631  0.74404  1.0000
  H   H2045     1.0  0.99149  0.80329  0.61309  1.0000
  H   H2046     1.0  0.77473  0.98602  0.72208  1.0000
  H   H2047     1.0  0.94890  0.28199  0.62091  1.0000
  H   H2048     1.0  0.88084  0.46778  0.54607  1.0000
  H   H2049     1.0  0.97343  0.25455  0.65495  1.0000
  H   H2050     1.0  0.98810  0.81943  0.65497  1.0000
  C   C1220     1.0  0.75488  0.94375  0.71800  1.0000
  H   H2051     1.0  0.91943  0.45793  0.50229  1.0000
  H   H2052     1.0  0.74705  0.90421  0.74437  1.0000
  H   H2053     1.0  0.99154  0.74379  0.64467  1.0000
  H   H2054     1.0  0.79460  0.94104  0.69178  1.0000
  H   H2055     1.0  0.96051  0.24097  0.63160  1.0000
  C   C1221     1.0  0.77619  0.38465  0.52879  1.0000
  C   C1222     1.0  0.95427  0.27225  0.63431  1.0000
  C   C1223     1.0  0.76169  0.03213  0.55087  1.0000
  H   H2056     1.0  0.75986  0.89335  0.66936  1.0000
  H   H2057     1.0  0.98497  0.60422  0.70910  1.0000
  H   H2058     1.0  0.97250  0.26077  0.60176  1.0000
  H   H2059     1.0  0.96190  0.77115  0.61300  1.0000
  C   C1224     1.0  0.75049  0.44877  0.56286  1.0000
  H   H2060     1.0  0.95474  0.82670  0.60767  1.0000
  H   H2061     1.0  0.94824  0.25340  0.66605  1.0000
  H   H2062     1.0  0.97714  0.70863  0.71142  1.0000
  H   H2063     1.0  0.75147  0.11432  0.53344  1.0000
  H   H2064     1.0  0.85086  0.26562  0.56672  1.0000
  H   H2065     1.0  0.85477  0.27388  0.60183  1.0000
  H   H2066     1.0  0.83359  0.27176  0.60739  1.0000
  H   H2067     1.0  0.76443  0.01755  0.69251  1.0000
  C   C1225     1.0  0.89789  0.46354  0.51139  1.0000
  C   C1226     1.0  0.96426  0.80555  0.60824  1.0000
  H   H2068     1.0  0.91037  0.94466  0.63123  1.0000
  C   C1227     1.0  0.75211  0.97385  0.53733  1.0000
  H   H2069     1.0  0.90293  0.43775  0.54896  1.0000
  H   H2070     1.0  0.75557  0.34270  0.54872  1.0000
  H   H2071     1.0  0.98473  0.73614  0.68989  1.0000
  C   C1228     1.0  0.76558  0.95097  0.63149  1.0000
  H   H2072     1.0  0.89596  0.49694  0.57063  1.0000
  H   H2073     1.0  0.87372  0.54470  0.51379  1.0000
  C   C1229     1.0  0.76271  0.99682  0.62663  1.0000
  H   H2074     1.0  0.81993  0.37674  0.60835  1.0000
  H   H2075     1.0  0.96421  0.33567  0.60650  1.0000
  C   C1230     1.0  0.85611  0.30054  0.58949  1.0000
  H   H2076     1.0  0.77850  0.01366  0.56789  1.0000
  C   C1231     1.0  0.76975  0.27156  0.58787  1.0000
  C   C1232     1.0  0.83154  0.31892  0.53905  1.0000
  H   H2077     1.0  0.93534  0.28436  0.65213  1.0000
  H   H2078     1.0  0.75231  0.97558  0.72448  1.0000
  N   N84       1.0  0.85043  0.67648  0.65485  1.0000
  C   C1233     1.0  0.84326  0.67055  0.63737  1.0000
  C   C1234     1.0  0.85202  0.72506  0.65374  1.0000
  C   C1235     1.0  0.84179  0.66310  0.67336  1.0000
  C   C1236     1.0  0.86339  0.64765  0.65397  1.0000
  C   C1237     1.0  0.83931  0.62375  0.63662  1.0000
  C   C1238     1.0  0.85912  0.74564  0.63438  1.0000
  C   C1239     1.0  0.84670  0.66906  0.69322  1.0000
  C   C1240     1.0  0.87450  0.66143  0.66474  1.0000
  H   H2079     1.0  0.83417  0.69413  0.63666  1.0000
  H   H2080     1.0  0.84931  0.67858  0.62319  1.0000
  H   H2081     1.0  0.85737  0.73238  0.66588  1.0000
  H   H2082     1.0  0.84223  0.74453  0.65582  1.0000
  H   H2083     1.0  0.83185  0.68188  0.67286  1.0000
  H   H2084     1.0  0.84021  0.62756  0.67452  1.0000
  H   H2085     1.0  0.86190  0.61277  0.65980  1.0000
  H   H2086     1.0  0.86751  0.64684  0.63827  1.0000
  H   H2087     1.0  0.83555  0.62256  0.62208  1.0000
  H   H2088     1.0  0.84771  0.59778  0.63805  1.0000
  H   H2089     1.0  0.83113  0.61590  0.64797  1.0000
  H   H2090     1.0  0.86827  0.72522  0.62979  1.0000
  H   H2091     1.0  0.85253  0.75129  0.62226  1.0000
  H   H2092     1.0  0.86179  0.77865  0.63662  1.0000
  H   H2093     1.0  0.83890  0.66108  0.70523  1.0000
  H   H2094     1.0  0.84857  0.70356  0.69424  1.0000
  H   H2095     1.0  0.85546  0.64555  0.69643  1.0000
  H   H2096     1.0  0.88063  0.63113  0.67045  1.0000
  H   H2097     1.0  0.87124  0.67988  0.67754  1.0000
  H   H2098     1.0  0.88126  0.68060  0.65417  1.0000
  C   C1241     1.0  0.82968  0.36417  0.60135  1.0000
  H   H2099     1.0  0.83302  0.37443  0.56957  1.0000
  H   H2100     1.0  0.81747  0.35796  0.57849  1.0000
  H   H2101     1.0  0.80846  0.26166  0.58856  1.0000
  H   H2102     1.0  0.83593  0.39186  0.59966  1.0000
  C   C1242     1.0  0.82688  0.29375  0.55907  1.0000
  N   N85       1.0  0.88606  0.00420  0.66036  1.0000
  C   C1243     1.0  0.89596  0.99506  0.64298  1.0000
  C   C1244     1.0  0.88010  0.05147  0.65627  1.0000
  C   C1245     1.0  0.87553  0.97342  0.66115  1.0000
  C   C1246     1.0  0.89314  0.99586  0.67890  1.0000
  C   C1247     1.0  0.90144  0.94619  0.64190  1.0000
  C   C1248     1.0  0.88980  0.08685  0.65446  1.0000
  C   C1249     1.0  0.86405  0.97770  0.67739  1.0000
  C   C1250     1.0  0.88650  0.01709  0.69732  1.0000
  H   H2103     1.0  0.89171  0.00696  0.62870  1.0000
  H   H2104     1.0  0.90468  0.01357  0.64287  1.0000
  H   H2105     1.0  0.87214  0.06065  0.66762  1.0000
  H   H2106     1.0  0.87520  0.05604  0.64229  1.0000
  H   H2107     1.0  0.87122  0.97728  0.64669  1.0000
  H   H2108     1.0  0.87974  0.93828  0.66367  1.0000
  H   H2109     1.0  0.89512  0.95977  0.68330  1.0000
  H   H2110     1.0  0.90306  0.00776  0.67597  1.0000
  H   H2111     1.0  0.90430  0.92932  0.65631  1.0000
  H   H2112     1.0  0.96575  0.80136  0.57682  1.0000
  Fe  Fe185     1.0  0.99332  0.64300  0.63441  1.0000
  H   H2113     1.0  0.89692  0.08515  0.64115  1.0000
  H   H2114     1.0  0.88425  0.12027  0.65291  1.0000
  H   H2115     1.0  0.89523  0.08445  0.66775  1.0000
  H   H2116     1.0  0.85847  0.01093  0.67640  1.0000
  H   H2117     1.0  0.86740  0.96789  0.69232  1.0000
  H   H2118     1.0  0.85699  0.95396  0.67561  1.0000
  H   H2119     1.0  0.88661  0.99167  0.71043  1.0000
  H   H2120     1.0  0.87619  0.03126  0.69651  1.0000
  H   H2121     1.0  0.89231  0.04313  0.70068  1.0000
  C   C1251     1.0  0.75252  0.36779  0.55916  1.0000
  H   H2122     1.0  0.75838  0.92897  0.62983  1.0000
  H   H2123     1.0  0.83079  0.35502  0.53957  1.0000
  H   H2124     1.0  0.79794  0.97484  0.70950  1.0000
  H   H2125     1.0  0.86286  0.51594  0.53160  1.0000
  H   H2126     1.0  0.75883  0.35687  0.57140  1.0000
  H   H2127     1.0  0.96774  0.39817  0.63440  1.0000
  H   H2128     1.0  0.75441  0.41023  0.59169  1.0000
  C   C1252     1.0  0.82884  0.26980  0.59386  1.0000
  C   C1253     1.0  0.75660  0.90668  0.73529  1.0000
  C   C1254     1.0  0.75632  0.44231  0.58301  1.0000
  C   C1255     1.0  0.81392  0.27181  0.60006  1.0000
  H   H2129     1.0  0.77212  0.44820  0.53980  1.0000
  H   H2130     1.0  0.99137  0.29898  0.64184  1.0000
  H   H2131     1.0  0.89488  0.55291  0.50734  1.0000
  H   H2132     1.0  0.77528  0.34903  0.53328  1.0000
  H   H2133     1.0  0.96349  0.38364  0.66066  1.0000
  H   H2134     1.0  0.75139  0.05004  0.51510  1.0000
  H   H2135     1.0  0.94704  0.35916  0.62949  1.0000
  C   C1256     1.0  0.99444  0.80728  0.59691  1.0000
  H   H2136     1.0  0.97196  0.68610  0.59921  1.0000
  H   H2137     1.0  0.98301  0.73563  0.61177  1.0000
  C   C1257     1.0  0.97599  0.70991  0.58709  1.0000
  C   C1258     1.0  0.82811  0.35057  0.58076  1.0000
  H   H2138     1.0  0.96954  0.81700  0.61959  1.0000
  C   C1259     1.0  0.84767  0.29803  0.57247  1.0000
  H   H2139     1.0  0.83221  0.23570  0.59008  1.0000
  H   H2140     1.0  0.85459  0.33342  0.59490  1.0000
  H   H2141     1.0  0.89423  0.92751  0.63642  1.0000
  N   N86       1.0  0.76655  0.94733  0.70279  1.0000
  H   H2142     1.0  0.77587  0.87955  0.70439  1.0000
  H   H2143     1.0  0.81600  0.30130  0.56081  1.0000
  C   C1260     1.0  0.76366  0.98535  0.68697  1.0000
  C   C1261     1.0  0.77081  0.90486  0.69381  1.0000
  H   H2144     1.0  0.91800  0.57534  0.51042  1.0000
  C   C1262     1.0  0.98649  0.72207  0.70521  1.0000
  H   H2145     1.0  0.97884  0.78518  0.71541  1.0000
  C   C1263     1.0  0.76968  0.41387  0.54473  1.0000
  H   H2146     1.0  0.75505  0.94700  0.54898  1.0000
  C   C1264     1.0  0.95341  0.34824  0.64181  1.0000
  H   H2147     1.0  0.77112  0.98354  0.67403  1.0000
  H   H2148     1.0  0.77855  0.91026  0.68137  1.0000
  H   H2149     1.0  0.75963  0.27964  0.61652  1.0000
  N   N87       1.0  0.83293  0.30363  0.57701  1.0000
  H   H2150     1.0  0.80969  0.30504  0.60377  1.0000
  C   C1265     1.0  0.77782  0.95767  0.71332  1.0000
  H   H2151     1.0  0.86665  0.29610  0.58373  1.0000
  C   C1266     1.0  0.91538  0.54131  0.51003  1.0000
  H   H2152     1.0  0.84177  0.30682  0.53388  1.0000
  H   H2153     1.0  0.75163  0.46873  0.59195  1.0000
  H   H2154     1.0  0.97268  0.84634  0.58356  1.0000
  H   H2155     1.0  0.91629  0.46555  0.53780  1.0000
  S   S370      1.0  0.76153  0.22680  0.58313  1.0000
  N   N88       1.0  0.96260  0.30791  0.63725  1.0000
  C   C1267     1.0  0.91122  0.43716  0.50577  1.0000
  C   C1268     1.0  0.97068  0.31911  0.61793  1.0000
  H   H2156     1.0  0.98146  0.69108  0.57539  1.0000
  C   C1269     1.0  0.97091  0.29111  0.65412  1.0000
  H   H2157     1.0  0.74961  0.39426  0.52219  1.0000
  H   H2158     1.0  0.97457  0.64975  0.69721  1.0000
  H   H2159     1.0  0.76290  0.84611  0.68726  1.0000
  C   C1270     1.0  0.94403  0.25923  0.65160  1.0000
  N   N89       1.0  0.89737  0.49313  0.52761  1.0000
  C   C1271     1.0  0.97202  0.81026  0.58765  1.0000
  N   N90       1.0  0.74914  0.01798  0.54530  1.0000
  H   H2160     1.0  0.94660  0.34075  0.65521  1.0000
  H   H2161     1.0  0.96525  0.29667  0.66855  1.0000
  H   H2162     1.0  0.88216  0.52432  0.54748  1.0000
  Fe  Fe186     1.0  0.74520  0.18772  0.59965  1.0000
  N   N91       1.0  0.98552  0.78487  0.58614  1.0000
  C   C1272     1.0  0.75010  0.99023  0.67879  1.0000
  C   C1273     1.0  0.76026  0.88255  0.68540  1.0000
  H   H2163     1.0  0.75285  0.48172  0.55527  1.0000
  H   H2164     1.0  0.75404  0.44920  0.52007  1.0000
  H   H2165     1.0  0.74588  0.93869  0.71140  1.0000
  C   C1274     1.0  0.88339  0.49886  0.53700  1.0000
  H   H2166     1.0  0.89097  0.43785  0.51561  1.0000
  H   H2167     1.0  0.81215  0.24820  0.61354  1.0000
  H   H2168     1.0  0.74755  0.96069  0.58237  1.0000
  H   H2169     1.0  0.78154  0.27232  0.55987  1.0000
  H   H2170     1.0  0.82872  0.25781  0.55726  1.0000
  H   H2171     1.0  0.91374  0.41019  0.51765  1.0000
  H   H2172     1.0  0.99347  0.84369  0.59253  1.0000
  C   C1275     1.0  0.98925  0.43584  0.59700  1.0000
  C   C1276     1.0  0.98416  0.31044  0.65382  1.0000
  H   H2173     1.0  0.83405  0.33808  0.61203  1.0000
  C   C1277     1.0  0.77928  0.28787  0.57333  1.0000
  H   H2174     1.0  0.77983  0.89799  0.64219  1.0000
  H   H2175     1.0  0.75973  0.87385  0.73012  1.0000
  C   C1278     1.0  0.74874  0.42412  0.53018  1.0000
  H   H2176     1.0  0.77106  0.96680  0.56339  1.0000
  H   H2177     1.0  0.76344  0.00285  0.58156  1.0000
  S   S371      1.0  0.78457  0.49236  0.50658  1.0000
  C   C1279     1.0  0.98524  0.73771  0.59547  1.0000
  N   N92       1.0  0.75501  0.41340  0.54945  1.0000
  H   H2178     1.0  0.76884  0.03672  0.53753  1.0000
  S   S372      1.0  0.74731  0.01737  0.61803  1.0000
  C   C1280     1.0  0.90564  0.49623  0.56178  1.0000
  C   C1281     1.0  0.90114  0.53834  0.51929  1.0000
  H   H2179     1.0  0.98811  0.65126  0.73152  1.0000
  H   H2180     1.0  0.90853  0.53016  0.55776  1.0000
  C   C1282     1.0  0.90585  0.47136  0.54353  1.0000
  H   H2181     1.0  0.75984  0.06475  0.55673  1.0000
  H   H2182     1.0  0.76700  0.44566  0.58138  1.0000
  H   H2183     1.0  0.98850  0.29844  0.66796  1.0000
  C   C1283     1.0  0.99041  0.78423  0.56464  1.0000
  H   H2184     1.0  0.87190  0.48675  0.51291  1.0000
  H   H2185     1.0  0.91291  0.47807  0.57163  1.0000
  C   C1284     1.0  0.76889  0.00141  0.56678  1.0000
  H   H2186     1.0  0.95222  0.41780  0.64575  1.0000
  H   H2187     1.0  0.78107  0.92917  0.72415  1.0000
  H   H2188     1.0  0.89895  0.56244  0.53038  1.0000
  H   H2189     1.0  0.98270  0.85093  0.55196  1.0000
  H   H2190     1.0  0.89452  0.48281  0.49759  1.0000
  C   C1285     1.0  0.98937  0.47395  0.60649  1.0000
  C   C1286     1.0  0.87255  0.51241  0.52273  1.0000
  C   C1287     1.0  0.99219  0.82985  0.55287  1.0000
  H   H2191     1.0  0.97759  0.34355  0.61919  1.0000
  H   H2192     1.0  0.74798  0.96009  0.67298  1.0000
  C   C1288     1.0  0.95981  0.38880  0.64581  1.0000
  H   H2193     1.0  0.75061  0.19486  0.73936  1.0000
  C   C1289     1.0  0.98396  0.62818  0.69565  1.0000
  H   H2194     1.0  0.76074  0.97443  0.52601  1.0000
  H   H2195     1.0  0.98396  0.25656  0.62030  1.0000
  H   H2196     1.0  0.98323  0.34697  0.65239  1.0000
  H   H2197     1.0  0.98832  0.75043  0.73283  1.0000
  H   H2198     1.0  0.74992  0.01695  0.66617  1.0000
  H   H2199     1.0  0.98322  0.60861  0.68332  1.0000
  H   H2200     1.0  0.98632  0.29196  0.59743  1.0000
  H   H2201     1.0  0.74881  0.12738  0.71294  1.0000
  H   H2202     1.0  0.75030  0.88750  0.69301  1.0000
  H   H2203     1.0  0.76367  0.91410  0.74525  1.0000
  H   H2204     1.0  0.99462  0.67376  0.67579  1.0000
  H   H2205     1.0  0.75767  0.75230  0.94456  1.0000
  H   H2206     1.0  0.74998  0.74333  0.82865  1.0000
  Fe  Fe187     1.0  0.97986  0.89586  0.85659  1.0000
  S   S373      1.0  0.97997  0.84519  0.88375  1.0000
  S   S374      1.0  0.96918  0.87675  0.83130  1.0000
  Fe  Fe188     1.0  0.97877  0.90146  0.90231  1.0000
  S   S375      1.0  0.96611  0.91889  0.93068  1.0000
  H   H2207     1.0  0.75279  0.69585  0.97024  1.0000
  S   S376      1.0  0.97686  0.95225  0.87544  1.0000
  H   H2208     1.0  0.96693  0.71527  0.81924  1.0000
  H   H2209     1.0  0.95505  0.88436  0.76426  1.0000
  Fe  Fe189     1.0  0.77200  0.89976  0.89814  1.0000
  H   H2210     1.0  0.89805  0.01380  0.74897  1.0000
  S   S377      1.0  0.78397  0.89869  0.92541  1.0000
  Fe  Fe190     1.0  0.77335  0.88787  0.85231  1.0000
  H   H2211     1.0  0.76579  0.84483  0.97589  1.0000
  S   S378      1.0  0.78779  0.88069  0.82399  1.0000
  H   H2212     1.0  0.90078  0.86994  0.96910  1.0000
  H   H2213     1.0  0.91934  0.96230  0.75329  1.0000
  H   H2214     1.0  0.98792  0.94640  0.96304  1.0000
  H   H2215     1.0  0.89522  0.93753  0.80239  1.0000
  S   S379      1.0  0.76963  0.94715  0.86999  1.0000
  S   S380      1.0  0.77748  0.84227  0.88007  1.0000
  C   C1290     1.0  0.76427  0.67629  0.85582  1.0000
  C   C1291     1.0  0.97571  0.71927  0.80853  1.0000
  C   C1292     1.0  0.79159  0.97158  0.97855  1.0000
  C   C1293     1.0  0.79819  0.92998  0.97541  1.0000
  C   C1294     1.0  0.79567  0.90839  0.95925  1.0000
  C   C1295     1.0  0.78650  0.92770  0.94585  1.0000
  C   C1296     1.0  0.77979  0.96906  0.94914  1.0000
  C   C1297     1.0  0.78238  0.99079  0.96522  1.0000
  H   H2216     1.0  0.74539  0.02056  0.83896  1.0000
  H   H2217     1.0  0.80104  0.87667  0.95692  1.0000
  H   H2218     1.0  0.77275  0.98473  0.93909  1.0000
  H   H2219     1.0  0.77725  0.02302  0.96725  1.0000
  C   C1298     1.0  0.79025  0.84280  0.75962  1.0000
  C   C1299     1.0  0.77808  0.84670  0.77124  1.0000
  C   C1300     1.0  0.77704  0.85935  0.79060  1.0000
  C   C1301     1.0  0.78825  0.86725  0.79903  1.0000
  C   C1302     1.0  0.80042  0.86344  0.78739  1.0000
  C   C1303     1.0  0.80142  0.85163  0.76787  1.0000
  H   H2220     1.0  0.76935  0.83968  0.76525  1.0000
  H   H2221     1.0  0.76754  0.86286  0.79901  1.0000
  H   H2222     1.0  0.80920  0.86958  0.79356  1.0000
  H   H2223     1.0  0.81088  0.84885  0.75931  1.0000
  C   C1304     1.0  0.95421  0.94968  0.77302  1.0000
  C   C1305     1.0  0.95683  0.90353  0.77574  1.0000
  C   C1306     1.0  0.96152  0.88200  0.79353  1.0000
  C   C1307     1.0  0.96410  0.90618  0.80864  1.0000
  C   C1308     1.0  0.96185  0.95238  0.80567  1.0000
  C   C1309     1.0  0.95682  0.97385  0.78809  1.0000
  H   H2224     1.0  0.75117  0.63497  0.95443  1.0000
  H   H2225     1.0  0.96312  0.84632  0.79558  1.0000
  H   H2226     1.0  0.96370  0.97157  0.81711  1.0000
  H   H2227     1.0  0.95487  0.00954  0.78621  1.0000
  C   C1310     1.0  0.92357  0.93234  0.81292  1.0000
  H   H2228     1.0  0.96539  0.08726  0.96190  1.0000
  C   C1311     1.0  0.95767  0.90854  0.97044  1.0000
  C   C1312     1.0  0.96235  0.88667  0.95376  1.0000
  C   C1313     1.0  0.96324  0.84043  0.95572  1.0000
  C   C1314     1.0  0.95918  0.81657  0.97396  1.0000
  H   H2229     1.0  0.90228  0.88211  0.80268  1.0000
  H   H2230     1.0  0.95689  0.94428  0.96911  1.0000
  H   H2231     1.0  0.96675  0.82307  0.94306  1.0000
  H   H2232     1.0  0.95963  0.78088  0.97514  1.0000
  H   H2233     1.0  0.97201  0.72767  0.79371  1.0000
  H   H2234     1.0  0.92999  0.87112  0.97564  1.0000
  H   H2235     1.0  0.92573  0.95755  0.82212  1.0000
  H   H2236     1.0  0.77053  0.80349  0.82462  1.0000
  S   S381      1.0  0.75256  0.75917  0.89035  1.0000
  H   H2237     1.0  0.76456  0.69688  0.81725  1.0000
  H   H2238     1.0  0.92516  0.86934  0.79089  1.0000
  H   H2239     1.0  0.77418  0.89694  0.99053  1.0000
  H   H2240     1.0  0.92691  0.97140  0.78477  1.0000
  C   C1315     1.0  0.91797  0.85523  0.76481  1.0000
  C   C1316     1.0  0.92222  0.88905  0.77699  1.0000
  H   H2241     1.0  0.97273  0.76905  0.84887  1.0000
  H   H2242     1.0  0.90902  0.91672  0.97024  1.0000
  H   H2243     1.0  0.91628  0.91214  0.82173  1.0000
  H   H2244     1.0  0.88114  0.88819  0.79038  1.0000
  C   C1317     1.0  0.98054  0.03675  0.95236  1.0000
  C   C1318     1.0  0.97038  0.07691  0.94777  1.0000
  C   C1319     1.0  0.98613  0.73294  0.86894  1.0000
  C   C1320     1.0  0.95390  0.88461  0.98880  1.0000
  H   H2245     1.0  0.92663  0.83150  0.76110  1.0000
  N   N93       1.0  0.99058  0.74901  0.83095  1.0000
  H   H2246     1.0  0.93302  0.91158  0.81005  1.0000
  H   H2247     1.0  0.77745  0.71839  0.86373  1.0000
  C   C1321     1.0  0.89992  0.91275  0.79252  1.0000
  C   C1322     1.0  0.76758  0.77499  0.83519  1.0000
  C   C1323     1.0  0.92177  0.85674  0.97049  1.0000
  H   H2248     1.0  0.96282  0.06818  0.93890  1.0000
  H   H2249     1.0  0.97520  0.07838  0.90890  1.0000
  H   H2250     1.0  0.78353  0.75124  0.78901  1.0000
  H   H2251     1.0  0.97973  0.99531  0.92193  1.0000
  H   H2252     1.0  0.75270  0.70988  0.93226  1.0000
  Fe  Fe191     1.0  0.75607  0.83205  0.88302  1.0000
  H   H2253     1.0  0.91140  0.98425  0.79779  1.0000
  C   C1324     1.0  0.98315  0.05496  0.90294  1.0000
  H   H2254     1.0  0.99004  0.81281  0.84206  1.0000
  H   H2255     1.0  0.76656  0.77132  0.79580  1.0000
  H   H2256     1.0  0.75068  0.20363  0.77220  1.0000
  H   H2257     1.0  0.93135  0.90107  0.76904  1.0000
  C   C1325     1.0  0.90844  0.88197  0.97682  1.0000
  H   H2258     1.0  0.76855  0.78563  0.84987  1.0000
  H   H2259     1.0  0.97928  0.04062  0.89090  1.0000
  C   C1326     1.0  0.88860  0.95015  0.99060  1.0000
  Fe  Fe192     1.0  0.74852  0.93125  0.87364  1.0000
  H   H2260     1.0  0.97782  0.73207  0.88071  1.0000
  C   C1327     1.0  0.88893  0.90368  0.78026  1.0000
  C   C1328     1.0  0.74918  0.73431  0.94279  1.0000
  H   H2261     1.0  0.88736  0.94609  0.97505  1.0000
  H   H2262     1.0  0.99188  0.75970  0.87141  1.0000
  N   N94       1.0  0.77678  0.73383  0.83203  1.0000
  C   C1329     1.0  0.79061  0.74697  0.82754  1.0000
  C   C1330     1.0  0.77399  0.71159  0.81471  1.0000
  C   C1331     1.0  0.77655  0.70136  0.85056  1.0000
  H   H2263     1.0  0.76516  0.65620  0.87041  1.0000
  C   C1332     1.0  0.79640  0.76516  0.84434  1.0000
  C   C1333     1.0  0.77367  0.74142  0.79479  1.0000
  C   C1334     1.0  0.74876  0.16954  0.77034  1.0000
  S   S382      1.0  0.75211  0.87510  0.85463  1.0000
  H   H2264     1.0  0.79761  0.71848  0.82318  1.0000
  H   H2265     1.0  0.79119  0.77323  0.81474  1.0000
  H   H2266     1.0  0.92232  0.82084  0.97564  1.0000
  H   H2267     1.0  0.78145  0.68275  0.81252  1.0000
  H   H2268     1.0  0.78515  0.67570  0.84969  1.0000
  H   H2269     1.0  0.91875  0.95190  0.98885  1.0000
  H   H2270     1.0  0.98998  0.76471  0.79915  1.0000
  C   C1335     1.0  0.74634  0.16647  0.74862  1.0000
  H   H2271     1.0  0.80608  0.77674  0.83867  1.0000
  H   H2272     1.0  0.79015  0.79419  0.84937  1.0000
  H   H2273     1.0  0.79811  0.73956  0.85705  1.0000
  C   C1336     1.0  0.95442  0.83842  0.99060  1.0000
  H   H2274     1.0  0.91053  0.83539  0.77351  1.0000
  S   S383      1.0  0.75074  0.88657  0.90239  1.0000
  H   H2275     1.0  0.80551  0.91495  0.98510  1.0000
  H   H2276     1.0  0.76342  0.65268  0.84514  1.0000
  H   H2277     1.0  0.97563  0.71091  0.84760  1.0000
  H   H2278     1.0  0.75513  0.69880  0.85757  1.0000
  C   C1337     1.0  0.91850  0.95603  0.79349  1.0000
  C   C1338     1.0  0.75270  0.77319  0.83392  1.0000
  H   H2279     1.0  0.77050  0.72274  0.78356  1.0000
  N   N95       1.0  0.91232  0.92792  0.78116  1.0000
  H   H2280     1.0  0.98204  0.68745  0.80827  1.0000
  C   C1339     1.0  0.98062  0.74072  0.84852  1.0000
  H   H2281     1.0  0.92335  0.86014  0.95408  1.0000
  H   H2282     1.0  0.98370  0.03789  0.96732  1.0000
  C   C1340     1.0  0.98327  0.75721  0.81266  1.0000
  H   H2283     1.0  0.88414  0.93467  0.77274  1.0000
  H   H2284     1.0  0.97479  0.00760  0.95450  1.0000
  H   H2285     1.0  0.97605  0.78721  0.81348  1.0000
  H   H2286     1.0  0.97469  0.10662  0.94024  1.0000
  H   H2287     1.0  0.75783  0.14792  0.77403  1.0000
  H   H2288     1.0  0.74884  0.80189  0.82377  1.0000
  H   H2289     1.0  0.74721  0.77615  0.84865  1.0000
  C   C1341     1.0  0.76232  0.84267  0.99191  1.0000
  H   H2290     1.0  0.75152  0.84125  0.99353  1.0000
  C   C1342     1.0  0.98781  0.01698  0.91852  1.0000
  H   H2291     1.0  0.89232  0.88091  0.76903  1.0000
  H   H2292     1.0  0.99146  0.07319  0.89584  1.0000
  H   H2293     1.0  0.91443  0.87052  0.75057  1.0000
  H   H2294     1.0  0.74568  0.67051  0.89905  1.0000
  H   H2295     1.0  0.89615  0.97274  0.99095  1.0000
  H   H2296     1.0  0.74758  0.62397  0.99122  1.0000
  C   C1343     1.0  0.90983  0.95558  0.76182  1.0000
  S   S384      1.0  0.94677  0.97858  0.75193  1.0000
  N   N96       1.0  0.99214  0.02967  0.93728  1.0000
  H   H2297     1.0  0.89326  0.99915  0.77479  1.0000
  H   H2298     1.0  0.90811  0.02538  0.76698  1.0000
  C   C1344     1.0  0.90178  0.00096  0.76348  1.0000
  H   H2299     1.0  0.99340  0.83820  0.80747  1.0000
  H   H2300     1.0  0.99213  0.93574  0.93767  1.0000
  H   H2301     1.0  0.90486  0.93783  0.75212  1.0000
  H   H2302     1.0  0.89804  0.81495  0.99528  1.0000
  H   H2303     1.0  0.99228  0.70076  0.87107  1.0000
  H   H2304     1.0  0.99391  0.09865  0.92545  1.0000
