data_image0
_chemical_formula_structural       HS3HFeS2FeHFeSHSFeS2H3C6H5C7H2C6H4CH2C3H4CH4CSHCHSFeH4C2H2CNHNHC2H6SHCHC3HSH2CHCHC2H9FeHNC5H4SH2CH11C2H7FeSHFeS2FeHFeS3FeS2FeS2C6HCH2NHC2HCHC2HC6H4C6HCH2NC5HC2H3CH5CHCH8NHC3H2CH2SH4SH6CH5CH3CH2CH3C2H2C2H2C2H2CH10CHC2HC2H5CH2SH4CSCFeS2FeSCFeSFeS2HFeS2FeH2FeSFeS3FeCSFeS2C6H2CHC6H4C5H5C6H9C3FeSH5CH2FeH2CNH4SHCSH2SH6CH4CH2CHCSHCH4CHC2H2CH2CH2NC8H18C2H3CHCHCHSHSH3NH9FeCNCHFeSHFeS2FeSFeS3FeS2H3CHFeSCSH2SCHSC6H2SHC6H4C6H4C6H2CHC2H2CNH4C2H5CH4NFeHCHC4H7C2H3CHCHCHC2H5CH3CHSH3CH2NHCH2SH3C3H6FeH6CH2CH4C2NH6CH2C2H8CH3CHN2H3FeS2CHCFeSHSH2SHS2HCSH2SH2C3HSCHCH2C5H3C6H4C6H5C3NH4CHC3H4NHC2H9CHFeH3CHSCHCH4CHCFeCH2NC2H2CH5CFeCH2CH3C2HFeH5FeS2HCHFeS3FeSHFeS2CS2FeS2HC3HCH2CH2FeSCHC2H3C6H4C6H5C2H4CFeC3H4NH2CNH2CHSHCNCHCH7C2HFeH4CHCHFeCH2CHSHCH2CHC2H8CHNH3CHCH3CHCH5CHCHCH3SH9CH2CH3FeHSH2FeS2FeSCSCFeS2FeS2H2SC2HC6H4C6H6C4H4C6H5SHFeC2H4CH2CH4C2H7CHCH4CH5CSCH2NH2CH2NH3C2H3CH2CH5CHNC2HCHC2HC2HC4HCHCH5CH6CH5CH4CH2Fe2S2FeSHSH2SHFeS2HSHFeS2C6H4C6H7CH6C6H7SH3CHC2HCH3CHNH2C2H2C2HFeH3C5H6CHCHSH2CFeHNH2CSH6CH5CHNHC2H2CHC2NSHNCH2CHCHC2NSCH2CH5C2H5C2H3SCHFeS2CS2FeSFeSHSFeS2FeSHFeSFeS3HC2H2SC4SCH2CHC6NH3C6H4C6H5FeCH3NH2FeH2SH2C2H3SH2C2HSH7C3H2CH4CHSCNC8H17FeCHSH2C4H3SH4CH3CH10CH4SHCH2CHC2H2FeNH4CH2CH4CH2CHCHCFeS2NCH2CFeSH2FeS2FeSHFeSFeS3FeHSHCSC6H2CHC8H2C6H4C6H6CHCHC2SCH4CNH8SHC3H5CHCHC2HCSHCHCH3FeH6NH2NH3SC3H2CH7CHCHC2H2CH4SNCH5CHNHCHCH4CH6CHCHCH4CH2C2H5S2FeS2FeSHFeSHCS2HCFeS2H3CHCH3CHC6H4C4SH3FeHC6H7CH3CH2CHFeCHC2H3NHCSNCH8CHCHCH4C2H4FeH5C2H6NCHC3HC2H4CH3C3FeSH5CSCNCH2CSCFeS2FeSHFeSFeCS2HSFeHSCSHC2FeHSH3C6H2CSC6H4C6H8CH2SH4CHFeH6NC8H22CHFeSC2H3C2H3CHCSCH3C2HCHSCH2C2SHCH10NC
_chemical_formula_sum              "H1152 S192 Fe96 C672 N48"
_cell_length_a       42.6382
_cell_length_b       42.5458
_cell_length_c       35.0152
_cell_angle_alpha    89.7981
_cell_angle_beta     90.0387
_cell_angle_gamma    90.0276

_space_group_name_H-M_alt    "P 1"
_space_group_IT_number       1

loop_
  _space_group_symop_operation_xyz
  'x, y, z'

loop_
  _atom_site_type_symbol
  _atom_site_label
  _atom_site_symmetry_multiplicity
  _atom_site_fract_x
  _atom_site_fract_y
  _atom_site_fract_z
  _atom_site_occupancy
  H   H1        1.0  0.17657  0.13314  0.23458  1.0000
  S   S1        1.0  0.09086  0.29037  0.00124  1.0000
  S   S2        1.0  0.31631  0.22809  0.25108  1.0000
  S   S3        1.0  0.18052  0.28700  0.03766  1.0000
  H   H2        1.0  0.19877  0.15936  0.11209  1.0000
  Fe  Fe1       1.0  0.15835  0.19873  0.04674  1.0000
  S   S4        1.0  0.13517  0.23656  0.08120  1.0000
  S   S5        1.0  0.14962  0.14581  0.05590  1.0000
  Fe  Fe2       1.0  0.13371  0.26513  0.02654  1.0000
  H   H3        1.0  0.14567  0.32542  0.34788  1.0000
  Fe  Fe3       1.0  0.18439  0.25509  0.08900  1.0000
  S   S6        1.0  0.20060  0.27243  0.14760  1.0000
  H   H4        1.0  0.22856  0.33484  0.13012  1.0000
  S   S7        1.0  0.20795  0.21656  0.05638  1.0000
  Fe  Fe4       1.0  0.03296  0.02091  0.17487  1.0000
  S   S8        1.0  0.04542  0.07056  0.15274  1.0000
  S   S9        1.0  0.03163  0.01242  0.23885  1.0000
  H   H5        1.0  0.02638  0.00072  0.38531  1.0000
  H   H6        1.0  0.25663  0.35345  0.03181  1.0000
  H   H7        1.0  0.19068  0.21765  0.20370  1.0000
  C   C1        1.0  0.12026  0.12528  0.08268  1.0000
  C   C2        1.0  0.12300  0.09251  0.08791  1.0000
  C   C3        1.0  0.10057  0.07535  0.10930  1.0000
  C   C4        1.0  0.07490  0.09074  0.12572  1.0000
  C   C5        1.0  0.07225  0.12352  0.12056  1.0000
  C   C6        1.0  0.09469  0.14067  0.09927  1.0000
  H   H8        1.0  0.14264  0.08028  0.07528  1.0000
  H   H9        1.0  0.10308  0.05023  0.11293  1.0000
  H   H10       1.0  0.05249  0.13575  0.13293  1.0000
  H   H11       1.0  0.09197  0.16575  0.09534  1.0000
  H   H12       1.0  0.13296  0.35193  0.46110  1.0000
  C   C7        1.0  0.11654  0.29861  0.38949  1.0000
  C   C8        1.0  0.14356  0.36671  0.40358  1.0000
  C   C9        1.0  0.12663  0.34455  0.43168  1.0000
  C   C10       1.0  0.10577  0.35427  0.99618  1.0000
  C   C11       1.0  0.25828  0.31018  0.08969  1.0000
  C   C12       1.0  0.13639  0.30153  0.35278  1.0000
  C   C13       1.0  0.18329  0.31035  0.46423  1.0000
  H   H13       1.0  0.04234  0.00399  0.33751  1.0000
  H   H14       1.0  0.23233  0.18492  0.23551  1.0000
  C   C14       1.0  0.28425  0.24140  0.22274  1.0000
  C   C15       1.0  0.26432  0.26566  0.23434  1.0000
  C   C16       1.0  0.23909  0.27509  0.21079  1.0000
  C   C17       1.0  0.23343  0.26045  0.17546  1.0000
  C   C18       1.0  0.25333  0.23618  0.16390  1.0000
  C   C19       1.0  0.27857  0.22678  0.18736  1.0000
  H   H15       1.0  0.26833  0.27714  0.26143  1.0000
  H   H16       1.0  0.22378  0.29383  0.22012  1.0000
  H   H17       1.0  0.24899  0.22432  0.13718  1.0000
  H   H18       1.0  0.29371  0.20789  0.17816  1.0000
  C   C20       1.0  0.27518  0.23101  0.46447  1.0000
  H   H19       1.0  0.14089  0.15313  0.23306  1.0000
  H   H20       1.0  0.21829  0.14247  0.19403  1.0000
  C   C21       1.0  0.03205  0.46888  0.23783  1.0000
  C   C22       1.0  0.22109  0.22575  0.44341  1.0000
  C   C23       1.0  0.25342  0.22632  0.43515  1.0000
  H   H21       1.0  0.30758  0.26252  0.10096  1.0000
  H   H22       1.0  0.22195  0.17882  0.16936  1.0000
  H   H23       1.0  0.20447  0.22114  0.42076  1.0000
  H   H24       1.0  0.26154  0.22208  0.40636  1.0000
  C   C24       1.0  0.21019  0.23033  0.48087  1.0000
  H   H25       1.0  0.16748  0.27425  0.42560  1.0000
  H   H26       1.0  0.11054  0.27312  0.39150  1.0000
  H   H27       1.0  0.16718  0.35858  0.39531  1.0000
  H   H28       1.0  0.17886  0.30976  0.40371  1.0000
  C   C25       1.0  0.14602  0.11631  0.19115  1.0000
  S   S10       1.0  0.07233  0.44551  0.44692  1.0000
  H   H29       1.0  0.12495  0.34938  0.01552  1.0000
  C   C26       1.0  0.00151  0.00190  0.04743  1.0000
  H   H30       1.0  0.27775  0.27237  0.02177  1.0000
  S   S11       1.0  0.04186  0.47572  0.34771  1.0000
  Fe  Fe5       1.0  0.03798  0.47614  0.41203  1.0000
  H   H31       1.0  0.10824  0.20378  0.15061  1.0000
  H   H32       1.0  0.15602  0.28436  0.35287  1.0000
  H   H33       1.0  0.32032  0.32732  0.41299  1.0000
  H   H34       1.0  0.16631  0.20401  0.14723  1.0000
  C   C27       1.0  0.06775  0.46563  0.24305  1.0000
  C   C28       1.0  0.24263  0.34056  0.10430  1.0000
  H   H35       1.0  0.09398  0.31110  0.38410  1.0000
  H   H36       1.0  0.21218  0.20991  0.26772  1.0000
  C   C29       1.0  0.16526  0.30029  0.42810  1.0000
  N   N1        1.0  0.28154  0.31404  0.05751  1.0000
  H   H37       1.0  0.30812  0.23540  0.06204  1.0000
  N   N2        1.0  0.13115  0.30969  0.42642  1.0000
  H   H38       1.0  0.14943  0.16719  0.13820  1.0000
  C   C30       1.0  0.06821  0.41165  0.47677  1.0000
  C   C31       1.0  0.12205  0.19550  0.17559  1.0000
  H   H39       1.0  0.20308  0.16895  0.26790  1.0000
  H   H40       1.0  0.18598  0.12318  0.13417  1.0000
  H   H41       1.0  0.12144  0.29568  0.32779  1.0000
  H   H42       1.0  0.06830  0.28110  0.43400  1.0000
  H   H43       1.0  0.07254  0.44349  0.25895  1.0000
  H   H44       1.0  0.12612  0.10576  0.20722  1.0000
  S   S12       1.0  0.32665  0.27454  0.35839  1.0000
  H   H45       1.0  0.23911  0.29399  0.08086  1.0000
  C   C32       1.0  0.11455  0.29317  0.45898  1.0000
  H   H46       1.0  0.22673  0.13134  0.12839  1.0000
  C   C33       1.0  0.29532  0.25568  0.07445  1.0000
  C   C34       1.0  0.32687  0.33730  0.44113  1.0000
  C   C35       1.0  0.26454  0.32932  0.02444  1.0000
  H   H47       1.0  0.14754  0.38970  0.41780  1.0000
  S   S13       1.0  0.15345  0.22564  0.99108  1.0000
  H   H48       1.0  0.10138  0.35088  0.42949  1.0000
  H   H49       1.0  0.10821  0.17638  0.18905  1.0000
  C   C36       1.0  0.07830  0.29436  0.45833  1.0000
  H   H50       1.0  0.16220  0.20322  0.23611  1.0000
  C   C37       1.0  0.20369  0.14211  0.13518  1.0000
  H   H51       1.0  0.13564  0.12337  0.16360  1.0000
  C   C38       1.0  0.29332  0.28223  0.04436  1.0000
  C   C39       1.0  0.30851  0.33509  0.06852  1.0000
  H   H52       1.0  0.02495  0.44812  0.22067  1.0000
  H   H53       1.0  0.12415  0.21580  0.19518  1.0000
  H   H54       1.0  0.16393  0.09782  0.18628  1.0000
  H   H55       1.0  0.26902  0.29880  0.11508  1.0000
  H   H56       1.0  0.20803  0.30239  0.46172  1.0000
  H   H57       1.0  0.12177  0.30300  0.48707  1.0000
  H   H58       1.0  0.27148  0.24716  0.08178  1.0000
  H   H59       1.0  0.30494  0.34070  0.45753  1.0000
  H   H60       1.0  0.12904  0.37091  0.37770  1.0000
  Fe  Fe6       1.0  0.20066  0.24676  0.00381  1.0000
  H   H61       1.0  0.06924  0.28297  0.48470  1.0000
  N   N3        1.0  0.17542  0.16998  0.19185  1.0000
  C   C40       1.0  0.18322  0.19612  0.21944  1.0000
  C   C41       1.0  0.15432  0.18389  0.16159  1.0000
  C   C42       1.0  0.20573  0.15868  0.17421  1.0000
  C   C43       1.0  0.15975  0.14395  0.21413  1.0000
  C   C44       1.0  0.20918  0.18902  0.24908  1.0000
  H   H62       1.0  0.30034  0.35972  0.07237  1.0000
  H   H63       1.0  0.18373  0.33623  0.46772  1.0000
  H   H64       1.0  0.12103  0.26780  0.45992  1.0000
  H   H65       1.0  0.06910  0.31867  0.45814  1.0000
  S   S14       1.0  0.31609  0.22853  0.45615  1.0000
  H   H66       1.0  0.25994  0.35859  0.11300  1.0000
  H   H67       1.0  0.01851  0.40582  0.46916  1.0000
  C   C45       1.0  0.03940  0.39663  0.48274  1.0000
  H   H68       1.0  0.07803  0.48477  0.26036  1.0000
  H   H69       1.0  0.22591  0.35043  0.08315  1.0000
  H   H70       1.0  0.11628  0.40387  0.99155  1.0000
  H   H71       1.0  0.24285  0.31589  0.01743  1.0000
  H   H72       1.0  0.02978  0.47830  0.16460  1.0000
  H   H73       1.0  0.01539  0.03266  0.35461  1.0000
  H   H74       1.0  0.31680  0.28434  0.03063  1.0000
  H   H75       1.0  0.32445  0.13839  0.24603  1.0000
  H   H76       1.0  0.02121  0.46548  0.26651  1.0000
  H   H77       1.0  0.31170  0.32562  0.13061  1.0000
  H   H78       1.0  0.07990  0.46343  0.21521  1.0000
  C   C46       1.0  0.32673  0.32582  0.10478  1.0000
  C   C47       1.0  0.02105  0.00717  0.35534  1.0000
  H   H79       1.0  0.01121  0.05753  0.01584  1.0000
  H   H80       1.0  0.32619  0.33624  0.04519  1.0000
  H   H81       1.0  0.99919  0.02336  0.06523  1.0000
  H   H82       1.0  0.02279  0.00364  0.02962  1.0000
  H   H83       1.0  0.30289  0.35007  0.99004  1.0000
  H   H84       1.0  0.04477  0.31841  0.95175  1.0000
  H   H85       1.0  0.24856  0.24841  0.81995  1.0000
  Fe  Fe7       1.0  0.14746  0.24063  0.54721  1.0000
  S   S15       1.0  0.15028  0.29044  0.56823  1.0000
  H   H86       1.0  0.28432  0.22338  0.72657  1.0000
  Fe  Fe8       1.0  0.10009  0.21983  0.60974  1.0000
  S   S16       1.0  0.09970  0.26883  0.63414  1.0000
  S   S17       1.0  0.06374  0.18465  0.63393  1.0000
  Fe  Fe9       1.0  0.09785  0.28767  0.57389  1.0000
  H   H87       1.0  0.02844  0.37904  0.74526  1.0000
  Fe  Fe10      1.0  0.15207  0.26738  0.62615  1.0000
  S   S18       1.0  0.18292  0.28418  0.67459  1.0000
  S   S19       1.0  0.09468  0.23888  0.54971  1.0000
  S   S20       1.0  0.15293  0.21742  0.60502  1.0000
  Fe  Fe11      1.0  0.02225  0.02787  0.76749  1.0000
  S   S21       1.0  0.05871  0.05710  0.73380  1.0000
  S   S22       1.0  0.02866  0.02649  0.83153  1.0000
  Fe  Fe12      1.0  0.03560  0.45660  0.90140  1.0000
  S   S23       1.0  0.07128  0.43162  0.94053  1.0000
  S   S24       1.0  0.04060  0.45628  0.83721  1.0000
  C   C48       1.0  0.06321  0.14975  0.66288  1.0000
  C   C49       1.0  0.03417  0.13785  0.67574  1.0000
  C   C50       1.0  0.03229  0.10999  0.69787  1.0000
  C   C51       1.0  0.05951  0.09325  0.70723  1.0000
  C   C52       1.0  0.08858  0.10515  0.69444  1.0000
  C   C53       1.0  0.09049  0.13321  0.67266  1.0000
  H   H88       1.0  0.01287  0.15030  0.66844  1.0000
  C   C54       1.0  0.03759  0.39958  0.68774  1.0000
  H   H89       1.0  0.10983  0.09247  0.70125  1.0000
  H   H90       1.0  0.11299  0.14179  0.66293  1.0000
  N   N4        1.0  0.24297  0.19887  0.74711  1.0000
  H   H91       1.0  0.10084  0.05050  0.86214  1.0000
  C   C55       1.0  0.21567  0.18014  0.73180  1.0000
  C   C56       1.0  0.07573  0.39226  0.95759  1.0000
  H   H92       1.0  0.31217  0.27228  0.85581  1.0000
  C   C57       1.0  0.06058  0.33698  0.96035  1.0000
  H   H93       1.0  0.20646  0.32002  0.91568  1.0000
  C   C58       1.0  0.10071  0.38521  0.98261  1.0000
  C   C59       1.0  0.06453  0.35724  0.52425  1.0000
  H   H94       1.0  0.05560  0.36918  0.62249  1.0000
  C   C60       1.0  0.28938  0.27520  0.66276  1.0000
  C   C61       1.0  0.27618  0.28823  0.69563  1.0000
  C   C62       1.0  0.24352  0.29214  0.69816  1.0000
  C   C63       1.0  0.22385  0.28229  0.66838  1.0000
  C   C64       1.0  0.23708  0.26969  0.63524  1.0000
  C   C65       1.0  0.26983  0.26647  0.63229  1.0000
  H   H95       1.0  0.29113  0.29539  0.71901  1.0000
  H   H96       1.0  0.23336  0.30237  0.72353  1.0000
  H   H97       1.0  0.22205  0.26214  0.61209  1.0000
  H   H98       1.0  0.27989  0.25647  0.60672  1.0000
  C   C66       1.0  0.30261  0.22430  0.87147  1.0000
  C   C67       1.0  0.28500  0.20467  0.89582  1.0000
  C   C68       1.0  0.26380  0.21733  0.92262  1.0000
  C   C69       1.0  0.26005  0.24988  0.92546  1.0000
  C   C70       1.0  0.27761  0.26953  0.90107  1.0000
  C   C71       1.0  0.29879  0.25687  0.87427  1.0000
  H   H99       1.0  0.28785  0.17945  0.89400  1.0000
  C   C72       1.0  0.16663  0.01368  0.79215  1.0000
  H   H100      1.0  0.27494  0.29475  0.90298  1.0000
  H   H101      1.0  0.13459  0.05995  0.83448  1.0000
  N   N5        1.0  0.15873  0.32256  0.89472  1.0000
  C   C73       1.0  0.14891  0.29573  0.92029  1.0000
  C   C74       1.0  0.18758  0.33771  0.91149  1.0000
  C   C75       1.0  0.16646  0.31115  0.85511  1.0000
  C   C76       1.0  0.13196  0.34560  0.89190  1.0000
  C   C77       1.0  0.12105  0.27583  0.90591  1.0000
  H   H102      1.0  0.31439  0.29562  0.51427  1.0000
  C   C78       1.0  0.19027  0.28387  0.85275  1.0000
  C   C79       1.0  0.13916  0.37707  0.87167  1.0000
  H   H103      1.0  0.16892  0.27965  0.92629  1.0000
  H   H104      1.0  0.14178  0.30457  0.94879  1.0000
  H   H105      1.0  0.19763  0.35543  0.89148  1.0000
  C   C80       1.0  0.12142  0.00961  0.83473  1.0000
  H   H106      1.0  0.14487  0.30376  0.83963  1.0000
  H   H107      1.0  0.17644  0.33057  0.83755  1.0000
  H   H108      1.0  0.11173  0.33514  0.87639  1.0000
  H   H109      1.0  0.12275  0.35123  0.92063  1.0000
  H   H110      1.0  0.12561  0.26480  0.87787  1.0000
  C   C81       1.0  0.03133  0.41121  0.60447  1.0000
  H   H111      1.0  0.09905  0.28971  0.90480  1.0000
  C   C82       1.0  0.11321  0.00467  0.76608  1.0000
  H   H112      1.0  0.27930  0.23910  0.78709  1.0000
  H   H113      1.0  0.17653  0.18017  0.69180  1.0000
  H   H114      1.0  0.21349  0.29039  0.86458  1.0000
  H   H115      1.0  0.19395  0.27792  0.82222  1.0000
  H   H116      1.0  0.18172  0.26222  0.86705  1.0000
  H   H117      1.0  0.15675  0.39122  0.88735  1.0000
  H   H118      1.0  0.11733  0.39138  0.87082  1.0000
  H   H119      1.0  0.14693  0.37372  0.84179  1.0000
  N   N6        1.0  0.01847  0.37706  0.66396  1.0000
  H   H120      1.0  0.16540  0.37259  0.95005  1.0000
  C   C83       1.0  0.24578  0.17080  0.81267  1.0000
  C   C84       1.0  0.08569  0.32990  0.98512  1.0000
  C   C85       1.0  0.09505  0.39930  0.49490  1.0000
  H   H121      1.0  0.21143  0.22085  0.78749  1.0000
  H   H122      1.0  0.18526  0.21831  0.70945  1.0000
  C   C86       1.0  0.18652  0.00262  0.75800  1.0000
  H   H123      1.0  0.21163  0.00772  0.76386  1.0000
  H   H124      1.0  0.31221  0.18535  0.58341  1.0000
  S   S25       1.0  0.06080  0.32366  0.55453  1.0000
  H   H125      1.0  0.17730  0.33646  0.97333  1.0000
  H   H126      1.0  0.22272  0.15915  0.80923  1.0000
  H   H127      1.0  0.22377  0.23994  0.53886  1.0000
  H   H128      1.0  0.03637  0.37279  0.92738  1.0000
  S   S26       1.0  0.23398  0.26736  0.95883  1.0000
  H   H129      1.0  0.21882  0.24363  0.74640  1.0000
  H   H130      1.0  0.17947  0.01509  0.73140  1.0000
  H   H131      1.0  0.00973  0.10132  0.70730  1.0000
  H   H132      1.0  0.26771  0.34188  0.96431  1.0000
  H   H133      1.0  0.28079  0.24032  0.52462  1.0000
  H   H134      1.0  0.11670  0.25646  0.92658  1.0000
  C   C87       1.0  0.05571  0.36785  0.94649  1.0000
  H   H135      1.0  0.02619  0.31287  0.62887  1.0000
  H   H136      1.0  0.01720  0.36312  0.60426  1.0000
  H   H137      1.0  0.19885  0.17443  0.75510  1.0000
  H   H138      1.0  0.26114  0.15450  0.82905  1.0000
  H   H139      1.0  0.25988  0.16976  0.67530  1.0000
  C   C88       1.0  0.23189  0.23622  0.50995  1.0000
  H   H140      1.0  0.11415  0.36331  0.53224  1.0000
  H   H141      1.0  0.20993  0.20027  0.67357  1.0000
  H   H142      1.0  0.25052  0.20189  0.94116  1.0000
  C   C89       1.0  0.19614  0.19602  0.69993  1.0000
  H   H143      1.0  0.20577  0.36476  0.95918  1.0000
  H   H144      1.0  0.03548  0.42402  0.67673  1.0000
  C   C90       1.0  0.18325  0.35369  0.95067  1.0000
  H   H145      1.0  0.18146  0.01308  0.81837  1.0000
  H   H146      1.0  0.06300  0.39350  0.68596  1.0000
  H   H147      1.0  0.25463  0.27208  0.77858  1.0000
  C   C91       1.0  0.26424  0.23634  0.50179  1.0000
  C   C92       1.0  0.25483  0.24748  0.78921  1.0000
  H   H148      1.0  0.00655  0.41470  0.73417  1.0000
  H   H149      1.0  0.09729  0.05196  0.81150  1.0000
  C   C93       1.0  0.27821  0.18358  0.69015  1.0000
  C   C94       1.0  0.03113  0.37846  0.62364  1.0000
  H   H150      1.0  0.24317  0.19212  0.83047  1.0000
  H   H151      1.0  0.16285  0.03925  0.78722  1.0000
  C   C95       1.0  0.26415  0.20967  0.71527  1.0000
  C   C96       1.0  0.23041  0.22752  0.76716  1.0000
  H   H152      1.0  0.29375  0.16781  0.70685  1.0000
  H   H153      1.0  0.26648  0.15500  0.76053  1.0000
  C   C97       1.0  0.26146  0.17812  0.77396  1.0000
  H   H154      1.0  0.08846  0.00369  0.77627  1.0000
  H   H155      1.0  0.03606  0.40845  0.57347  1.0000
  H   H156      1.0  0.22354  0.15695  0.72074  1.0000
  H   H157      1.0  0.31114  0.33655  0.52283  1.0000
  H   H158      1.0  0.29293  0.19477  0.66769  1.0000
  H   H159      1.0  0.01748  0.01316  0.96987  1.0000
  H   H160      1.0  0.00903  0.29542  0.67024  1.0000
  H   H161      1.0  0.05051  0.42617  0.61577  1.0000
  H   H162      1.0  0.01515  0.35846  0.51098  1.0000
  H   H163      1.0  0.25163  0.22619  0.69611  1.0000
  C   C98       1.0  0.09330  0.37226  0.51835  1.0000
  H   H164      1.0  0.28503  0.18813  0.77993  1.0000
  C   C99       1.0  0.02904  0.40201  0.73035  1.0000
  C   C100      1.0  0.02366  0.34409  0.67871  1.0000
  H   H165      1.0  0.13718  0.00575  0.85959  1.0000
  C   C101      1.0  0.11328  0.04503  0.83509  1.0000
  C   C102      1.0  0.32745  0.31626  0.52581  1.0000
  H   H166      1.0  0.11742  0.41085  0.49079  1.0000
  H   H167      1.0  0.11671  0.02921  0.75570  1.0000
  H   H168      1.0  0.01366  0.34079  0.70768  1.0000
  H   H169      1.0  0.04709  0.41643  0.74506  1.0000
  H   H170      1.0  0.32516  0.21388  0.55045  1.0000
  C   C103      1.0  0.03760  0.36972  0.50646  1.0000
  H   H171      1.0  0.00792  0.06654  0.96534  1.0000
  H   H172      1.0  0.00851  0.42346  0.60720  1.0000
  S   S27       1.0  0.32832  0.20695  0.83753  1.0000
  H   H173      1.0  0.29295  0.31015  0.97657  1.0000
  H   H174      1.0  0.31166  0.32014  0.58485  1.0000
  H   H175      1.0  0.17384  0.29901  0.49026  1.0000
  H   H176      1.0  0.04925  0.33932  0.68212  1.0000
  C   C104      1.0  0.01037  0.31757  0.65340  1.0000
  S   S28       1.0  0.16943  0.22795  0.49008  1.0000
  C   C105      1.0  0.28353  0.33283  0.98705  1.0000
  Fe  Fe13      1.0  0.30443  0.58599  0.15467  1.0000
  S   S29       1.0  0.25544  0.58425  0.13045  1.0000
  S   S30       1.0  0.25821  0.87799  0.44880  1.0000
  Fe  Fe14      1.0  0.28521  0.63757  0.21193  1.0000
  S   S31       1.0  0.23546  0.64060  0.19090  1.0000
  C   C106      1.0  0.02401  0.94187  0.32629  1.0000
  Fe  Fe15      1.0  0.23641  0.58763  0.19069  1.0000
  S   S32       1.0  0.20107  0.55332  0.21837  1.0000
  Fe  Fe16      1.0  0.25798  0.63720  0.13269  1.0000
  S   S33       1.0  0.24519  0.66425  0.07908  1.0000
  S   S34       1.0  0.28529  0.58492  0.21473  1.0000
  H   H177      1.0  0.30165  0.84505  0.24286  1.0000
  Fe  Fe17      1.0  0.27208  0.82603  0.36120  1.0000
  S   S35       1.0  0.22956  0.82017  0.39889  1.0000
  S   S36       1.0  0.27361  0.80335  0.30259  1.0000
  Fe  Fe18      1.0  0.29982  0.87982  0.40948  1.0000
  H   H178      1.0  0.07404  0.50424  0.14596  1.0000
  H   H179      1.0  0.20893  0.86760  0.22552  1.0000
  Fe  Fe19      1.0  0.26413  0.82529  0.44753  1.0000
  S   S37       1.0  0.22339  0.81148  0.08642  1.0000
  Fe  Fe20      1.0  0.22731  0.87314  0.39654  1.0000
  S   S38       1.0  0.18185  0.90227  0.39104  1.0000
  S   S39       1.0  0.30710  0.82739  0.40963  1.0000
  S   S40       1.0  0.26845  0.87880  0.35743  1.0000
  Fe  Fe21      1.0  0.04943  0.96350  0.22540  1.0000
  C   C107      1.0  0.03067  0.50169  0.17878  1.0000
  S   S41       1.0  0.08985  0.93308  0.24952  1.0000
  Fe  Fe22      1.0  0.04273  0.52844  0.35075  1.0000
  S   S42       1.0  0.04191  0.52924  0.41529  1.0000
  S   S43       1.0  0.07309  0.56248  0.31487  1.0000
  C   C108      1.0  0.15764  0.91146  0.35056  1.0000
  C   C109      1.0  0.15940  0.89482  0.31617  1.0000
  C   C110      1.0  0.13866  0.90191  0.28573  1.0000
  C   C111      1.0  0.11608  0.92600  0.28877  1.0000
  C   C112      1.0  0.11477  0.94309  0.32287  1.0000
  C   C113      1.0  0.13511  0.93561  0.35357  1.0000
  H   H180      1.0  0.17638  0.87610  0.31323  1.0000
  H   H181      1.0  0.14003  0.88847  0.25962  1.0000
  C   C114      1.0  0.29641  0.83394  0.21475  1.0000
  H   H182      1.0  0.08747  0.86502  0.12901  1.0000
  C   C115      1.0  0.23027  0.77073  0.08442  1.0000
  C   C116      1.0  0.23550  0.75365  0.11822  1.0000
  C   C117      1.0  0.24057  0.72098  0.11697  1.0000
  C   C118      1.0  0.23953  0.70521  0.08199  1.0000
  C   C119      1.0  0.23375  0.72231  0.04839  1.0000
  C   C120      1.0  0.22977  0.75504  0.04945  1.0000
  H   H183      1.0  0.23567  0.76564  0.14539  1.0000
  H   H184      1.0  0.24480  0.70795  0.14306  1.0000
  H   H185      1.0  0.23188  0.71020  0.02148  1.0000
  H   H186      1.0  0.02404  0.52249  0.27431  1.0000
  C   C121      1.0  0.29477  0.70002  0.27589  1.0000
  C   C122      1.0  0.27800  0.71860  0.25001  1.0000
  C   C123      1.0  0.27118  0.75007  0.25893  1.0000
  C   C124      1.0  0.28061  0.76306  0.29398  1.0000
  C   C125      1.0  0.29674  0.74423  0.32024  1.0000
  H   H187      1.0  0.05650  0.88908  0.14569  1.0000
  H   H188      1.0  0.27065  0.70891  0.22290  1.0000
  H   H189      1.0  0.25848  0.76436  0.23854  1.0000
  H   H190      1.0  0.00602  0.98166  0.06682  1.0000
  H   H191      1.0  0.14719  0.96801  0.05330  1.0000
  C   C126      1.0  0.16517  0.55641  0.24455  1.0000
  C   C127      1.0  0.14720  0.58394  0.24511  1.0000
  C   C128      1.0  0.11903  0.58515  0.26640  1.0000
  C   C129      1.0  0.10841  0.55903  0.28766  1.0000
  C   C130      1.0  0.12626  0.53145  0.28690  1.0000
  C   C131      1.0  0.15428  0.53015  0.26534  1.0000
  H   H192      1.0  0.15485  0.60421  0.22887  1.0000
  H   H193      1.0  0.10538  0.60658  0.26650  1.0000
  H   H194      1.0  0.16807  0.88358  0.08750  1.0000
  H   H195      1.0  0.04794  0.91389  0.02121  1.0000
  H   H196      1.0  0.09819  0.96212  0.32558  1.0000
  H   H197      1.0  0.01319  0.89562  0.30129  1.0000
  H   H198      1.0  0.99894  0.60963  0.45211  1.0000
  H   H199      1.0  0.11202  0.95413  0.10457  1.0000
  H   H200      1.0  0.30397  0.69806  0.48610  1.0000
  C   C132      1.0  0.02826  0.90591  0.32390  1.0000
  C   C133      1.0  0.15448  0.94819  0.07202  1.0000
  C   C134      1.0  0.28404  0.62979  0.99763  1.0000
  Fe  Fe23      1.0  0.28183  0.89069  0.01179  1.0000
  S   S44       1.0  0.31994  0.92578  0.03065  1.0000
  H   H201      1.0  0.22563  0.74991  0.48804  1.0000
  H   H202      1.0  0.31668  0.89322  0.20875  1.0000
  H   H203      1.0  0.13531  0.92203  0.11913  1.0000
  H   H204      1.0  0.32785  0.92945  0.33272  1.0000
  H   H205      1.0  0.29445  0.81245  0.10711  1.0000
  C   C135      1.0  0.12603  0.93405  0.09333  1.0000
  H   H206      1.0  0.13498  0.88608  0.03065  1.0000
  H   H207      1.0  0.15421  0.84548  0.07565  1.0000
  Fe  Fe24      1.0  0.23597  0.83831  0.03300  1.0000
  H   H208      1.0  0.27814  0.81590  0.22037  1.0000
  H   H209      1.0  0.32125  0.92504  0.14811  1.0000
  C   C136      1.0  0.30406  0.71290  0.31101  1.0000
  N   N7        1.0  0.10552  0.91253  0.06995  1.0000
  H   H210      1.0  0.17143  0.95782  0.09306  1.0000
  H   H211      1.0  0.16696  0.93056  0.05445  1.0000
  H   H212      1.0  0.13357  0.94883  0.37983  1.0000
  H   H213      1.0  0.13224  0.80595  0.46836  1.0000
  S   S45       1.0  0.28534  0.83810  0.01086  1.0000
  H   H214      1.0  0.26411  0.88756  0.23100  1.0000
  C   C137      1.0  0.17072  0.86735  0.48132  1.0000
  S   S46       1.0  0.23369  0.89079  0.03767  1.0000
  H   H215      1.0  0.09540  0.90312  0.15109  1.0000
  H   H216      1.0  0.10482  0.86370  0.05217  1.0000
  S   S47       1.0  0.05332  0.97327  0.16204  1.0000
  H   H217      1.0  0.05628  0.52922  0.24448  1.0000
  H   H218      1.0  0.29829  0.64566  0.01573  1.0000
  H   H219      1.0  0.05286  0.90069  0.31549  1.0000
  H   H220      1.0  0.20383  0.81214  0.48039  1.0000
  H   H221      1.0  0.03045  0.57757  0.24674  1.0000
  H   H222      1.0  0.23646  0.56685  0.28766  1.0000
  C   C138      1.0  0.22925  0.85274  0.21726  1.0000
  H   H223      1.0  0.23520  0.83852  0.24290  1.0000
  H   H224      1.0  0.06177  0.54112  0.16353  1.0000
  H   H225      1.0  0.25624  0.85827  0.13557  1.0000
  H   H226      1.0  0.28315  0.92666  0.16863  1.0000
  C   C139      1.0  0.07175  0.91380  0.00838  1.0000
  H   H227      1.0  0.16238  0.81551  0.43404  1.0000
  H   H228      1.0  0.02618  0.95129  0.29669  1.0000
  C   C140      1.0  0.30008  0.91070  0.15452  1.0000
  H   H229      1.0  0.19170  0.86636  0.46245  1.0000
  C   C141      1.0  0.07987  0.88981  0.13159  1.0000
  S   S48       1.0  0.30782  0.63864  0.15386  1.0000
  H   H230      1.0  0.26491  0.58832  0.31310  1.0000
  C   C142      1.0  0.14661  0.86891  0.08616  1.0000
  H   H231      1.0  0.22877  0.57593  0.33599  1.0000
  H   H232      1.0  0.22124  0.83717  0.19386  1.0000
  H   H233      1.0  0.02399  0.89399  0.35159  1.0000
  H   H234      1.0  0.11867  0.51119  0.30321  1.0000
  C   C143      1.0  0.09585  0.93035  0.03442  1.0000
  H   H235      1.0  0.11653  0.93527  0.01596  1.0000
  C   C144      1.0  0.03051  0.52648  0.24389  1.0000
  C   C145      1.0  0.06362  0.51585  0.17135  1.0000
  H   H236      1.0  0.29737  0.85281  0.09566  1.0000
  H   H237      1.0  0.16784  0.50866  0.26509  1.0000
  C   C146      1.0  0.29927  0.83590  0.11976  1.0000
  H   H238      1.0  0.04501  0.95071  0.34171  1.0000
  H   H239      1.0  0.15030  0.86309  0.46218  1.0000
  C   C147      1.0  0.12213  0.88268  0.05812  1.0000
  H   H240      1.0  0.32028  0.79920  0.17862  1.0000
  H   H241      1.0  0.24197  0.65779  0.99372  1.0000
  N   N8        1.0  0.20872  0.63757  0.32296  1.0000
  C   C148      1.0  0.20856  0.67070  0.30711  1.0000
  C   C149      1.0  0.22571  0.63858  0.36075  1.0000
  C   C150      1.0  0.17508  0.62801  0.32972  1.0000
  C   C151      1.0  0.22429  0.61623  0.29419  1.0000
  C   C152      1.0  0.18784  0.67638  0.27158  1.0000
  C   C153      1.0  0.25951  0.65141  0.35925  1.0000
  C   C154      1.0  0.16949  0.59516  0.34697  1.0000
  C   C155      1.0  0.23918  0.58548  0.30956  1.0000
  H   H242      1.0  0.20087  0.68783  0.32925  1.0000
  H   H243      1.0  0.23267  0.67814  0.29879  1.0000
  H   H244      1.0  0.22693  0.61523  0.37464  1.0000
  H   H245      1.0  0.21252  0.65343  0.38144  1.0000
  H   H246      1.0  0.16320  0.64536  0.34862  1.0000
  H   H247      1.0  0.16160  0.62811  0.30257  1.0000
  H   H248      1.0  0.20751  0.60972  0.27118  1.0000
  H   H249      1.0  0.24371  0.62894  0.27952  1.0000
  H   H250      1.0  0.19468  0.69900  0.25792  1.0000
  H   H251      1.0  0.19048  0.65770  0.24992  1.0000
  H   H252      1.0  0.16273  0.67846  0.27960  1.0000
  H   H253      1.0  0.27356  0.64033  0.33639  1.0000
  H   H254      1.0  0.25965  0.67730  0.35529  1.0000
  H   H255      1.0  0.27145  0.64652  0.38684  1.0000
  H   H256      1.0  0.18101  0.59183  0.37503  1.0000
  H   H257      1.0  0.17641  0.57639  0.32677  1.0000
  H   H258      1.0  0.14390  0.59204  0.35183  1.0000
  H   H259      1.0  0.08593  0.95377  0.04202  1.0000
  C   C156      1.0  0.25672  0.87426  0.20509  1.0000
  C   C157      1.0  0.07596  0.90533  0.09210  1.0000
  H   H260      1.0  0.01889  0.56304  0.20090  1.0000
  H   H261      1.0  0.16041  0.77689  0.45399  1.0000
  H   H262      1.0  0.22531  0.76798  0.02337  1.0000
  C   C158      1.0  0.30945  0.88303  0.18080  1.0000
  H   H263      1.0  0.24624  0.89188  0.18529  1.0000
  C   C159      1.0  0.27390  0.84305  0.15014  1.0000
  H   H264      1.0  0.29037  0.90275  0.12681  1.0000
  C   C160      1.0  0.15715  0.80219  0.46065  1.0000
  H   H265      1.0  0.26143  0.82058  0.15637  1.0000
  S   S49       1.0  0.30445  0.66066  0.26533  1.0000
  H   H266      1.0  0.31712  0.69865  0.33112  1.0000
  S   S50       1.0  0.00053  0.94336  0.21997  1.0000
  H   H267      1.0  0.27165  0.61356  0.01751  1.0000
  H   H268      1.0  0.08083  0.51310  0.19471  1.0000
  H   H269      1.0  0.06031  0.88924  0.07589  1.0000
  N   N9        1.0  0.28457  0.85824  0.18680  1.0000
  H   H270      1.0  0.28247  0.69616  0.00077  1.0000
  H   H271      1.0  0.30433  0.75408  0.34715  1.0000
  H   H272      1.0  0.06213  0.92727  0.09646  1.0000
  H   H273      1.0  0.13750  0.86546  0.11537  1.0000
  H   H274      1.0  0.16020  0.91665  0.47043  1.0000
  H   H275      1.0  0.07886  0.88942  0.00143  1.0000
  H   H276      1.0  0.01933  0.94578  0.39800  1.0000
  H   H277      1.0  0.01400  0.51694  0.16264  1.0000
  H   H278      1.0  0.32369  0.83528  0.13011  1.0000
  Fe  Fe25      1.0  0.00354  0.95500  0.15756  1.0000
  C   C161      1.0  0.01705  0.55873  0.23203  1.0000
  N   N10       1.0  0.02026  0.49895  0.21990  1.0000
  C   C162      1.0  0.32551  0.81492  0.20301  1.0000
  H   H279      1.0  0.99668  0.66081  0.48624  1.0000
  Fe  Fe26      1.0  0.29426  0.63207  0.70050  1.0000
  S   S51       1.0  0.25469  0.61512  0.66366  1.0000
  H   H280      1.0  0.18829  0.57105  0.61815  1.0000
  Fe  Fe27      1.0  0.24936  0.67386  0.74833  1.0000
  S   S52       1.0  0.20752  0.65984  0.71251  1.0000
  S   S53       1.0  0.23381  0.70284  0.80027  1.0000
  Fe  Fe28      1.0  0.22603  0.61085  0.71778  1.0000
  S   S54       1.0  0.19494  0.56744  0.72770  1.0000
  Fe  Fe29      1.0  0.23911  0.66567  0.66142  1.0000
  S   S55       1.0  0.22110  0.68315  0.60331  1.0000
  S   S56       1.0  0.26703  0.62405  0.75533  1.0000
  S   S57       1.0  0.27959  0.68340  0.69641  1.0000
  Fe  Fe30      1.0  0.26213  0.84019  0.95292  1.0000
  S   S58       1.0  0.21254  0.83638  0.97535  1.0000
  S   S59       1.0  0.28713  0.81343  0.90522  1.0000
  H   H281      1.0  0.07419  0.55452  0.66735  1.0000
  H   H282      1.0  0.04431  0.65547  0.86441  1.0000
  H   H283      1.0  0.06456  0.60710  0.92357  1.0000
  C   C163      1.0  0.09751  0.55501  0.68133  1.0000
  H   H284      1.0  0.00611  0.62612  0.94884  1.0000
  Fe  Fe31      1.0  0.21369  0.88947  0.97800  1.0000
  S   S60       1.0  0.17400  0.92527  0.96806  1.0000
  C   C164      1.0  0.13264  0.81070  0.55330  1.0000
  S   S61       1.0  0.26196  0.89331  0.95195  1.0000
  H   H285      1.0  0.06107  0.88412  0.79012  1.0000
  H   H286      1.0  0.06755  0.57207  0.89624  1.0000
  S   S62       1.0  0.05889  0.93410  0.85088  1.0000
  C   C165      1.0  0.13953  0.96217  0.80309  1.0000
  H   H287      1.0  0.03268  0.82558  0.77283  1.0000
  S   S63       1.0  0.06220  0.55008  0.81135  1.0000
  C   C166      1.0  0.14206  0.92708  0.93534  1.0000
  C   C167      1.0  0.13428  0.90204  0.91137  1.0000
  C   C168      1.0  0.10858  0.90458  0.88610  1.0000
  C   C169      1.0  0.09047  0.93221  0.88415  1.0000
  C   C170      1.0  0.09806  0.95719  0.90835  1.0000
  C   C171      1.0  0.12364  0.95457  0.93379  1.0000
  H   H288      1.0  0.14806  0.88069  0.91233  1.0000
  H   H289      1.0  0.10288  0.88502  0.86769  1.0000
  S   S64       1.0  0.02496  0.97482  0.76282  1.0000
  H   H290      1.0  0.18566  0.60319  0.65092  1.0000
  C   C172      1.0  0.25546  0.76828  0.53223  1.0000
  C   C173      1.0  0.26632  0.76355  0.56980  1.0000
  C   C174      1.0  0.25622  0.73761  0.59179  1.0000
  C   C175      1.0  0.23475  0.71616  0.57662  1.0000
  C   C176      1.0  0.22380  0.72088  0.53905  1.0000
  C   C177      1.0  0.23421  0.74666  0.51686  1.0000
  H   H291      1.0  0.28261  0.78022  0.58209  1.0000
  H   H292      1.0  0.26477  0.73445  0.62066  1.0000
  H   H293      1.0  0.20722  0.70441  0.52700  1.0000
  H   H294      1.0  0.08418  0.97846  0.90764  1.0000
  C   C178      1.0  0.24883  0.73481  0.82733  1.0000
  C   C179      1.0  0.27973  0.74546  0.82369  1.0000
  C   C180      1.0  0.29098  0.76965  0.84759  1.0000
  C   C181      1.0  0.27151  0.78358  0.87525  1.0000
  C   C182      1.0  0.24057  0.77304  0.87876  1.0000
  C   C183      1.0  0.22934  0.74887  0.85487  1.0000
  H   H295      1.0  0.29504  0.73482  0.80279  1.0000
  H   H296      1.0  0.31496  0.77759  0.84463  1.0000
  H   H297      1.0  0.22531  0.78345  0.89988  1.0000
  H   H298      1.0  0.20541  0.74081  0.85797  1.0000
  C   C184      1.0  0.15944  0.56310  0.75436  1.0000
  C   C185      1.0  0.14232  0.58894  0.76760  1.0000
  C   C186      1.0  0.11297  0.58442  0.78560  1.0000
  C   C187      1.0  0.10058  0.55406  0.79144  1.0000
  C   C188      1.0  0.11809  0.52819  0.77913  1.0000
  C   C189      1.0  0.14713  0.53275  0.76043  1.0000
  H   H299      1.0  0.15143  0.61244  0.76342  1.0000
  H   H300      1.0  0.09971  0.60464  0.79493  1.0000
  C   C190      1.0  0.14719  0.60129  0.60790  1.0000
  H   H301      1.0  0.16008  0.51256  0.75034  1.0000
  C   C191      1.0  0.13479  0.65441  0.65960  1.0000
  C   C192      1.0  0.04537  0.88760  0.76526  1.0000
  H   H302      1.0  0.28941  0.67697  0.59004  1.0000
  H   H303      1.0  0.29706  0.73429  0.92794  1.0000
  C   C193      1.0  0.16735  0.90165  0.49500  1.0000
  N   N11       1.0  0.17274  0.84254  0.51221  1.0000
  H   H304      1.0  0.12211  0.84856  0.51528  1.0000
  H   H305      1.0  0.03536  0.65054  0.92879  1.0000
  H   H306      1.0  0.09931  0.99668  0.84136  1.0000
  H   H307      1.0  0.15779  0.65666  0.64500  1.0000
  C   C194      1.0  0.14220  0.84208  0.53412  1.0000
  C   C195      1.0  0.09082  0.60466  0.62088  1.0000
  H   H308      1.0  0.11660  0.95121  0.81053  1.0000
  H   H309      1.0  0.12934  0.97405  0.95234  1.0000
  H   H310      1.0  0.19737  0.61097  0.60355  1.0000
  H   H311      1.0  0.11160  0.81477  0.57134  1.0000
  H   H312      1.0  0.05065  0.86994  0.74300  1.0000
  C   C196      1.0  0.02162  0.63466  0.81543  1.0000
  H   H313      1.0  0.20750  0.80407  0.56419  1.0000
  H   H314      1.0  0.05143  0.91084  0.75282  1.0000
  H   H315      1.0  0.05556  0.58895  0.58032  1.0000
  H   H316      1.0  0.03855  0.85361  0.83237  1.0000
  N   N12       1.0  0.00620  0.62668  0.88681  1.0000
  Fe  Fe32      1.0  0.03597  0.50906  0.84039  1.0000
  H   H317      1.0  0.02540  0.60904  0.81384  1.0000
  C   C197      1.0  0.29247  0.65682  0.91770  1.0000
  H   H318      1.0  0.11613  0.66475  0.64148  1.0000
  C   C198      1.0  0.29070  0.62770  0.57316  1.0000
  C   C199      1.0  0.20623  0.82916  0.57206  1.0000
  C   C200      1.0  0.02245  0.59524  0.88940  1.0000
  C   C201      1.0  0.25933  0.64754  0.97346  1.0000
  H   H319      1.0  0.30474  0.71709  0.53133  1.0000
  H   H320      1.0  0.32001  0.87882  0.89520  1.0000
  H   H321      1.0  0.14550  0.62446  0.59308  1.0000
  H   H322      1.0  0.14705  0.61199  0.68990  1.0000
  H   H323      1.0  0.22200  0.85264  0.52087  1.0000
  H   H324      1.0  0.18048  0.79190  0.51373  1.0000
  H   H325      1.0  0.07044  0.60872  0.87205  1.0000
  C   C202      1.0  0.18140  0.59612  0.62105  1.0000
  C   C203      1.0  0.22255  0.66791  0.90395  1.0000
  H   H326      1.0  0.01876  0.58079  0.86356  1.0000
  H   H327      1.0  0.19664  0.87468  0.55067  1.0000
  H   H328      1.0  0.00693  0.67002  0.85444  1.0000
  C   C204      1.0  0.19992  0.85107  0.53783  1.0000
  H   H329      1.0  0.31069  0.65226  0.62010  1.0000
  C   C205      1.0  0.30407  0.67761  0.88456  1.0000
  H   H330      1.0  0.13627  0.66885  0.68592  1.0000
  C   C206      1.0  0.30669  0.65744  0.58934  1.0000
  H   H331      1.0  0.24646  0.62908  0.95741  1.0000
  C   C207      1.0  0.30389  0.69378  0.51741  1.0000
  C   C208      1.0  0.07961  0.58203  0.58928  1.0000
  H   H332      1.0  0.15818  0.95939  0.86225  1.0000
  H   H333      1.0  0.28446  0.68667  0.86692  1.0000
  H   H334      1.0  0.26486  0.62999  0.57614  1.0000
  H   H335      1.0  0.09066  0.62855  0.60786  1.0000
  H   H336      1.0  0.10214  0.53089  0.69220  1.0000
  C   C209      1.0  0.12391  0.56441  0.65341  1.0000
  H   H337      1.0  0.10686  0.62074  0.69004  1.0000
  H   H338      1.0  0.28139  0.68196  0.52430  1.0000
  H   H339      1.0  0.18860  0.83273  0.59491  1.0000
  C   C210      1.0  0.24416  0.68874  0.92862  1.0000
  H   H340      1.0  0.14242  0.86032  0.55686  1.0000
  S   S65       1.0  0.03370  0.50981  0.90471  1.0000
  H   H341      1.0  0.13753  0.98096  0.71809  1.0000
  H   H342      1.0  0.10892  0.50471  0.78317  1.0000
  H   H343      1.0  0.09664  0.57061  0.70655  1.0000
  C   C211      1.0  0.05824  0.59646  0.89577  1.0000
  H   H344      1.0  0.00525  0.95508  0.97964  1.0000
  H   H345      1.0  0.04218  0.64496  0.80043  1.0000
  N   N13       1.0  0.12244  0.59758  0.63826  1.0000
  H   H346      1.0  0.15096  0.80079  0.57211  1.0000
  C   C212      1.0  0.12770  0.62005  0.67094  1.0000
  H   H347      1.0  0.14645  0.56033  0.66875  1.0000
  H   H348      1.0  0.20961  0.65032  0.92124  1.0000
  S   S66       1.0  0.26820  0.80231  0.50686  1.0000
  H   H349      1.0  0.00008  0.64091  0.79927  1.0000
  H   H350      1.0  0.16419  0.92534  0.83410  1.0000
  H   H351      1.0  0.00487  0.84918  0.71401  1.0000
  C   C213      1.0  0.16391  0.95145  0.83304  1.0000
  C   C214      1.0  0.00210  0.82708  0.85884  1.0000
  C   C215      1.0  0.02024  0.64762  0.85649  1.0000
  H   H352      1.0  0.07814  0.55730  0.59915  1.0000
  H   H353      1.0  0.22944  0.83523  0.58453  1.0000
  H   H354      1.0  0.14654  0.95052  0.77619  1.0000
  H   H355      1.0  0.01204  0.58089  0.91289  1.0000
  H   H356      1.0  0.28018  0.63632  0.90484  1.0000
  H   H357      1.0  0.07223  0.60532  0.64320  1.0000
  Fe  Fe33      1.0  0.02808  0.97382  0.82702  1.0000
  H   H358      1.0  0.31882  0.66317  0.86522  1.0000
  H   H359      1.0  0.14343  0.58405  0.58455  1.0000
  H   H360      1.0  0.09448  0.58353  0.56337  1.0000
  H   H361      1.0  0.18798  0.95911  0.82545  1.0000
  H   H362      1.0  0.20457  0.68311  0.89018  1.0000
  H   H363      1.0  0.09855  0.99394  0.70823  1.0000
  C   C216      1.0  0.01035  0.88771  0.77659  1.0000
  H   H364      1.0  0.12591  0.79272  0.53197  1.0000
  H   H365      1.0  0.01795  0.80672  0.85422  1.0000
  C   C217      1.0  0.01260  0.85555  0.83445  1.0000
  H   H366      1.0  0.00377  0.80735  0.71665  1.0000
  H   H367      1.0  0.10394  0.95981  0.73713  1.0000
  H   H368      1.0  0.25177  0.70820  0.90967  1.0000
  H   H369      1.0  0.29860  0.60642  0.58901  1.0000
  C   C218      1.0  0.00685  0.82936  0.77266  1.0000
  C   C219      1.0  0.01064  0.64277  0.92491  1.0000
  N   N14       1.0  0.27192  0.67263  0.94694  1.0000
  H   H370      1.0  0.12410  0.54703  0.62973  1.0000
  H   H371      1.0  0.29499  0.62396  0.54242  1.0000
  H   H372      1.0  0.18561  0.97698  0.75327  1.0000
  H   H373      1.0  0.31387  0.64689  0.93135  1.0000
  H   H374      1.0  0.23535  0.65625  0.88037  1.0000
  H   H375      1.0  0.00930  0.87749  0.85131  1.0000
  C   C220      1.0  0.00080  0.96806  0.95267  1.0000
  H   H376      1.0  0.14924  0.90430  0.51743  1.0000
  H   H377      1.0  0.31894  0.69718  0.89469  1.0000
  C   C221      1.0  0.17985  0.81166  0.49302  1.0000
  C   C222      1.0  0.29047  0.73068  0.95816  1.0000
  H   H378      1.0  0.99696  0.80783  0.78624  1.0000
  H   H379      1.0  0.26712  0.74150  0.96323  1.0000
  H   H380      1.0  0.32351  0.92049  0.89561  1.0000
  H   H381      1.0  0.02205  0.96541  0.93458  1.0000
  H   H382      1.0  0.00689  0.90831  0.79564  1.0000
  H   H383      1.0  0.00268  0.83359  0.88955  1.0000
  H   H384      1.0  0.22924  0.69992  0.95088  1.0000
  H   H385      1.0  0.31579  0.68834  0.97267  1.0000
  C   C223      1.0  0.29080  0.69576  0.97061  1.0000
  H   H386      1.0  0.30751  0.74403  0.97580  1.0000
  H   H387      1.0  0.19016  0.91113  0.50508  1.0000
  H   H388      1.0  0.29962  0.61509  0.97972  1.0000
  C   C224      1.0  0.11387  0.98336  0.73057  1.0000
  H   H389      1.0  0.99677  0.89352  0.75047  1.0000
  N   N15       1.0  0.13573  0.99725  0.79828  1.0000
  N   N16       1.0  0.99815  0.85812  0.79528  1.0000
  H   H390      1.0  0.07001  0.92689  0.98095  1.0000
  H   H391      1.0  0.32952  0.71549  0.58759  1.0000
  H   H392      1.0  0.99675  0.68232  0.96033  1.0000
  Fe  Fe34      1.0  0.37874  0.28482  0.36113  1.0000
  S   S67       1.0  0.39006  0.24490  0.40060  1.0000
  S   S68       1.0  0.39403  0.33618  0.37180  1.0000
  C   C225      1.0  0.65957  0.09384  0.16486  1.0000
  H   H393      1.0  0.46191  0.45591  0.12379  1.0000
  C   C226      1.0  0.49299  0.07783  0.38471  1.0000
  Fe  Fe35      1.0  0.39532  0.21419  0.34847  1.0000
  S   S69       1.0  0.43763  0.18250  0.33572  1.0000
  H   H394      1.0  0.52106  0.44613  0.07345  1.0000
  S   S70       1.0  0.38808  0.25530  0.30873  1.0000
  H   H395      1.0  0.38526  0.21132  0.23504  1.0000
  H   H396      1.0  0.47892  0.03400  0.36066  1.0000
  S   S71       1.0  0.55144  0.05261  0.13224  1.0000
  H   H397      1.0  0.38570  0.36040  0.48299  1.0000
  S   S72       1.0  0.44343  0.04084  0.27465  1.0000
  S   S73       1.0  0.47118  0.01780  0.16923  1.0000
  H   H398      1.0  0.38820  0.14184  0.13072  1.0000
  C   C227      1.0  0.53471  0.00281  0.34611  1.0000
  S   S74       1.0  0.57513  0.43639  0.02274  1.0000
  H   H399      1.0  0.65246  0.07984  0.13950  1.0000
  H   H400      1.0  0.35972  0.17333  0.13334  1.0000
  S   S75       1.0  0.49172  0.46668  0.99303  1.0000
  H   H401      1.0  0.42755  0.18075  0.16230  1.0000
  H   H402      1.0  0.33820  0.36028  0.43498  1.0000
  C   C228      1.0  0.62744  0.46501  0.05685  1.0000
  C   C229      1.0  0.61121  0.43712  0.04907  1.0000
  C   C230      1.0  0.62300  0.40880  0.06443  1.0000
  H   H403      1.0  0.46609  0.33893  0.48342  1.0000
  S   S76       1.0  0.52968  0.01606  0.23111  1.0000
  C   C231      1.0  0.51020  0.48692  0.15712  1.0000
  H   H404      1.0  0.61067  0.38706  0.05886  1.0000
  C   C232      1.0  0.51056  0.45132  0.10192  1.0000
  H   H405      1.0  0.51765  0.43147  0.12083  1.0000
  H   H406      1.0  0.56307  0.44765  0.16381  1.0000
  C   C233      1.0  0.64434  0.05813  0.06298  1.0000
  C   C234      1.0  0.58745  0.05383  0.10586  1.0000
  C   C235      1.0  0.59662  0.08220  0.08806  1.0000
  C   C236      1.0  0.47462  0.44850  0.09772  1.0000
  C   C237      1.0  0.61320  0.05859  0.47248  1.0000
  H   H407      1.0  0.37167  0.31413  0.44417  1.0000
  H   H408      1.0  0.58159  0.10257  0.09039  1.0000
  H   H409      1.0  0.55196  0.49494  0.19327  1.0000
  C   C238      1.0  0.43844  0.14323  0.31828  1.0000
  C   C239      1.0  0.46551  0.13231  0.29946  1.0000
  C   C240      1.0  0.46718  0.10137  0.28506  1.0000
  C   C241      1.0  0.44208  0.08060  0.29032  1.0000
  C   C242      1.0  0.41518  0.09139  0.30959  1.0000
  C   C243      1.0  0.41318  0.12258  0.32307  1.0000
  H   H410      1.0  0.48526  0.14800  0.29575  1.0000
  H   H411      1.0  0.48807  0.09350  0.27041  1.0000
  H   H412      1.0  0.39564  0.07557  0.31399  1.0000
  H   H413      1.0  0.39229  0.13050  0.33770  1.0000
  C   C244      1.0  0.41711  0.35450  0.40841  1.0000
  C   C245      1.0  0.41723  0.38755  0.41144  1.0000
  C   C246      1.0  0.43470  0.40307  0.44021  1.0000
  C   C247      1.0  0.45250  0.38575  0.46652  1.0000
  C   C248      1.0  0.45233  0.35268  0.46350  1.0000
  C   C249      1.0  0.43492  0.33718  0.43471  1.0000
  H   H414      1.0  0.40370  0.40133  0.39131  1.0000
  H   H415      1.0  0.43446  0.42845  0.44191  1.0000
  H   H416      1.0  0.34536  0.34359  0.10994  1.0000
  H   H417      1.0  0.43551  0.31182  0.43264  1.0000
  H   H418      1.0  0.36270  0.12310  0.25552  1.0000
  C   C250      1.0  0.55800  0.48119  0.11549  1.0000
  C   C251      1.0  0.50067  0.04831  0.36099  1.0000
  C   C252      1.0  0.65535  0.08686  0.43897  1.0000
  N   N17       1.0  0.52265  0.48225  0.11712  1.0000
  H   H419      1.0  0.60898  0.10544  0.44936  1.0000
  H   H420      1.0  0.65881  0.38630  0.09910  1.0000
  H   H421      1.0  0.57153  0.43132  0.11739  1.0000
  H   H422      1.0  0.60058  0.00567  0.11561  1.0000
  C   C253      1.0  0.62441  0.08551  0.45332  1.0000
  H   H423      1.0  0.59148  0.02265  0.40609  1.0000
  C   C254      1.0  0.57342  0.45267  0.13543  1.0000
  C   C255      1.0  0.40189  0.18155  0.16830  1.0000
  C   C256      1.0  0.58933  0.03503  0.37836  1.0000
  H   H424      1.0  0.44084  0.21757  0.20923  1.0000
  H   H425      1.0  0.46844  0.42353  0.09226  1.0000
  H   H426      1.0  0.39509  0.17824  0.10689  1.0000
  H   H427      1.0  0.41743  0.08821  0.20591  1.0000
  N   N18       1.0  0.52877  0.02938  0.37380  1.0000
  H   H428      1.0  0.54874  0.01121  0.32116  1.0000
  C   C257      1.0  0.63522  0.02983  0.08087  1.0000
  C   C258      1.0  0.65036  0.40826  0.08734  1.0000
  H   H429      1.0  0.55794  0.06433  0.34576  1.0000
  H   H430      1.0  0.41442  0.13147  0.24436  1.0000
  H   H431      1.0  0.34611  0.18083  0.20490  1.0000
  H   H432      1.0  0.38508  0.10481  0.18248  1.0000
  H   H433      1.0  0.61257  0.11523  0.16269  1.0000
  H   H434      1.0  0.56603  0.48112  0.08523  1.0000
  H   H435      1.0  0.54607  0.00371  0.42320  1.0000
  H   H436      1.0  0.42400  0.11036  0.16276  1.0000
  H   H437      1.0  0.40019  0.00682  0.37476  1.0000
  C   C259      1.0  0.38511  0.16752  0.13320  1.0000
  H   H438      1.0  0.51156  0.09599  0.38237  1.0000
  Fe  Fe36      1.0  0.47699  0.01618  0.23309  1.0000
  H   H439      1.0  0.33874  0.30296  0.10140  1.0000
  H   H440      1.0  0.63166  0.11898  0.20878  1.0000
  H   H441      1.0  0.49546  0.00235  0.30563  1.0000
  C   C260      1.0  0.41539  0.13878  0.21402  1.0000
  H   H442      1.0  0.61588  0.08219  0.19353  1.0000
  S   S77       1.0  0.34477  0.19954  0.34869  1.0000
  C   C261      1.0  0.60713  0.02768  0.10225  1.0000
  H   H443      1.0  0.52339  0.03707  0.43454  1.0000
  C   C262      1.0  0.62481  0.08440  0.06686  1.0000
  H   H444      1.0  0.33949  0.29078  0.45822  1.0000
  H   H445      1.0  0.47122  0.08869  0.37323  1.0000
  H   H446      1.0  0.45359  0.18727  0.24257  1.0000
  H   H447      1.0  0.60779  0.05349  0.37812  1.0000
  C   C263      1.0  0.36035  0.15925  0.20990  1.0000
  H   H448      1.0  0.64998  0.00929  0.07808  1.0000
  C   C264      1.0  0.52504  0.01720  0.41408  1.0000
  Fe  Fe37      1.0  0.33834  0.23393  0.39714  1.0000
  C   C265      1.0  0.40992  0.10931  0.18942  1.0000
  H   H449      1.0  0.43741  0.22296  0.25945  1.0000
  H   H450      1.0  0.48839  0.07216  0.41511  1.0000
  N   N19       1.0  0.39480  0.16697  0.20676  1.0000
  C   C266      1.0  0.40200  0.19122  0.23700  1.0000
  C   C267      1.0  0.55696  0.05095  0.37320  1.0000
  H   H451      1.0  0.39544  0.20698  0.16816  1.0000
  H   H452      1.0  0.35256  0.14273  0.18746  1.0000
  C   C268      1.0  0.43546  0.20523  0.23635  1.0000
  H   H453      1.0  0.47420  0.00646  0.41416  1.0000
  H   H454      1.0  0.50702  0.46394  0.17203  1.0000
  H   H455      1.0  0.59889  0.45727  0.13935  1.0000
  H   H456      1.0  0.55537  0.06887  0.39628  1.0000
  H   H457      1.0  0.61885  0.48702  0.04539  1.0000
  C   C269      1.0  0.34963  0.14483  0.24824  1.0000
  Fe  Fe38      1.0  0.33708  0.24130  0.30960  1.0000
  C   C270      1.0  0.62840  0.10368  0.18368  1.0000
  H   H458      1.0  0.39888  0.18129  0.26615  1.0000
  H   H459      1.0  0.44051  0.14492  0.20987  1.0000
  C   C271      1.0  0.63336  0.03291  0.47699  1.0000
  H   H460      1.0  0.46600  0.46200  0.07272  1.0000
  H   H461      1.0  0.50394  0.05619  0.33084  1.0000
  H   H462      1.0  0.59502  0.01866  0.35478  1.0000
  C   C272      1.0  0.65455  0.46453  0.08021  1.0000
  C   C273      1.0  0.34978  0.31462  0.46137  1.0000
  H   H463      1.0  0.63115  0.10625  0.05299  1.0000
  Fe  Fe39      1.0  0.52453  0.01486  0.16691  1.0000
  H   H464      1.0  0.35131  0.16193  0.27199  1.0000
  H   H465      1.0  0.65033  0.13981  0.11184  1.0000
  H   H466      1.0  0.37814  0.25827  0.47970  1.0000
  H   H467      1.0  0.64694  0.15682  0.15731  1.0000
  H   H468      1.0  0.38961  0.01422  0.32544  1.0000
  Fe  Fe40      1.0  0.40771  0.28116  0.77109  1.0000
  S   S78       1.0  0.41275  0.23178  0.79460  1.0000
  S   S79       1.0  0.44347  0.32084  0.78211  1.0000
  H   H469      1.0  0.50309  0.41496  0.71540  1.0000
  C   C274      1.0  0.34918  0.14010  0.63927  1.0000
  H   H470      1.0  0.49164  0.40983  0.66603  1.0000
  Fe  Fe41      1.0  0.41078  0.21399  0.73369  1.0000
  S   S80       1.0  0.44601  0.18360  0.69974  1.0000
  S   S81       1.0  0.47478  0.40376  0.50408  1.0000
  S   S82       1.0  0.40923  0.26339  0.71063  1.0000
  Fe  Fe42      1.0  0.54777  0.02214  0.52687  1.0000
  S   S83       1.0  0.55063  0.02242  0.59121  1.0000
  H   H471      1.0  0.41775  0.24838  0.61541  1.0000
  Fe  Fe43      1.0  0.49781  0.01987  0.59027  1.0000
  S   S84       1.0  0.46364  0.04428  0.63184  1.0000
  S   S85       1.0  0.49457  0.02262  0.52595  1.0000
  C   C275      1.0  0.53300  0.01024  0.78409  1.0000
  S   S86       1.0  0.54254  0.46618  0.92283  1.0000
  S   S87       1.0  0.58850  0.46846  0.61347  1.0000
  Fe  Fe44      1.0  0.49006  0.46604  0.92854  1.0000
  S   S88       1.0  0.45218  0.43768  0.89697  1.0000
  S   S89       1.0  0.49474  0.45108  0.59137  1.0000
  H   H472      1.0  0.34749  0.37176  0.49758  1.0000
  C   C276      1.0  0.61427  0.38617  0.66644  1.0000
  C   C277      1.0  0.59652  0.40883  0.64618  1.0000
  C   C278      1.0  0.61025  0.43739  0.63526  1.0000
  H   H473      1.0  0.45985  0.36108  0.69156  1.0000
  C   C279      1.0  0.42733  0.41488  0.66476  1.0000
  H   H474      1.0  0.37281  0.19137  0.54018  1.0000
  H   H475      1.0  0.57204  0.40458  0.63987  1.0000
  C   C280      1.0  0.49390  0.39802  0.69413  1.0000
  H   H476      1.0  0.60213  0.38854  0.80107  1.0000
  H   H477      1.0  0.38093  0.24330  0.59248  1.0000
  Fe  Fe45      1.0  0.35953  0.23123  0.79308  1.0000
  S   S90       1.0  0.35455  0.28136  0.77244  1.0000
  C   C281      1.0  0.33260  0.20048  0.57615  1.0000
  H   H478      1.0  0.57563  0.45461  0.74041  1.0000
  C   C282      1.0  0.37051  0.16921  0.63533  1.0000
  C   C283      1.0  0.36143  0.18023  0.56547  1.0000
  H   H479      1.0  0.36328  0.11818  0.64092  1.0000
  H   H480      1.0  0.65847  0.34546  0.62293  1.0000
  H   H481      1.0  0.55932  0.04375  0.68245  1.0000
  C   C284      1.0  0.45055  0.14450  0.68179  1.0000
  C   C285      1.0  0.47574  0.13793  0.65698  1.0000
  C   C286      1.0  0.48001  0.10766  0.64119  1.0000
  C   C287      1.0  0.45920  0.08327  0.65018  1.0000
  C   C288      1.0  0.43399  0.08983  0.67496  1.0000
  C   C289      1.0  0.42962  0.12015  0.69060  1.0000
  H   H482      1.0  0.49210  0.15649  0.64985  1.0000
  H   H483      1.0  0.49952  0.10319  0.62224  1.0000
  H   H484      1.0  0.41773  0.07123  0.68227  1.0000
  H   H485      1.0  0.41019  0.12460  0.70969  1.0000
  C   C290      1.0  0.44583  0.35186  0.81620  1.0000
  C   C291      1.0  0.47467  0.36751  0.82153  1.0000
  C   C292      1.0  0.47736  0.39324  0.84679  1.0000
  C   C293      1.0  0.45099  0.40410  0.86656  1.0000
  C   C294      1.0  0.42209  0.38877  0.86072  1.0000
  C   C295      1.0  0.41954  0.36266  0.83608  1.0000
  H   H486      1.0  0.49517  0.35943  0.80626  1.0000
  H   H487      1.0  0.49971  0.40477  0.85080  1.0000
  H   H488      1.0  0.40148  0.39706  0.87561  1.0000
  H   H489      1.0  0.39713  0.35119  0.83210  1.0000
  H   H490      1.0  0.39487  0.44695  0.75263  1.0000
  C   C296      1.0  0.61257  0.48845  0.74250  1.0000
  C   C297      1.0  0.33155  0.30946  0.56900  1.0000
  H   H491      1.0  0.41975  0.20482  0.57034  1.0000
  H   H492      1.0  0.65867  0.41444  0.83244  1.0000
  H   H493      1.0  0.44251  0.43533  0.65717  1.0000
  H   H494      1.0  0.33593  0.14164  0.66648  1.0000
  C   C298      1.0  0.36722  0.35567  0.50474  1.0000
  Fe  Fe46      1.0  0.35702  0.25960  0.71393  1.0000
  C   C299      1.0  0.56858  0.45647  0.82097  1.0000
  C   C300      1.0  0.41363  0.45634  0.73382  1.0000
  C   C301      1.0  0.43220  0.39059  0.63246  1.0000
  H   H495      1.0  0.38624  0.36020  0.67502  1.0000
  H   H496      1.0  0.61635  0.32356  0.59006  1.0000
  H   H497      1.0  0.41851  0.13710  0.61091  1.0000
  H   H498      1.0  0.35636  0.18969  0.64436  1.0000
  N   N20       1.0  0.43430  0.40414  0.70508  1.0000
  H   H499      1.0  0.49414  0.01878  0.70496  1.0000
  H   H500      1.0  0.51184  0.37925  0.69114  1.0000
  C   C302      1.0  0.53705  0.04485  0.69882  1.0000
  N   N21       1.0  0.35692  0.32175  0.50275  1.0000
  H   H501      1.0  0.56345  0.40314  0.72887  1.0000
  H   H502      1.0  0.41385  0.39431  0.61040  1.0000
  C   C303      1.0  0.60351  0.44874  0.81438  1.0000
  H   H503      1.0  0.38688  0.23083  0.64175  1.0000
  S   S91       1.0  0.53745  0.47545  0.51894  1.0000
  H   H504      1.0  0.33201  0.13838  0.61560  1.0000
  C   C304      1.0  0.42335  0.14531  0.55059  1.0000
  N   N22       1.0  0.38527  0.17397  0.59656  1.0000
  C   C305      1.0  0.40288  0.14418  0.58691  1.0000
  H   H505      1.0  0.55762  0.01691  0.77864  1.0000
  C   C306      1.0  0.40911  0.20014  0.59879  1.0000
  H   H506      1.0  0.35156  0.15757  0.55498  1.0000
  H   H507      1.0  0.42255  0.47794  0.74785  1.0000
  H   H508      1.0  0.59735  0.33320  0.54615  1.0000
  H   H509      1.0  0.35531  0.25772  0.52299  1.0000
  H   H510      1.0  0.40282  0.42376  0.66255  1.0000
  H   H511      1.0  0.55583  0.46394  0.79507  1.0000
  H   H512      1.0  0.38899  0.16721  0.65766  1.0000
  C   C307      1.0  0.39737  0.23223  0.61293  1.0000
  C   C308      1.0  0.39626  0.35630  0.70386  1.0000
  H   H513      1.0  0.42886  0.19316  0.61797  1.0000
  Fe  Fe47      1.0  0.48957  0.45271  0.52707  1.0000
  H   H514      1.0  0.36173  0.36804  0.56538  1.0000
  H   H515      1.0  0.44473  0.15975  0.55500  1.0000
  H   H516      1.0  0.41519  0.33851  0.70319  1.0000
  H   H517      1.0  0.65140  0.31436  0.53346  1.0000
  C   C309      1.0  0.37782  0.26519  0.51013  1.0000
  H   H518      1.0  0.65736  0.28362  0.93616  1.0000
  C   C310      1.0  0.63644  0.11075  0.55322  1.0000
  H   H519      1.0  0.65842  0.45627  0.78063  1.0000
  Fe  Fe48      1.0  0.54083  0.47578  0.58331  1.0000
  C   C311      1.0  0.56579  0.39703  0.75960  1.0000
  H   H520      1.0  0.45476  0.39486  0.61744  1.0000
  H   H521      1.0  0.57798  0.00618  0.72410  1.0000
  C   C312      1.0  0.40648  0.38742  0.72244  1.0000
  H   H522      1.0  0.54871  0.41051  0.77664  1.0000
  S   S92       1.0  0.35827  0.20963  0.73413  1.0000
  H   H523      1.0  0.60316  0.36452  0.67554  1.0000
  C   C313      1.0  0.64211  0.44245  0.64405  1.0000
  H   H524      1.0  0.38523  0.40253  0.72153  1.0000
  H   H525      1.0  0.46640  0.37526  0.73775  1.0000
  C   C314      1.0  0.46278  0.38318  0.70771  1.0000
  H   H526      1.0  0.60944  0.44303  0.71593  1.0000
  C   C315      1.0  0.61670  0.34021  0.56561  1.0000
  C   C316      1.0  0.44089  0.43273  0.72935  1.0000
  H   H527      1.0  0.44831  0.42555  0.75872  1.0000
  H   H528      1.0  0.55924  0.37183  0.76231  1.0000
  H   H529      1.0  0.43083  0.36567  0.64113  1.0000
  H   H530      1.0  0.51792  0.03152  0.78281  1.0000
  H   H531      1.0  0.46066  0.44665  0.71726  1.0000
  H   H532      1.0  0.40365  0.46371  0.70593  1.0000
  H   H533      1.0  0.65566  0.42660  0.74528  1.0000
  H   H534      1.0  0.39064  0.30434  0.54477  1.0000
  C   C317      1.0  0.64805  0.33887  0.54363  1.0000
  H   H535      1.0  0.41017  0.15390  0.52532  1.0000
  N   N23       1.0  0.61236  0.43439  0.77654  1.0000
  H   H536      1.0  0.41097  0.38233  0.75324  1.0000
  H   H537      1.0  0.61432  0.38746  0.75261  1.0000
  H   H538      1.0  0.54182  0.05186  0.72858  1.0000
  C   C318      1.0  0.59995  0.40120  0.77327  1.0000
  H   H539      1.0  0.55621  0.43629  0.83444  1.0000
  C   C319      1.0  0.65999  0.41955  0.66363  1.0000
  H   H540      1.0  0.43162  0.12114  0.54404  1.0000
  H   H541      1.0  0.61022  0.43281  0.83828  1.0000
  H   H542      1.0  0.38817  0.39215  0.53920  1.0000
  C   C320      1.0  0.51862  0.01375  0.69567  1.0000
  H   H543      1.0  0.65297  0.46451  0.63605  1.0000
  C   C321      1.0  0.64611  0.39134  0.67533  1.0000
  H   H544      1.0  0.56689  0.47691  0.84054  1.0000
  H   H545      1.0  0.51703  0.00909  0.66444  1.0000
  H   H546      1.0  0.52289  0.06396  0.68564  1.0000
  H   H547      1.0  0.61735  0.47042  0.82032  1.0000
  H   H548      1.0  0.38646  0.12412  0.58280  1.0000
  C   C322      1.0  0.64778  0.43292  0.77460  1.0000
  H   H549      1.0  0.47680  0.48056  0.79627  1.0000
  C   C323      1.0  0.38370  0.30071  0.51467  1.0000
  H   H550      1.0  0.39702  0.25193  0.52427  1.0000
  C   C324      1.0  0.60150  0.45395  0.74302  1.0000
  H   H551      1.0  0.49801  0.47841  0.84024  1.0000
  H   H552      1.0  0.37718  0.34581  0.72139  1.0000
  H   H553      1.0  0.61128  0.36425  0.57582  1.0000
  S   S93       1.0  0.33008  0.26901  0.65936  1.0000
  H   H554      1.0  0.65426  0.39254  0.58714  1.0000
  H   H555      1.0  0.40107  0.35419  0.55281  1.0000
  H   H556      1.0  0.33635  0.21788  0.59899  1.0000
  H   H557      1.0  0.62520  0.12010  0.52690  1.0000
  H   H558      1.0  0.63411  0.12817  0.57634  1.0000
  H   H559      1.0  0.65785  0.38469  0.79530  1.0000
  H   H560      1.0  0.35319  0.31860  0.58219  1.0000
  H   H561      1.0  0.64445  0.35277  0.51696  1.0000
  H   H562      1.0  0.40516  0.30655  0.49793  1.0000
  C   C325      1.0  0.38016  0.36746  0.54313  1.0000
  H   H563      1.0  0.63832  0.49038  0.73879  1.0000
  H   H564      1.0  0.53295  0.00117  0.81390  1.0000
  C   C326      1.0  0.48261  0.49373  0.82256  1.0000
  H   H565      1.0  0.62268  0.08962  0.56164  1.0000
  H   H566      1.0  0.62513  0.01196  0.49145  1.0000
  H   H567      1.0  0.65975  0.16407  0.53592  1.0000
  Fe  Fe49      1.0  0.54459  0.47049  0.98713  1.0000
  H   H568      1.0  0.32968  0.28383  0.57472  1.0000
  S   S94       1.0  0.57362  0.05792  0.48890  1.0000
  H   H569      1.0  0.38101  0.56218  0.26941  1.0000
  H   H570      1.0  0.49462  0.87996  0.42671  1.0000
  Fe  Fe50      1.0  0.61313  0.76185  0.34316  1.0000
  S   S95       1.0  0.62031  0.71951  0.30543  1.0000
  S   S96       1.0  0.57137  0.79552  0.33389  1.0000
  Fe  Fe51      1.0  0.62729  0.69104  0.35976  1.0000
  S   S97       1.0  0.61174  0.64003  0.37346  1.0000
  C   C327      1.0  0.58830  0.85119  0.44764  1.0000
  S   S98       1.0  0.61623  0.73232  0.39694  1.0000
  C   C328      1.0  0.41398  0.95491  0.46936  1.0000
  Fe  Fe52      1.0  0.47154  0.96477  0.17112  1.0000
  S   S99       1.0  0.47463  0.96329  0.23541  1.0000
  S   S100      1.0  0.43574  0.92850  0.14828  1.0000
  Fe  Fe53      1.0  0.52685  0.96294  0.22861  1.0000
  S   S101      1.0  0.56202  0.93552  0.26609  1.0000
  S   S102      1.0  0.52451  0.96165  0.16412  1.0000
  H   H571      1.0  0.38113  0.66091  0.16756  1.0000
  H   H572      1.0  0.43693  0.94681  0.38083  1.0000
  S   S103      1.0  0.46103  0.55472  0.02235  1.0000
  C   C329      1.0  0.65424  0.66165  0.46604  1.0000
  C   C330      1.0  0.43370  0.92880  0.47315  1.0000
  H   H573      1.0  0.53257  0.90917  0.45174  1.0000
  C   C331      1.0  0.58679  0.62136  0.40814  1.0000
  C   C332      1.0  0.58770  0.58837  0.41226  1.0000
  C   C333      1.0  0.56848  0.57250  0.43914  1.0000
  C   C334      1.0  0.54755  0.58934  0.46211  1.0000
  C   C335      1.0  0.54673  0.62236  0.45807  1.0000
  C   C336      1.0  0.56626  0.63827  0.43158  1.0000
  H   H574      1.0  0.60339  0.57491  0.39440  1.0000
  H   H575      1.0  0.56950  0.54717  0.44160  1.0000
  H   H576      1.0  0.53063  0.63575  0.47546  1.0000
  H   H577      1.0  0.56501  0.66356  0.42882  1.0000
  C   C337      1.0  0.56419  0.89515  0.28037  1.0000
  C   C338      1.0  0.59369  0.88194  0.28895  1.0000
  C   C339      1.0  0.59647  0.85096  0.30338  1.0000
  C   C340      1.0  0.56960  0.83296  0.31061  1.0000
  C   C341      1.0  0.54007  0.84624  0.30228  1.0000
  C   C342      1.0  0.53735  0.87692  0.28689  1.0000
  H   H578      1.0  0.61464  0.89581  0.28439  1.0000
  H   H579      1.0  0.61936  0.84134  0.30982  1.0000
  H   H580      1.0  0.51909  0.83269  0.30793  1.0000
  H   H581      1.0  0.51446  0.88670  0.28089  1.0000
  H   H582      1.0  0.37185  0.60231  0.09107  1.0000
  H   H583      1.0  0.63820  0.59943  0.47059  1.0000
  C   C343      1.0  0.38572  0.90071  0.11109  1.0000
  C   C344      1.0  0.40287  0.92873  0.11651  1.0000
  C   C345      1.0  0.39361  0.95558  0.09626  1.0000
  C   C346      1.0  0.40259  0.65202  0.22447  1.0000
  H   H584      1.0  0.38351  0.95509  0.37376  1.0000
  H   H585      1.0  0.44390  0.95336  0.30982  1.0000
  H   H586      1.0  0.40649  0.97728  0.09989  1.0000
  H   H587      1.0  0.59983  0.89283  0.39949  1.0000
  C   C347      1.0  0.37494  0.55290  0.10369  1.0000
  C   C348      1.0  0.38423  0.58067  0.08530  1.0000
  C   C349      1.0  0.41026  0.58064  0.06020  1.0000
  C   C350      1.0  0.42691  0.55279  0.05215  1.0000
  C   C351      1.0  0.41697  0.52487  0.06963  1.0000
  C   C352      1.0  0.39155  0.52506  0.09558  1.0000
  H   H588      1.0  0.41762  0.60242  0.04693  1.0000
  H   H589      1.0  0.65372  0.68654  0.45639  1.0000
  H   H590      1.0  0.36132  0.97518  0.05498  1.0000
  H   H591      1.0  0.36668  0.87077  0.00638  1.0000
  H   H592      1.0  0.36234  0.55897  0.22305  1.0000
  S   S104      1.0  0.34443  0.55194  0.13881  1.0000
  H   H593      1.0  0.53635  0.53043  0.17263  1.0000
  Fe  Fe54      1.0  0.49104  0.51940  0.98830  1.0000
  C   C353      1.0  0.36790  0.95428  0.07076  1.0000
  C   C354      1.0  0.53569  0.84859  0.42014  1.0000
  H   H594      1.0  0.41091  0.90108  0.02959  1.0000
  H   H595      1.0  0.34624  0.82983  0.19705  1.0000
  H   H596      1.0  0.40359  0.60254  0.30746  1.0000
  H   H597      1.0  0.50927  0.87633  0.37802  1.0000
  C   C355      1.0  0.37241  0.92192  0.44159  1.0000
  H   H598      1.0  0.54750  0.54402  0.10198  1.0000
  H   H599      1.0  0.42904  0.50320  0.06348  1.0000
  C   C356      1.0  0.52176  0.54157  0.09925  1.0000
  H   H600      1.0  0.42849  0.57823  0.24802  1.0000
  H   H601      1.0  0.53385  0.92062  0.38675  1.0000
  H   H602      1.0  0.40315  0.85355  0.99320  1.0000
  H   H603      1.0  0.40349  0.57636  0.18846  1.0000
  C   C357      1.0  0.55157  0.89344  0.46200  1.0000
  C   C358      1.0  0.34008  0.91473  0.31132  1.0000
  H   H604      1.0  0.35488  0.66643  0.20770  1.0000
  H   H605      1.0  0.43516  0.91351  0.30259  1.0000
  H   H606      1.0  0.42588  0.63806  0.29843  1.0000
  H   H607      1.0  0.35822  0.97130  0.34009  1.0000
  H   H608      1.0  0.34946  0.61530  0.22266  1.0000
  H   H609      1.0  0.42564  0.90620  0.37371  1.0000
  H   H610      1.0  0.37747  0.90302  0.34945  1.0000
  C   C359      1.0  0.42245  0.89924  0.46131  1.0000
  H   H611      1.0  0.38513  0.89316  0.30136  1.0000
  C   C360      1.0  0.36001  0.89942  0.08558  1.0000
  H   H612      1.0  0.57137  0.90936  0.46961  1.0000
  H   H613      1.0  0.51477  0.55696  0.07499  1.0000
  H   H614      1.0  0.46407  0.91935  0.36135  1.0000
  H   H615      1.0  0.39845  0.66230  0.25321  1.0000
  C   C361      1.0  0.35093  0.92625  0.06511  1.0000
  H   H616      1.0  0.34021  0.56945  0.26423  1.0000
  H   H617      1.0  0.38166  0.60778  0.16917  1.0000
  H   H618      1.0  0.39353  0.94792  0.21511  1.0000
  H   H619      1.0  0.51653  0.51140  0.21106  1.0000
  H   H620      1.0  0.36594  0.96674  0.27316  1.0000
  C   C362      1.0  0.50532  0.86396  0.40546  1.0000
  S   S105      1.0  0.33571  0.91985  0.41702  1.0000
  C   C363      1.0  0.39193  0.89572  0.44606  1.0000
  H   H621      1.0  0.42225  0.97785  0.47798  1.0000
  H   H622      1.0  0.54349  0.83257  0.39694  1.0000
  N   N24       1.0  0.56177  0.87067  0.43143  1.0000
  H   H623      1.0  0.51321  0.96490  0.31358  1.0000
  H   H624      1.0  0.38384  0.87287  0.43680  1.0000
  C   C364      1.0  0.42474  0.61238  0.29344  1.0000
  H   H625      1.0  0.51826  0.50252  0.06069  1.0000
  H   H626      1.0  0.36902  0.97201  0.44979  1.0000
  N   N25       1.0  0.39430  0.94205  0.31519  1.0000
  H   H627      1.0  0.58793  0.80747  0.41392  1.0000
  H   H628      1.0  0.45420  0.60691  0.17835  1.0000
  H   H629      1.0  0.48783  0.84520  0.39966  1.0000
  C   C365      1.0  0.39511  0.93413  0.24208  1.0000
  C   C366      1.0  0.42647  0.60423  0.25053  1.0000
  H   H630      1.0  0.36388  0.62090  0.26932  1.0000
  H   H631      1.0  0.39276  0.87972  0.12635  1.0000
  H   H632      1.0  0.49598  0.99008  0.45262  1.0000
  C   C367      1.0  0.38981  0.95643  0.27617  1.0000
  H   H633      1.0  0.58027  0.83675  0.47227  1.0000
  H   H634      1.0  0.44945  0.61350  0.24051  1.0000
  C   C368      1.0  0.53014  0.50718  0.18452  1.0000
  H   H635      1.0  0.39147  0.92481  0.99515  1.0000
  H   H636      1.0  0.43747  0.87886  0.46388  1.0000
  H   H637      1.0  0.44534  0.60188  0.30819  1.0000
  H   H638      1.0  0.34771  0.87755  0.08118  1.0000
  H   H639      1.0  0.57166  0.87381  0.37077  1.0000
  C   C369      1.0  0.42855  0.93410  0.32039  1.0000
  H   H640      1.0  0.41865  0.92315  0.24256  1.0000
  N   N26       1.0  0.40010  0.61667  0.22601  1.0000
  C   C370      1.0  0.50578  0.98691  0.32792  1.0000
  C   C371      1.0  0.38373  0.95149  0.45337  1.0000
  H   H641      1.0  0.38456  0.50338  0.10940  1.0000
  C   C372      1.0  0.60372  0.82760  0.41989  1.0000
  H   H642      1.0  0.38462  0.69448  0.19761  1.0000
  C   C373      1.0  0.55975  0.92076  0.38780  1.0000
  C   C374      1.0  0.40527  0.90294  0.99867  1.0000
  H   H643      1.0  0.56879  0.50255  0.12790  1.0000
  C   C375      1.0  0.36858  0.60794  0.24235  1.0000
  C   C376      1.0  0.36329  0.57256  0.25002  1.0000
  H   H644      1.0  0.37707  0.91544  0.24045  1.0000
  C   C377      1.0  0.57415  0.88828  0.39689  1.0000
  C   C378      1.0  0.37936  0.66890  0.19756  1.0000
  C   C379      1.0  0.38335  0.96534  0.34459  1.0000
  C   C380      1.0  0.43895  0.92625  0.36158  1.0000
  H   H645      1.0  0.48505  0.50884  0.09015  1.0000
  C   C381      1.0  0.43196  0.61242  0.16343  1.0000
  H   H646      1.0  0.43231  0.59907  0.13625  1.0000
  C   C382      1.0  0.51110  0.50777  0.09056  1.0000
  H   H647      1.0  0.60725  0.86677  0.45873  1.0000
  H   H648      1.0  0.56767  0.93861  0.40878  1.0000
  H   H649      1.0  0.48713  0.98074  0.34836  1.0000
  H   H650      1.0  0.63481  0.65020  0.45020  1.0000
  H   H651      1.0  0.61484  0.71309  0.48139  1.0000
  C   C383      1.0  0.40283  0.60249  0.18672  1.0000
  H   H652      1.0  0.52933  0.83290  0.44441  1.0000
  H   H653      1.0  0.62509  0.81758  0.43343  1.0000
  H   H654      1.0  0.40603  0.97675  0.27207  1.0000
  H   H655      1.0  0.50950  0.55097  0.12467  1.0000
  H   H656      1.0  0.42672  0.65953  0.21639  1.0000
  H   H657      1.0  0.43138  0.63769  0.15568  1.0000
  C   C384      1.0  0.37555  0.91219  0.31972  1.0000
  H   H658      1.0  0.54918  0.98414  0.35974  1.0000
  H   H659      1.0  0.61119  0.83844  0.39252  1.0000
  H   H660      1.0  0.56817  0.92853  0.35922  1.0000
  H   H661      1.0  0.49966  0.97251  0.40718  1.0000
  H   H662      1.0  0.42589  0.99536  0.33792  1.0000
  C   C385      1.0  0.49692  0.99543  0.42166  1.0000
  H   H663      1.0  0.33205  0.79925  0.22723  1.0000
  H   H664      1.0  0.33491  0.92360  0.28225  1.0000
  H   H665      1.0  0.33138  0.87324  0.16893  1.0000
  H   H666      1.0  0.32960  0.89087  0.31351  1.0000
  C   C386      1.0  0.40078  0.99717  0.34533  1.0000
  H   H667      1.0  0.48631  0.49753  0.15618  1.0000
  H   H668      1.0  0.52628  0.93453  0.71193  1.0000
  Fe  Fe55      1.0  0.51258  0.52224  0.52459  1.0000
  Fe  Fe56      1.0  0.61764  0.78283  0.75134  1.0000
  S   S106      1.0  0.61315  0.73181  0.73504  1.0000
  S   S107      1.0  0.58154  0.81636  0.72404  1.0000
  Fe  Fe57      1.0  0.62186  0.71902  0.79675  1.0000
  S   S108      1.0  0.59120  0.68901  0.83695  1.0000
  H   H669      1.0  0.53423  0.57783  0.74457  1.0000
  S   S109      1.0  0.62214  0.77019  0.81378  1.0000
  H   H670      1.0  0.46102  0.49759  0.83960  1.0000
  H   H671      1.0  0.36674  0.71819  0.64047  1.0000
  S   S110      1.0  0.49743  0.96648  0.59075  1.0000
  H   H672      1.0  0.39411  0.65215  0.52963  1.0000
  Fe  Fe58      1.0  0.54995  0.96929  0.58713  1.0000
  S   S111      1.0  0.58694  0.94098  0.62047  1.0000
  S   S112      1.0  0.55047  0.96955  0.52272  1.0000
  H   H673      1.0  0.36938  0.50872  0.66834  1.0000
  S   S113      1.0  0.48645  0.51881  0.92410  1.0000
  H   H674      1.0  0.50539  0.53596  0.84204  1.0000
  Fe  Fe59      1.0  0.53917  0.51930  0.92222  1.0000
  S   S114      1.0  0.56822  0.54309  0.87483  1.0000
  S   S115      1.0  0.51807  0.52353  0.58884  1.0000
  C   C387      1.0  0.58553  0.64821  0.84691  1.0000
  C   C388      1.0  0.56276  0.63934  0.87404  1.0000
  C   C389      1.0  0.55754  0.60745  0.88345  1.0000
  C   C390      1.0  0.57499  0.58384  0.86567  1.0000
  C   C391      1.0  0.59776  0.59267  0.83849  1.0000
  C   C392      1.0  0.60310  0.62461  0.82922  1.0000
  H   H675      1.0  0.54897  0.65734  0.88790  1.0000
  H   H676      1.0  0.53984  0.60117  0.90425  1.0000
  H   H677      1.0  0.61137  0.57467  0.82441  1.0000
  H   H678      1.0  0.62071  0.63093  0.80834  1.0000
  C   C393      1.0  0.58494  0.90591  0.64843  1.0000
  C   C394      1.0  0.61225  0.89503  0.66691  1.0000
  C   C395      1.0  0.61173  0.86782  0.69017  1.0000
  C   C396      1.0  0.58381  0.85098  0.69519  1.0000
  C   C397      1.0  0.55652  0.86189  0.67668  1.0000
  C   C398      1.0  0.55705  0.88907  0.65338  1.0000
  H   H679      1.0  0.63391  0.90801  0.66362  1.0000
  H   H680      1.0  0.63277  0.86014  0.70470  1.0000
  H   H681      1.0  0.53478  0.84910  0.68033  1.0000
  H   H682      1.0  0.53584  0.89694  0.63932  1.0000
  H   H683      1.0  0.59893  0.65744  0.49947  1.0000
  H   H684      1.0  0.64192  0.68074  0.97997  1.0000
  H   H685      1.0  0.63429  0.78190  0.54548  1.0000
  C   C399      1.0  0.36021  0.64093  0.57537  1.0000
  H   H686      1.0  0.49943  0.58719  0.82095  1.0000
  H   H687      1.0  0.63043  0.83802  0.54411  1.0000
  H   H688      1.0  0.63801  0.72454  0.88331  1.0000
  H   H689      1.0  0.43745  0.56810  0.77861  1.0000
  H   H690      1.0  0.61186  0.80174  0.59433  1.0000
  H   H691      1.0  0.46167  0.55850  0.85939  1.0000
  C   C400      1.0  0.36839  0.58900  0.66932  1.0000
  C   C401      1.0  0.35806  0.55800  0.67428  1.0000
  C   C402      1.0  0.37743  0.53250  0.66344  1.0000
  C   C403      1.0  0.40695  0.53747  0.64630  1.0000
  C   C404      1.0  0.41697  0.56848  0.64055  1.0000
  C   C405      1.0  0.39811  0.59392  0.65263  1.0000
  H   H692      1.0  0.63680  0.57761  0.51405  1.0000
  H   H693      1.0  0.43971  0.57286  0.62791  1.0000
  H   H694      1.0  0.40673  0.61767  0.64910  1.0000
  H   H695      1.0  0.61152  0.85593  0.58507  1.0000
  H   H696      1.0  0.57911  0.95788  0.76559  1.0000
  H   H697      1.0  0.61723  0.81679  0.64045  1.0000
  H   H698      1.0  0.57400  0.98347  0.68266  1.0000
  S   S116      1.0  0.34603  0.62236  0.68463  1.0000
  H   H699      1.0  0.33862  0.68830  0.64978  1.0000
  H   H700      1.0  0.49450  0.98668  0.75840  1.0000
  H   H701      1.0  0.36822  0.70747  0.57245  1.0000
  C   C406      1.0  0.49991  0.52488  0.81411  1.0000
  H   H702      1.0  0.42343  0.85965  0.92951  1.0000
  C   C407      1.0  0.48542  0.53470  0.74755  1.0000
  C   C408      1.0  0.35838  0.69478  0.63084  1.0000
  H   H703      1.0  0.42148  0.55099  0.85061  1.0000
  C   C409      1.0  0.63235  0.60115  0.50135  1.0000
  H   H704      1.0  0.43591  0.52883  0.79334  1.0000
  H   H705      1.0  0.36185  0.63376  0.60579  1.0000
  H   H706      1.0  0.59834  0.76172  0.63893  1.0000
  C   C410      1.0  0.53281  0.58113  0.77591  1.0000
  H   H707      1.0  0.64352  0.67094  0.89042  1.0000
  N   N27       1.0  0.37603  0.87204  0.94564  1.0000
  H   H708      1.0  0.35465  0.89753  0.87574  1.0000
  H   H709      1.0  0.63381  0.74866  0.61684  1.0000
  C   C411      1.0  0.63713  0.70080  0.96024  1.0000
  C   C412      1.0  0.51918  0.95633  0.69661  1.0000
  H   H710      1.0  0.63881  0.87769  0.55712  1.0000
  H   H711      1.0  0.33065  0.65100  0.51183  1.0000
  C   C413      1.0  0.61630  0.67019  0.51739  1.0000
  C   C414      1.0  0.62376  0.76690  0.63573  1.0000
  H   H712      1.0  0.40478  0.66763  0.57610  1.0000
  Fe  Fe60      1.0  0.47144  0.49881  0.59186  1.0000
  H   H713      1.0  0.52497  0.96117  0.77078  1.0000
  H   H714      1.0  0.39689  0.86240  0.89062  1.0000
  H   H715      1.0  0.63849  0.76365  0.94634  1.0000
  C   C415      1.0  0.63376  0.85387  0.56871  1.0000
  C   C416      1.0  0.41596  0.90676  0.90780  1.0000
  C   C417      1.0  0.40335  0.87365  0.91825  1.0000
  C   C418      1.0  0.39367  0.64774  0.56085  1.0000
  C   C419      1.0  0.65254  0.62580  0.52236  1.0000
  H   H716      1.0  0.40875  0.91339  0.87836  1.0000
  H   H717      1.0  0.40945  0.92585  0.92752  1.0000
  H   H718      1.0  0.48488  0.59763  0.77547  1.0000
  H   H719      1.0  0.55787  0.86621  0.51564  1.0000
  H   H720      1.0  0.64601  0.62386  0.55305  1.0000
  H   H721      1.0  0.33547  0.55363  0.68730  1.0000
  C   C420      1.0  0.60401  0.69595  0.94349  1.0000
  H   H722      1.0  0.54232  0.60492  0.78210  1.0000
  C   C421      1.0  0.56689  0.98443  0.71326  1.0000
  H   H723      1.0  0.40852  0.62672  0.56631  1.0000
  S   S117      1.0  0.52158  0.57067  0.49568  1.0000
  H   H724      1.0  0.47327  0.97417  0.67559  1.0000
  H   H725      1.0  0.36139  0.92133  0.94477  1.0000
  C   C422      1.0  0.44251  0.56308  0.83888  1.0000
  Fe  Fe61      1.0  0.49748  0.96965  0.52644  1.0000
  H   H726      1.0  0.35334  0.68529  0.51599  1.0000
  N   N28       1.0  0.53159  0.98532  0.71639  1.0000
  H   H727      1.0  0.47270  0.51197  0.74531  1.0000
  H   H728      1.0  0.48300  0.57943  0.71463  1.0000
  C   C423      1.0  0.35204  0.89755  0.93905  1.0000
  S   S118      1.0  0.46416  0.49946  0.52804  1.0000
  H   H729      1.0  0.63723  0.77683  0.89892  1.0000
  H   H730      1.0  0.38044  0.80765  0.98092  1.0000
  H   H731      1.0  0.44202  0.90607  0.90732  1.0000
  H   H732      1.0  0.52333  0.51840  0.80254  1.0000
  H   H733      1.0  0.54833  0.56400  0.79050  1.0000
  H   H734      1.0  0.40144  0.81074  0.93581  1.0000
  C   C424      1.0  0.37807  0.81105  0.94961  1.0000
  H   H735      1.0  0.35212  0.61934  0.56039  1.0000
  H   H736      1.0  0.60690  0.60574  0.50463  1.0000
  H   H737      1.0  0.51014  0.52913  0.73990  1.0000
  H   H738      1.0  0.60975  0.66442  0.54739  1.0000
  H   H739      1.0  0.44616  0.55819  0.71755  1.0000
  C   C425      1.0  0.48316  0.95422  0.69216  1.0000
  H   H740      1.0  0.47111  0.95228  0.72010  1.0000
  N   N29       1.0  0.48329  0.54750  0.78761  1.0000
  H   H741      1.0  0.51873  0.86344  0.49487  1.0000
  C   C426      1.0  0.49877  0.57927  0.79063  1.0000
  C   C427      1.0  0.65187  0.76328  0.91941  1.0000
  H   H742      1.0  0.43810  0.58883  0.83854  1.0000
  H   H743      1.0  0.63561  0.72153  0.97918  1.0000
  C   C428      1.0  0.65759  0.73011  0.90322  1.0000
  H   H744      1.0  0.35171  0.83831  0.90978  1.0000
  C   C429      1.0  0.44920  0.55103  0.79805  1.0000
  C   C430      1.0  0.47202  0.55584  0.71554  1.0000
  N   N30       1.0  0.64914  0.65925  0.50857  1.0000
  S   S119      1.0  0.47331  0.93222  0.48925  1.0000
  H   H745      1.0  0.33247  0.89506  0.95987  1.0000
  N   N31       1.0  0.66076  0.81032  0.60995  1.0000
  C   C431      1.0  0.33704  0.89833  0.89892  1.0000
  H   H746      1.0  0.42815  0.90474  0.98383  1.0000
  H   H747      1.0  0.53124  0.89808  0.51858  1.0000
  C   C432      1.0  0.62766  0.80034  0.61937  1.0000
  H   H748      1.0  0.47682  0.54464  0.68750  1.0000
  C   C433      1.0  0.60981  0.70551  0.51104  1.0000
  H   H749      1.0  0.58664  0.69594  0.96711  1.0000
  C   C434      1.0  0.53933  0.87884  0.49959  1.0000
  C   C435      1.0  0.34819  0.69721  0.58862  1.0000
  N   N32       1.0  0.33687  0.66718  0.57036  1.0000
  S   S120      1.0  0.43156  0.50441  0.63613  1.0000
  C   C436      1.0  0.35930  0.84106  0.94002  1.0000
  H   H750      1.0  0.37802  0.67812  0.63530  1.0000
  H   H751      1.0  0.47739  0.93254  0.67598  1.0000
  C   C437      1.0  0.58332  0.95710  0.73436  1.0000
  H   H752      1.0  0.63395  0.76493  0.66472  1.0000
  H   H753      1.0  0.64716  0.69143  0.58117  1.0000
  H   H754      1.0  0.60904  0.95920  0.72996  1.0000
  H   H755      1.0  0.57657  0.93379  0.72305  1.0000
  H   H756      1.0  0.58453  0.71011  0.51622  1.0000
  C   C438      1.0  0.33239  0.67329  0.52821  1.0000
  C   C439      1.0  0.52048  0.98448  0.75723  1.0000
  H   H757      1.0  0.36485  0.79035  0.93883  1.0000
  H   H758      1.0  0.52936  0.95436  0.66741  1.0000
  H   H759      1.0  0.59724  0.71509  0.92355  1.0000
  H   H760      1.0  0.60177  0.67293  0.92900  1.0000
  H   H761      1.0  0.62316  0.72038  0.53120  1.0000
  C   C440      1.0  0.66010  0.78284  0.54377  1.0000
  C   C441      1.0  0.66110  0.84372  0.59493  1.0000
  H   H762      1.0  0.66067  0.86084  0.61901  1.0000
  H   H763      1.0  0.33737  0.84015  0.95723  1.0000
  H   H764      1.0  0.60502  0.50139  0.76836  1.0000
  S   S121      1.0  0.54423  0.52356  0.98627  1.0000
  C   C442      1.0  0.38703  0.87334  0.98658  1.0000
  H   H765      1.0  0.60187  0.50050  0.71744  1.0000
  Fe  Fe62      1.0  0.81614  0.11580  0.38307  1.0000
  S   S122      1.0  0.77151  0.10780  0.35034  1.0000
  S   S123      1.0  0.86721  0.10405  0.36623  1.0000
  C   C443      1.0  0.70293  0.10717  0.12196  1.0000
  S   S124      1.0  0.73450  0.15306  0.41293  1.0000
  S   S125      1.0  0.77009  0.17167  0.09321  1.0000
  Fe  Fe63      1.0  0.74656  0.10193  0.40703  1.0000
  S   S126      1.0  0.71453  0.06105  0.42495  1.0000
  Fe  Fe64      1.0  0.76292  0.15963  0.35882  1.0000
  S   S127      1.0  0.75108  0.18398  0.30272  1.0000
  H   H766      1.0  0.79893  0.21261  0.03683  1.0000
  S   S128      1.0  0.80841  0.16799  0.38968  1.0000
  Fe  Fe65      1.0  0.75244  0.35367  0.21746  1.0000
  S   S129      1.0  0.80281  0.35162  0.19908  1.0000
  S   S130      1.0  0.74100  0.33144  0.27483  1.0000
  Fe  Fe66      1.0  0.73334  0.40070  0.15313  1.0000
  S   S131      1.0  0.78321  0.40188  0.13188  1.0000
  H   H767      1.0  0.73704  0.35308  0.05288  1.0000
  Fe  Fe67      1.0  0.78181  0.34928  0.14010  1.0000
  S   S132      1.0  0.79921  0.31817  0.09229  1.0000
  Fe  Fe68      1.0  0.79951  0.40414  0.19319  1.0000
  S   S133      1.0  0.83058  0.44255  0.21991  1.0000
  S   S134      1.0  0.73131  0.34776  0.15863  1.0000
  S   S135      1.0  0.74967  0.40641  0.21398  1.0000
  H   H768      1.0  0.86061  0.09088  0.45330  1.0000
  C   C444      1.0  0.66444  0.14737  0.13703  1.0000
  C   C445      1.0  0.84099  0.35509  0.37453  1.0000
  H   H769      1.0  0.73697  0.21961  0.01756  1.0000
  H   H770      1.0  0.86609  0.34796  0.37602  1.0000
  S   S136      1.0  0.96351  0.44545  0.30614  1.0000
  C   C446      1.0  0.86768  0.44273  0.24363  1.0000
  C   C447      1.0  0.88855  0.41742  0.24177  1.0000
  C   C448      1.0  0.91767  0.41879  0.26098  1.0000
  C   C449      1.0  0.92637  0.44533  0.28253  1.0000
  S   S137      1.0  0.98514  0.47673  0.41126  1.0000
  C   C450      1.0  0.87652  0.46942  0.26482  1.0000
  H   H771      1.0  0.88242  0.39691  0.22516  1.0000
  H   H772      1.0  0.93364  0.39910  0.25910  1.0000
  C   C451      1.0  0.90894  0.16727  0.42436  1.0000
  H   H773      1.0  0.84783  0.37761  0.28074  1.0000
  C   C452      1.0  0.77757  0.21249  0.09249  1.0000
  C   C453      1.0  0.79230  0.22667  0.06121  1.0000
  C   C454      1.0  0.79931  0.25896  0.06188  1.0000
  C   C455      1.0  0.79104  0.27748  0.09340  1.0000
  C   C456      1.0  0.77608  0.26335  0.12463  1.0000
  C   C457      1.0  0.76973  0.23086  0.12434  1.0000
  N   N33       1.0  0.72373  0.28630  0.99580  1.0000
  H   H774      1.0  0.81127  0.26965  0.03788  1.0000
  H   H775      1.0  0.76969  0.27741  0.14912  1.0000
  H   H776      1.0  0.75856  0.22002  0.14880  1.0000
  C   C458      1.0  0.75093  0.22520  0.29581  1.0000
  C   C459      1.0  0.74909  0.24604  0.32653  1.0000
  C   C460      1.0  0.74647  0.27860  0.31972  1.0000
  C   C461      1.0  0.74632  0.29061  0.28226  1.0000
  C   C462      1.0  0.74937  0.26984  0.25160  1.0000
  C   C463      1.0  0.75130  0.23725  0.25838  1.0000
  H   H777      1.0  0.74856  0.23701  0.35544  1.0000
  H   H778      1.0  0.74400  0.29451  0.34354  1.0000
  H   H779      1.0  0.74920  0.27881  0.22265  1.0000
  H   H780      1.0  0.83865  0.42209  0.36836  1.0000
  C   C464      1.0  0.88573  0.07554  0.33609  1.0000
  C   C465      1.0  0.86950  0.05006  0.32039  1.0000
  C   C466      1.0  0.88543  0.02778  0.29757  1.0000
  C   C467      1.0  0.91766  0.03081  0.28930  1.0000
  C   C468      1.0  0.93382  0.05657  0.30451  1.0000
  C   C469      1.0  0.91801  0.07855  0.32792  1.0000
  H   H781      1.0  0.84477  0.04716  0.32634  1.0000
  H   H782      1.0  0.92976  0.18734  0.47515  1.0000
  H   H783      1.0  0.95857  0.05936  0.29866  1.0000
  H   H784      1.0  0.93093  0.09813  0.33973  1.0000
  H   H785      1.0  0.79618  0.38730  0.27412  1.0000
  Fe  Fe69      1.0  0.78104  0.15740  0.44336  1.0000
  C   C470      1.0  0.84891  0.36132  0.30561  1.0000
  H   H786      1.0  0.87932  0.12495  0.27823  1.0000
  H   H787      1.0  0.84511  0.38981  0.42143  1.0000
  H   H788      1.0  0.77161  0.23687  0.47844  1.0000
  N   N34       1.0  0.83537  0.37648  0.34081  1.0000
  H   H789      1.0  0.94333  0.47339  0.20075  1.0000
  H   H790      1.0  0.93463  0.14609  0.47020  1.0000
  Fe  Fe70      1.0  0.71300  0.09728  0.01153  1.0000
  H   H791      1.0  0.68944  0.10463  0.09491  1.0000
  H   H792      1.0  0.76413  0.40204  0.30106  1.0000
  S   S138      1.0  0.70981  0.14951  0.01855  1.0000
  H   H793      1.0  0.83689  0.35053  0.43624  1.0000
  H   H794      1.0  0.66856  0.16205  0.21219  1.0000
  C   C471      1.0  0.88616  0.40713  0.35710  1.0000
  C   C472      1.0  0.66625  0.43622  0.09572  1.0000
  H   H795      1.0  0.95180  0.00318  0.04381  1.0000
  H   H796      1.0  0.73387  0.06910  0.10501  1.0000
  H   H797      1.0  0.85463  0.14577  0.45324  1.0000
  S   S139      1.0  0.79218  0.10581  0.43920  1.0000
  H   H798      1.0  0.87428  0.35622  0.30955  1.0000
  H   H799      1.0  0.86019  0.17311  0.29488  1.0000
  C   C473      1.0  0.85102  0.40797  0.34630  1.0000
  C   C474      1.0  0.67542  0.06102  0.44308  1.0000
  H   H800      1.0  0.80843  0.33255  0.28689  1.0000
  S   S140      1.0  0.76283  0.09487  0.03279  1.0000
  H   H801      1.0  0.82046  0.18448  0.30519  1.0000
  H   H802      1.0  0.75262  0.22131  0.23443  1.0000
  H   H803      1.0  0.89496  0.43167  0.35928  1.0000
  H   H804      1.0  0.70521  0.16055  0.23486  1.0000
  H   H805      1.0  0.76348  0.30868  0.02316  1.0000
  H   H806      1.0  0.79112  0.39507  0.36120  1.0000
  H   H807      1.0  0.91132  0.11901  0.24638  1.0000
  C   C475      1.0  0.73997  0.31504  0.01166  1.0000
  C   C476      1.0  0.71319  0.22957  0.02187  1.0000
  C   C477      1.0  0.90555  0.47069  0.28431  1.0000
  H   H808      1.0  0.84950  0.42228  0.31971  1.0000
  H   H809      1.0  0.87719  0.21869  0.45289  1.0000
  C   C478      1.0  0.83167  0.36840  0.41391  1.0000
  H   H810      1.0  0.79979  0.42402  0.29976  1.0000
  H   H811      1.0  0.91183  0.49132  0.30061  1.0000
  H   H812      1.0  0.83710  0.31115  0.31487  1.0000
  H   H813      1.0  0.92416  0.18524  0.41063  1.0000
  C   C479      1.0  0.70295  0.12879  0.18634  1.0000
  H   H814      1.0  0.82897  0.14445  0.30029  1.0000
  S   S141      1.0  0.69993  0.43746  0.12632  1.0000
  C   C480      1.0  0.75171  0.49340  0.16871  1.0000
  N   N35       1.0  0.83546  0.14466  0.22006  1.0000
  C   C481      1.0  0.82405  0.15296  0.18037  1.0000
  C   C482      1.0  0.81915  0.11470  0.23203  1.0000
  C   C483      1.0  0.87053  0.13939  0.21806  1.0000
  C   C484      1.0  0.82777  0.17184  0.24594  1.0000
  C   C485      1.0  0.84057  0.18108  0.16076  1.0000
  C   C486      1.0  0.78307  0.11608  0.23377  1.0000
  C   C487      1.0  0.88536  0.11793  0.24882  1.0000
  C   C488      1.0  0.83520  0.16783  0.28873  1.0000
  H   H815      1.0  0.82639  0.13240  0.16088  1.0000
  H   H816      1.0  0.79865  0.15906  0.18048  1.0000
  H   H817      1.0  0.82698  0.10642  0.26056  1.0000
  H   H818      1.0  0.82553  0.09527  0.21220  1.0000
  H   H819      1.0  0.87711  0.12840  0.19030  1.0000
  H   H820      1.0  0.88335  0.16220  0.21904  1.0000
  H   H821      1.0  0.84100  0.19316  0.23702  1.0000
  H   H822      1.0  0.80287  0.17940  0.24302  1.0000
  H   H823      1.0  0.86632  0.17809  0.15870  1.0000
  H   H824      1.0  0.83181  0.18311  0.13097  1.0000
  H   H825      1.0  0.83490  0.20366  0.17490  1.0000
  H   H826      1.0  0.77263  0.11850  0.20494  1.0000
  H   H827      1.0  0.77414  0.09365  0.24595  1.0000
  H   H828      1.0  0.77464  0.13510  0.25265  1.0000
  H   H829      1.0  0.87872  0.09293  0.24450  1.0000
  H   H830      1.0  0.69890  0.18521  0.14829  1.0000
  H   H831      1.0  0.97304  0.44745  0.21720  1.0000
  Fe  Fe71      1.0  0.76023  0.14756  0.03669  1.0000
  C   C489      1.0  0.86611  0.13698  0.47949  1.0000
  H   H832      1.0  0.90029  0.10407  0.45342  1.0000
  S   S142      1.0  0.68025  0.05922  0.03648  1.0000
  H   H833      1.0  0.70849  0.10994  0.48202  1.0000
  H   H834      1.0  0.88455  0.17382  0.41741  1.0000
  C   C490      1.0  0.71474  0.26531  0.02908  1.0000
  C   C491      1.0  0.79010  0.39985  0.30072  1.0000
  C   C492      1.0  0.71881  0.07512  0.12979  1.0000
  C   C493      1.0  0.83370  0.33000  0.29336  1.0000
  H   H835      1.0  0.84146  0.19536  0.45663  1.0000
  H   H836      1.0  0.89049  0.39590  0.38518  1.0000
  H   H837      1.0  0.72323  0.14334  0.17671  1.0000
  S   S143      1.0  0.98336  0.00365  0.16518  1.0000
  H   H838      1.0  0.73196  0.26764  0.05286  1.0000
  H   H839      1.0  0.80624  0.37357  0.41570  1.0000
  H   H840      1.0  0.82754  0.33283  0.37134  1.0000
  H   H841      1.0  0.97692  0.46702  0.17120  1.0000
  C   C494      1.0  0.91705  0.16536  0.46749  1.0000
  H   H842      1.0  0.84507  0.32187  0.26662  1.0000
  H   H843      1.0  0.78756  0.35883  0.33702  1.0000
  H   H844      1.0  0.69845  0.22296  0.99724  1.0000
  C   C495      1.0  0.80053  0.38158  0.33661  1.0000
  H   H845      1.0  0.75848  0.46469  0.09697  1.0000
  H   H846      1.0  0.77394  0.48553  0.22498  1.0000
  H   H847      1.0  0.70019  0.16971  0.10016  1.0000
  H   H848      1.0  0.67831  0.12831  0.24151  1.0000
  H   H849      1.0  0.67114  0.07676  0.18450  1.0000
  H   H850      1.0  0.72223  0.12388  0.11520  1.0000
  H   H851      1.0  0.66907  0.19482  0.11443  1.0000
  H   H852      1.0  0.91475  0.14482  0.40987  1.0000
  H   H853      1.0  0.90064  0.39547  0.33507  1.0000
  H   H854      1.0  0.73298  0.47747  0.22305  1.0000
  C   C496      1.0  0.68742  0.14559  0.22039  1.0000
  H   H855      1.0  0.71428  0.10757  0.19878  1.0000
  H   H856      1.0  0.74437  0.33279  0.98891  1.0000
  H   H857      1.0  0.71879  0.31816  0.06955  1.0000
  H   H858      1.0  0.70151  0.05574  0.13231  1.0000
  S   S144      1.0  0.93664  0.00085  0.26178  1.0000
  H   H859      1.0  0.98910  0.09056  0.99992  1.0000
  C   C497      1.0  0.85920  0.20900  0.47253  1.0000
  H   H860      1.0  0.76994  0.48633  0.05576  1.0000
  H   H861      1.0  0.90506  0.00100  0.01602  1.0000
  C   C498      1.0  0.87841  0.10369  0.47043  1.0000
  H   H862      1.0  0.95007  0.05242  0.01513  1.0000
  C   C499      1.0  0.72242  0.33281  0.04368  1.0000
  C   C500      1.0  0.68471  0.17562  0.12447  1.0000
  H   H863      1.0  0.73420  0.07564  0.15526  1.0000
  H   H864      1.0  0.69178  0.27260  0.04137  1.0000
  Fe  Fe72      1.0  0.98888  0.47951  0.34702  1.0000
  N   N36       1.0  0.68211  0.11969  0.15336  1.0000
  H   H865      1.0  0.70333  0.21783  0.04757  1.0000
  H   H866      1.0  0.69971  0.34258  0.03383  1.0000
  H   H867      1.0  0.87261  0.00792  0.28624  1.0000
  H   H868      1.0  0.79923  0.47491  0.08941  1.0000
  C   C501      1.0  0.77471  0.48322  0.08674  1.0000
  H   H869      1.0  0.69024  0.34492  0.48399  1.0000
  H   H870      1.0  0.75626  0.46853  0.16069  1.0000
  C   C502      1.0  0.66413  0.03407  0.46210  1.0000
  H   H871      1.0  0.80970  0.47776  0.15289  1.0000
  H   H872      1.0  0.84658  0.22944  0.48488  1.0000
  H   H873      1.0  0.66652  0.48634  0.08640  1.0000
  H   H874      1.0  0.86072  0.48926  0.26638  1.0000
  C   C503      1.0  0.75144  0.49390  0.21279  1.0000
  H   H875      1.0  0.67937  0.01390  0.46537  1.0000
  H   H876      1.0  0.67797  0.30848  0.99390  1.0000
  C   C504      1.0  0.96914  0.46967  0.20121  1.0000
  H   H877      1.0  0.66349  0.10766  0.42411  1.0000
  C   C505      1.0  0.99529  0.06584  0.99308  1.0000
  H   H878      1.0  0.97147  0.99927  0.35070  1.0000
  C   C506      1.0  0.96484  0.04640  0.98995  1.0000
  Fe  Fe73      1.0  0.77867  0.10245  0.97200  1.0000
  S   S145      1.0  0.72880  0.10173  0.95010  1.0000
  S   S146      1.0  0.81098  0.06795  0.94017  1.0000
  N   N37       1.0  0.96805  0.01115  0.98603  1.0000
  C   C507      1.0  0.90085  0.46551  0.87358  1.0000
  H   H879      1.0  0.74947  0.08573  0.54898  1.0000
  H   H880      1.0  0.70900  0.38005  0.50236  1.0000
  C   C508      1.0  0.90304  0.14549  0.53126  1.0000
  Fe  Fe74      1.0  0.72996  0.15414  0.95919  1.0000
  S   S147      1.0  0.70774  0.18963  0.91834  1.0000
  H   H881      1.0  0.91670  0.45320  0.85337  1.0000
  H   H882      1.0  0.71805  0.06320  0.52706  1.0000
  Fe  Fe75      1.0  0.76471  0.30149  0.74258  1.0000
  S   S148      1.0  0.80444  0.31599  0.70330  1.0000
  S   S149      1.0  0.77976  0.26519  0.78749  1.0000
  Fe  Fe76      1.0  0.71897  0.34956  0.70622  1.0000
  S   S150      1.0  0.75632  0.36761  0.66683  1.0000
  H   H883      1.0  0.88355  0.13893  0.55102  1.0000
  Fe  Fe77      1.0  0.76796  0.31652  0.65645  1.0000
  S   S151      1.0  0.77024  0.30397  0.59268  1.0000
  Fe  Fe78      1.0  0.78971  0.36536  0.71720  1.0000
  S   S152      1.0  0.82185  0.40710  0.73261  1.0000
  S   S153      1.0  0.72951  0.29838  0.69450  1.0000
  S   S154      1.0  0.75108  0.35103  0.75783  1.0000
  Fe  Fe79      1.0  0.97559  0.02401  0.83434  1.0000
  H   H884      1.0  0.84745  0.44460  0.83981  1.0000
  S   S155      1.0  0.95226  0.05580  0.87911  1.0000
  H   H885      1.0  0.68427  0.42419  0.67069  1.0000
  C   C509      1.0  0.67796  0.33686  0.60476  1.0000
  S   S156      1.0  0.96185  0.41736  0.79995  1.0000
  C   C510      1.0  0.86095  0.40921  0.75105  1.0000
  C   C511      1.0  0.87877  0.38240  0.75940  1.0000
  C   C512      1.0  0.90952  0.38537  0.77419  1.0000
  C   C513      1.0  0.92287  0.41510  0.78133  1.0000
  C   C514      1.0  0.90513  0.44191  0.77281  1.0000
  C   C515      1.0  0.87446  0.43894  0.75782  1.0000
  H   H886      1.0  0.86887  0.35935  0.75436  1.0000
  H   H887      1.0  0.92298  0.36441  0.78039  1.0000
  C   C516      1.0  0.71889  0.11380  0.51076  1.0000
  H   H888      1.0  0.86110  0.45987  0.75120  1.0000
  C   C517      1.0  0.78173  0.20976  0.52893  1.0000
  C   C518      1.0  0.67920  0.15442  0.51851  1.0000
  C   C519      1.0  0.77037  0.26583  0.52924  1.0000
  C   C520      1.0  0.77388  0.26708  0.56923  1.0000
  C   C521      1.0  0.78083  0.23933  0.58902  1.0000
  C   C522      1.0  0.78491  0.21092  0.56892  1.0000
  C   C523      1.0  0.89438  0.41945  0.91472  1.0000
  C   C524      1.0  0.73492  0.08275  0.52301  1.0000
  H   H889      1.0  0.78371  0.23991  0.61972  1.0000
  H   H890      1.0  0.79089  0.18976  0.58452  1.0000
  C   C525      1.0  0.72798  0.21199  0.88330  1.0000
  C   C526      1.0  0.76067  0.21437  0.88325  1.0000
  C   C527      1.0  0.77595  0.23190  0.85452  1.0000
  C   C528      1.0  0.75885  0.24703  0.82543  1.0000
  C   C529      1.0  0.72610  0.24553  0.82621  1.0000
  C   C530      1.0  0.71078  0.22816  0.85512  1.0000
  H   H891      1.0  0.77415  0.20265  0.90524  1.0000
  H   H892      1.0  0.80127  0.23350  0.85448  1.0000
  H   H893      1.0  0.71262  0.25707  0.80405  1.0000
  H   H894      1.0  0.68544  0.22672  0.85516  1.0000
  C   C531      1.0  0.85035  0.06557  0.92321  1.0000
  C   C532      1.0  0.87314  0.08809  0.93206  1.0000
  C   C533      1.0  0.90399  0.08496  0.91781  1.0000
  C   C534      1.0  0.91246  0.05957  0.89421  1.0000
  C   C535      1.0  0.88957  0.03726  0.88503  1.0000
  C   C536      1.0  0.85883  0.04020  0.89961  1.0000
  H   H895      1.0  0.86709  0.10773  0.95015  1.0000
  H   H896      1.0  0.92148  0.10235  0.92521  1.0000
  H   H897      1.0  0.89563  0.01750  0.86713  1.0000
  H   H898      1.0  0.84143  0.02263  0.89254  1.0000
  H   H899      1.0  0.70637  0.15932  0.62874  1.0000
  H   H900      1.0  0.81169  0.41359  0.87211  1.0000
  C   C537      1.0  0.70324  0.40312  0.58341  1.0000
  H   H901      1.0  0.87663  0.41601  0.83744  1.0000
  C   C538      1.0  0.69509  0.29729  0.97426  1.0000
  H   H902      1.0  0.84072  0.38985  0.89601  1.0000
  C   C539      1.0  0.70563  0.34091  0.54401  1.0000
  C   C540      1.0  0.85334  0.45991  0.91428  1.0000
  S   S157      1.0  0.66659  0.36317  0.70387  1.0000
  C   C541      1.0  0.86695  0.47977  0.94717  1.0000
  H   H903      1.0  0.66811  0.39671  0.53999  1.0000
  H   H904      1.0  0.77159  0.17000  0.82750  1.0000
  H   H905      1.0  0.83384  0.38408  0.84672  1.0000
  H   H906      1.0  0.95873  0.34727  0.69128  1.0000
  C   C542      1.0  0.91355  0.39443  0.89311  1.0000
  N   N38       1.0  0.80577  0.13247  0.82640  1.0000
  H   H907      1.0  0.81810  0.11326  0.88188  1.0000
  H   H908      1.0  0.75105  0.07523  0.49989  1.0000
  H   H909      1.0  0.82716  0.18463  0.87566  1.0000
  H   H910      1.0  0.77230  0.30985  0.94415  1.0000
  H   H911      1.0  0.86195  0.09961  0.85067  1.0000
  H   H912      1.0  0.91404  0.18541  0.56926  1.0000
  H   H913      1.0  0.93052  0.40512  0.87300  1.0000
  H   H914      1.0  0.72378  0.40074  0.56426  1.0000
  S   S158      1.0  0.78855  0.17348  0.50520  1.0000
  H   H915      1.0  0.97202  0.37671  0.72434  1.0000
  C   C543      1.0  0.77877  0.07942  0.84580  1.0000
  C   C544      1.0  0.96297  0.37276  0.69518  1.0000
  C   C545      1.0  0.75891  0.28871  0.93553  1.0000
  H   H916      1.0  0.83825  0.47547  0.89641  1.0000
  H   H917      1.0  0.78751  0.14124  0.88308  1.0000
  H   H918      1.0  0.91659  0.47474  0.89625  1.0000
  H   H919      1.0  0.78506  0.09751  0.78869  1.0000
  H   H920      1.0  0.85823  0.15574  0.87063  1.0000
  C   C546      1.0  0.71116  0.13594  0.57413  1.0000
  H   H921      1.0  0.89824  0.37775  0.87748  1.0000
  C   C547      1.0  0.83619  0.12574  0.80604  1.0000
  H   H922      1.0  0.69930  0.34517  0.61994  1.0000
  C   C548      1.0  0.83513  0.40245  0.86920  1.0000
  C   C549      1.0  0.85497  0.09719  0.82039  1.0000
  H   H923      1.0  0.70960  0.39535  0.61259  1.0000
  C   C550      1.0  0.78146  0.10742  0.81775  1.0000
  S   S159      1.0  0.98287  0.45231  0.90041  1.0000
  H   H924      1.0  0.93739  0.15136  0.57675  1.0000
  C   C551      1.0  0.81029  0.13567  0.86898  1.0000
  H   H925      1.0  0.73667  0.24775  0.95811  1.0000
  C   C552      1.0  0.86006  0.42709  0.85776  1.0000
  H   H926      1.0  0.85205  0.14652  0.80740  1.0000
  H   H927      1.0  0.77554  0.27385  0.91923  1.0000
  H   H928      1.0  0.93966  0.38441  0.69370  1.0000
  Fe  Fe80      1.0  0.98735  0.45466  0.83621  1.0000
  H   H929      1.0  0.91517  0.46495  0.77731  1.0000
  H   H930      1.0  0.72130  0.11501  0.58866  1.0000
  H   H931      1.0  0.77433  0.18809  0.76253  1.0000
  H   H932      1.0  0.80138  0.06774  0.85186  1.0000
  H   H933      1.0  0.87819  0.40683  0.93441  1.0000
  H   H934      1.0  0.70704  0.31484  0.54170  1.0000
  N   N39       1.0  0.69455  0.12662  0.53787  1.0000
  H   H935      1.0  0.92734  0.38038  0.91400  1.0000
  H   H936      1.0  0.73156  0.15146  0.56760  1.0000
  N   N40       1.0  0.87709  0.44297  0.89010  1.0000
  H   H937      1.0  0.76284  0.06141  0.83357  1.0000
  H   H938      1.0  0.69793  0.42864  0.58526  1.0000
  H   H939      1.0  0.76508  0.28716  0.51362  1.0000
  S   S160      1.0  0.96916  0.02768  0.77039  1.0000
  C   C553      1.0  0.69108  0.15268  0.60433  1.0000
  C   C554      1.0  0.74674  0.26968  0.97007  1.0000
  C   C555      1.0  0.98424  0.38643  0.66343  1.0000
  H   H940      1.0  0.83206  0.12162  0.77510  1.0000
  H   H941      1.0  0.72702  0.34764  0.56027  1.0000
  C   C556      1.0  0.79332  0.16346  0.81175  1.0000
  H   H942      1.0  0.95240  0.05642  0.96469  1.0000
  H   H943      1.0  0.67836  0.08549  0.56948  1.0000
  H   H944      1.0  0.91124  0.43161  0.93401  1.0000
  H   H945      1.0  0.94541  0.17561  0.53624  1.0000
  H   H946      1.0  0.83660  0.15877  0.91388  1.0000
  H   H947      1.0  0.76816  0.08695  0.87327  1.0000
  H   H948      1.0  0.75737  0.11768  0.81729  1.0000
  C   C557      1.0  0.93844  0.99885  0.96752  1.0000
  H   H949      1.0  0.87709  0.09538  0.80377  1.0000
  C   C558      1.0  0.77408  0.23734  0.50918  1.0000
  H   H950      1.0  0.76819  0.14661  0.76013  1.0000
  C   C559      1.0  0.92622  0.16603  0.55419  1.0000
  C   C560      1.0  0.83451  0.16028  0.88229  1.0000
  H   H951      1.0  0.80662  0.16345  0.75078  1.0000
  H   H952      1.0  0.68055  0.17475  0.59338  1.0000
  C   C561      1.0  0.78528  0.16489  0.76877  1.0000
  H   H953      1.0  0.91588  0.12328  0.52524  1.0000
  H   H954      1.0  0.84213  0.07491  0.81602  1.0000
  H   H955      1.0  0.66880  0.08486  0.52039  1.0000
  H   H956      1.0  0.81041  0.18279  0.81650  1.0000
  S   S161      1.0  0.78045  0.15545  0.97775  1.0000
  N   N41       1.0  0.67644  0.35057  0.56507  1.0000
  C   C562      1.0  0.67903  0.30061  0.60757  1.0000
  H   H957      1.0  0.88052  0.46529  0.96773  1.0000
  H   H958      1.0  0.73974  0.29514  0.91555  1.0000
  H   H959      1.0  0.67268  0.13696  0.61587  1.0000
  H   H960      1.0  0.66615  0.28858  0.58449  1.0000
  H   H961      1.0  0.87364  0.48755  0.82658  1.0000
  C   C563      1.0  0.67664  0.27207  0.95228  1.0000
  H   H962      1.0  0.83681  0.44286  0.92765  1.0000
  N   N42       1.0  0.89020  0.15970  0.49482  1.0000
  H   H963      1.0  0.98186  0.41249  0.66465  1.0000
  C   C564      1.0  0.67400  0.38588  0.56808  1.0000
  H   H964      1.0  0.69123  0.25970  0.93092  1.0000
  C   C565      1.0  0.67071  0.10085  0.54539  1.0000
  H   H965      1.0  0.70157  0.31587  0.95324  1.0000
  H   H966      1.0  0.68650  0.20157  0.49601  1.0000
  H   H967      1.0  0.89105  0.20678  0.51865  1.0000
  H   H968      1.0  0.88206  0.08973  0.49689  1.0000
  C   C566      1.0  0.70071  0.18273  0.50961  1.0000
  H   H969      1.0  0.68972  0.41145  0.79848  1.0000
  H   H970      1.0  0.85562  0.18576  0.52709  1.0000
  H   H971      1.0  0.66765  0.29302  0.63463  1.0000
  H   H972      1.0  0.93729  0.00615  0.93694  1.0000
  H   H973      1.0  0.97288  0.37959  0.63600  1.0000
  H   H974      1.0  0.76759  0.26195  0.98684  1.0000
  C   C567      1.0  0.70890  0.35401  0.50309  1.0000
  H   H975      1.0  0.73821  0.13084  0.50623  1.0000
  C   C568      1.0  0.99493  0.00336  0.95966  1.0000
  H   H976      1.0  0.70363  0.29208  0.60751  1.0000
  C   C569      1.0  0.88762  0.49428  0.85192  1.0000
  H   H977      1.0  0.71123  0.19295  0.53573  1.0000
  H   H978      1.0  0.66820  0.14691  0.49109  1.0000
  H   H979      1.0  0.84643  0.13420  0.50019  1.0000
  H   H980      1.0  0.84735  0.49064  0.96328  1.0000
  C   C570      1.0  0.87424  0.19013  0.50532  1.0000
  H   H981      1.0  0.99120  0.01473  0.93124  1.0000
  H   H982      1.0  0.66543  0.25496  0.97182  1.0000
  C   C571      1.0  0.66389  0.40944  0.80208  1.0000
  C   C572      1.0  0.90715  0.00905  0.98600  1.0000
  H   H983      1.0  0.98659  0.32296  0.64240  1.0000
  H   H984      1.0  0.73169  0.34607  0.49114  1.0000
  H   H985      1.0  0.90342  0.03483  0.98430  1.0000
  H   H986      1.0  0.88746  0.99818  0.96995  1.0000
  H   H987      1.0  0.71945  0.17684  0.48905  1.0000
  S   S162      1.0  0.68864  0.74682  0.45517  1.0000
  S   S163      1.0  0.69897  0.74118  0.25241  1.0000
  Fe  Fe81      1.0  0.83289  0.70752  0.09206  1.0000
  S   S164      1.0  0.82254  0.75307  0.06179  1.0000
  S   S165      1.0  0.80786  0.68664  0.14477  1.0000
  Fe  Fe82      1.0  0.89042  0.69357  0.03949  1.0000
  S   S166      1.0  0.67969  0.69982  0.35932  1.0000
  H   H988      1.0  0.81269  0.50590  0.18975  1.0000
  Fe  Fe83      1.0  0.87509  0.76237  0.06533  1.0000
  S   S167      1.0  0.89001  0.80863  0.09581  1.0000
  H   H989      1.0  0.98826  0.91883  0.39001  1.0000
  C   C573      1.0  0.76897  0.51479  0.10718  1.0000
  S   S168      1.0  0.88476  0.71713  0.09699  1.0000
  S   S169      1.0  0.83955  0.68051  0.03731  1.0000
  H   H990      1.0  0.70579  0.66221  0.46051  1.0000
  C   C574      1.0  0.83473  0.52010  0.13767  1.0000
  Fe  Fe84      1.0  0.66817  0.74184  0.39534  1.0000
  S   S170      1.0  0.88459  0.73964  0.00788  1.0000
  S   S171      1.0  0.95297  0.55796  0.44566  1.0000
  H   H991      1.0  0.74562  0.51732  0.22450  1.0000
  H   H992      1.0  0.76594  0.78670  0.27006  1.0000
  H   H993      1.0  0.73937  0.58677  0.17340  1.0000
  C   C575      1.0  0.79173  0.76977  0.48138  1.0000
  H   H994      1.0  0.73093  0.56534  0.13103  1.0000
  C   C576      1.0  0.97433  0.96335  0.41449  1.0000
  H   H995      1.0  0.86596  0.72744  0.17721  1.0000
  H   H996      1.0  0.68873  0.62304  0.45845  1.0000
  H   H997      1.0  0.83790  0.71828  0.46800  1.0000
  C   C577      1.0  0.99494  0.94402  0.38671  1.0000
  H   H998      1.0  0.96775  0.96968  0.02304  1.0000
  C   C578      1.0  0.91954  0.83874  0.09923  1.0000
  C   C579      1.0  0.94417  0.84178  0.07295  1.0000
  C   C580      1.0  0.96625  0.86656  0.07645  1.0000
  C   C581      1.0  0.96451  0.88850  0.10652  1.0000
  C   C582      1.0  0.94011  0.88523  0.13303  1.0000
  C   C583      1.0  0.91778  0.86077  0.12920  1.0000
  H   H999      1.0  0.94600  0.82524  0.04969  1.0000
  H   H1000     1.0  0.78746  0.56438  0.14750  1.0000
  H   H1001     1.0  0.80113  0.65723  0.45577  1.0000
  H   H1002     1.0  0.89889  0.85901  0.14964  1.0000
  C   C584      1.0  0.68539  0.64810  0.45092  1.0000
  C   C585      1.0  0.77987  0.77371  0.44421  1.0000
  C   C586      1.0  0.74865  0.76570  0.43546  1.0000
  C   C587      1.0  0.72882  0.75428  0.46407  1.0000
  S   S172      1.0  0.93126  0.65950  0.02646  1.0000
  H   H1003     1.0  0.88270  0.74309  0.46859  1.0000
  H   H1004     1.0  0.79478  0.78348  0.42218  1.0000
  H   H1005     1.0  0.73967  0.76932  0.40686  1.0000
  Fe  Fe85      1.0  0.98916  0.53002  0.41027  1.0000
  H   H1006     1.0  0.84176  0.73238  0.21782  1.0000
  C   C588      1.0  0.72831  0.72432  0.22239  1.0000
  C   C589      1.0  0.74698  0.69893  0.23387  1.0000
  C   C590      1.0  0.77090  0.68753  0.20960  1.0000
  C   C591      1.0  0.77658  0.70130  0.17359  1.0000
  C   C592      1.0  0.75757  0.72635  0.16186  1.0000
  C   C593      1.0  0.73375  0.73781  0.18616  1.0000
  H   H1007     1.0  0.74316  0.68826  0.26156  1.0000
  H   H1008     1.0  0.78529  0.66804  0.21895  1.0000
  H   H1009     1.0  0.76120  0.73688  0.13405  1.0000
  H   H1010     1.0  0.71935  0.75731  0.17682  1.0000
  H   H1011     1.0  0.81872  0.77577  0.25126  1.0000
  H   H1012     1.0  0.96402  0.94720  0.43612  1.0000
  H   H1013     1.0  0.78803  0.69472  0.47160  1.0000
  C   C594      1.0  0.77187  0.54825  0.16385  1.0000
  H   H1014     1.0  0.85086  0.77728  0.14925  1.0000
  H   H1015     1.0  0.89869  0.68621  0.47905  1.0000
  H   H1016     1.0  0.79249  0.75671  0.21971  1.0000
  C   C595      1.0  0.80222  0.78018  0.22717  1.0000
  H   H1017     1.0  0.83366  0.51661  0.10635  1.0000
  H   H1018     1.0  0.81773  0.75326  0.15685  1.0000
  C   C596      1.0  0.83358  0.84756  0.22534  1.0000
  H   H1019     1.0  0.79170  0.83682  0.11384  1.0000
  Fe  Fe86      1.0  0.98286  0.99328  0.22839  1.0000
  C   C597      1.0  0.77409  0.79856  0.24351  1.0000
  H   H1020     1.0  0.82215  0.80843  0.11156  1.0000
  C   C598      1.0  0.79630  0.80950  0.16615  1.0000
  C   C599      1.0  0.80471  0.68287  0.45197  1.0000
  H   H1021     1.0  0.99228  0.56118  0.24129  1.0000
  H   H1022     1.0  0.88646  0.60725  0.40786  1.0000
  H   H1023     1.0  0.82762  0.84430  0.13842  1.0000
  N   N43       1.0  0.81930  0.79435  0.19335  1.0000
  H   H1024     1.0  0.85728  0.50979  0.14756  1.0000
  C   C600      1.0  0.73874  0.56273  0.16108  1.0000
  S   S173      1.0  0.98981  0.53243  0.34574  1.0000
  N   N44       1.0  0.77504  0.51498  0.14962  1.0000
  C   C601      1.0  0.85568  0.74549  0.19628  1.0000
  H   H1025     1.0  0.72100  0.54927  0.17748  1.0000
  H   H1026     1.0  0.77989  0.55020  0.19402  1.0000
  H   H1027     1.0  0.98485  0.86869  0.05564  1.0000
  H   H1028     1.0  0.91424  0.63634  0.42019  1.0000
  H   H1029     1.0  0.98058  0.61438  0.01559  1.0000
  H   H1030     1.0  0.78318  0.53312  0.09241  1.0000
  H   H1031     1.0  0.97454  0.51918  0.20741  1.0000
  H   H1032     1.0  0.85713  0.74203  0.36769  1.0000
  C   C602      1.0  0.93382  0.94679  0.33933  1.0000
  H   H1033     1.0  0.96799  0.91238  0.32661  1.0000
  C   C603      1.0  0.97117  0.99562  0.02468  1.0000
  H   H1034     1.0  0.81933  0.72852  0.38085  1.0000
  C   C604      1.0  0.93287  0.62405  0.99909  1.0000
  H   H1035     1.0  0.88926  0.64159  0.37860  1.0000
  H   H1036     1.0  0.98896  0.98017  0.43094  1.0000
  H   H1037     1.0  0.84556  0.74416  0.41623  1.0000
  H   H1038     1.0  0.93813  0.90187  0.15619  1.0000
  C   C605      1.0  0.95320  0.59466  0.47051  1.0000
  C   C606      1.0  0.81071  0.82555  0.13072  1.0000
  H   H1039     1.0  0.84223  0.63834  0.42382  1.0000
  H   H1040     1.0  0.74411  0.52099  0.10105  1.0000
  H   H1041     1.0  0.90097  0.74126  0.42165  1.0000
  H   H1042     1.0  0.99189  0.99408  0.30796  1.0000
  Fe  Fe87      1.0  0.83302  0.72699  0.00700  1.0000
  H   H1043     1.0  0.81208  0.85763  0.21266  1.0000
  H   H1044     1.0  0.83017  0.84414  0.25652  1.0000
  H   H1045     1.0  0.95448  0.97607  0.40139  1.0000
  H   H1046     1.0  0.87557  0.75776  0.21009  1.0000
  H   H1047     1.0  0.78178  0.82765  0.18021  1.0000
  C   C607      1.0  0.83525  0.76799  0.17202  1.0000
  C   C608      1.0  0.84445  0.81683  0.20630  1.0000
  H   H1048     1.0  0.77988  0.82309  0.25093  1.0000
  H   H1049     1.0  0.85180  0.86590  0.22084  1.0000
  H   H1050     1.0  0.77905  0.79175  0.15587  1.0000
  H   H1051     1.0  0.75381  0.79811  0.22357  1.0000
  H   H1052     1.0  0.86083  0.82296  0.18260  1.0000
  H   H1053     1.0  0.86010  0.80528  0.22751  1.0000
  N   N45       1.0  0.86374  0.68372  0.43464  1.0000
  C   C609      1.0  0.86486  0.64820  0.43405  1.0000
  H   H1054     1.0  0.83566  0.54558  0.14401  1.0000
  C   C610      1.0  0.89492  0.69514  0.44953  1.0000
  C   C611      1.0  0.85766  0.69560  0.39464  1.0000
  C   C612      1.0  0.89027  0.63310  0.40852  1.0000
  H   H1055     1.0  0.68283  0.71946  0.01124  1.0000
  C   C613      1.0  0.90014  0.73087  0.45068  1.0000
  C   C614      1.0  0.84415  0.72932  0.39049  1.0000
  H   H1056     1.0  0.86826  0.63864  0.46348  1.0000
  H   H1057     1.0  0.92340  0.73549  0.46392  1.0000
  H   H1058     1.0  0.92939  0.93652  0.36797  1.0000
  H   H1059     1.0  0.68506  0.64931  0.41923  1.0000
  C   C615      1.0  0.96684  0.93843  0.32475  1.0000
  H   H1060     1.0  0.91471  0.68609  0.43218  1.0000
  H   H1061     1.0  0.87964  0.69459  0.37750  1.0000
  H   H1062     1.0  0.84078  0.67976  0.37983  1.0000
  C   C616      1.0  0.96092  0.60653  0.99855  1.0000
  C   C617      1.0  0.83843  0.69276  0.46265  1.0000
  C   C618      1.0  0.80761  0.50339  0.15873  1.0000
  Fe  Fe88      1.0  0.67190  0.73182  0.30847  1.0000
  S   S174      1.0  0.99257  0.92004  0.10880  1.0000
  H   H1063     1.0  0.72031  0.73273  0.99544  1.0000
  H   H1064     1.0  0.96754  0.94429  0.29374  1.0000
  H   H1065     1.0  0.91623  0.93629  0.31971  1.0000
  H   H1066     1.0  0.92911  0.97237  0.33930  1.0000
  H   H1067     1.0  0.79812  0.68988  0.42258  1.0000
  C   C619      1.0  0.97841  0.61571  0.46864  1.0000
  S   S175      1.0  0.66417  0.77502  0.34516  1.0000
  C   C620      1.0  0.99305  0.98855  0.33904  1.0000
  N   N46       1.0  0.99423  0.95341  0.34507  1.0000
  C   C621      1.0  0.98482  0.49793  0.22116  1.0000
  H   H1068     1.0  0.72740  0.49818  0.15858  1.0000
  H   H1069     1.0  0.97632  0.49816  0.25131  1.0000
  C   C622      1.0  0.97703  0.64480  0.48806  1.0000
  S   S176      1.0  0.70717  0.79106  0.84672  1.0000
  C   C623      1.0  0.94955  0.88332  0.82683  1.0000
  Fe  Fe89      1.0  0.86213  0.73709  0.62174  1.0000
  S   S177      1.0  0.85606  0.78742  0.60324  1.0000
  S   S178      1.0  0.83636  0.71922  0.67396  1.0000
  Fe  Fe90      1.0  0.91273  0.72200  0.56220  1.0000
  S   S179      1.0  0.91044  0.77190  0.54059  1.0000
  H   H1070     1.0  0.95201  0.83679  0.80286  1.0000
  Fe  Fe91      1.0  0.90892  0.78841  0.60176  1.0000
  S   S180      1.0  0.94247  0.82792  0.62105  1.0000
  Fe  Fe92      1.0  0.85800  0.76666  0.54407  1.0000
  C   C624      1.0  0.97142  0.62224  0.88033  1.0000
  S   S181      1.0  0.91498  0.73883  0.62338  1.0000
  S   S182      1.0  0.86020  0.71609  0.56269  1.0000
  H   H1071     1.0  0.69585  0.68773  0.86202  1.0000
  S   S183      1.0  0.93777  0.93846  0.74554  1.0000
  Fe  Fe93      1.0  0.98141  0.50554  0.89846  1.0000
  H   H1072     1.0  0.67434  0.77611  0.92313  1.0000
  S   S184      1.0  0.94093  0.53398  0.92508  1.0000
  C   C625      1.0  0.90753  0.61326  0.97728  1.0000
  S   S185      1.0  0.98315  0.50732  0.83408  1.0000
  H   H1073     1.0  0.66702  0.75940  0.53290  1.0000
  C   C626      1.0  0.91037  0.58556  0.95527  1.0000
  C   C627      1.0  0.93862  0.56837  0.95422  1.0000
  Fe  Fe94      1.0  0.97271  0.97429  0.77057  1.0000
  H   H1074     1.0  0.67355  0.70349  0.51624  1.0000
  S   S186      1.0  0.95000  0.69089  0.53286  1.0000
  H   H1075     1.0  0.89055  0.57761  0.93860  1.0000
  H   H1076     1.0  0.77676  0.78080  0.95817  1.0000
  H   H1077     1.0  0.70314  0.68475  0.96232  1.0000
  C   C628      1.0  0.93994  0.85913  0.65495  1.0000
  C   C629      1.0  0.91426  0.86279  0.67944  1.0000
  C   C630      1.0  0.91384  0.88748  0.70639  1.0000
  C   C631      1.0  0.93904  0.90880  0.70947  1.0000
  C   C632      1.0  0.96462  0.90524  0.68482  1.0000
  C   C633      1.0  0.96502  0.88058  0.65787  1.0000
  H   H1078     1.0  0.89472  0.84666  0.67749  1.0000
  H   H1079     1.0  0.89384  0.89003  0.72510  1.0000
  C   C634      1.0  0.92669  0.60326  0.49218  1.0000
  S   S187      1.0  0.66976  0.78468  0.74344  1.0000
  C   C635      1.0  0.77900  0.73970  0.92270  1.0000
  C   C636      1.0  0.76743  0.72539  0.88935  1.0000
  C   C637      1.0  0.74490  0.74052  0.86635  1.0000
  C   C638      1.0  0.73393  0.77035  0.87626  1.0000
  C   C639      1.0  0.74569  0.78482  0.90936  1.0000
  C   C640      1.0  0.76794  0.76948  0.93270  1.0000
  H   H1080     1.0  0.77601  0.70242  0.88130  1.0000
  H   H1081     1.0  0.73649  0.72936  0.84059  1.0000
  H   H1082     1.0  0.73757  0.80805  0.91702  1.0000
  H   H1083     1.0  0.93529  0.59750  0.84857  1.0000
  C   C641      1.0  0.72904  0.71962  0.67306  1.0000
  C   C642      1.0  0.74560  0.72932  0.64043  1.0000
  C   C643      1.0  0.77860  0.72926  0.64029  1.0000
  C   C644      1.0  0.79508  0.71869  0.67243  1.0000
  C   C645      1.0  0.77843  0.70837  0.70466  1.0000
  C   C646      1.0  0.74553  0.70926  0.70520  1.0000
  H   H1084     1.0  0.73298  0.73711  0.61535  1.0000
  H   H1085     1.0  0.79130  0.73717  0.61528  1.0000
  H   H1086     1.0  0.79100  0.69949  0.72924  1.0000
  H   H1087     1.0  0.73290  0.70125  0.73020  1.0000
  H   H1088     1.0  0.98495  0.87810  0.63901  1.0000
  H   H1089     1.0  0.68324  0.84859  0.57908  1.0000
  H   H1090     1.0  0.96035  0.64458  0.87060  1.0000
  H   H1091     1.0  0.72849  0.80615  0.62736  1.0000
  C   C647      1.0  0.95047  0.65346  0.50955  1.0000
  H   H1092     1.0  0.90763  0.50858  0.84128  1.0000
  H   H1093     1.0  0.68834  0.69837  0.58295  1.0000
  S   S188      1.0  0.68778  0.71999  0.67304  1.0000
  H   H1094     1.0  0.93812  0.97270  0.96737  1.0000
  H   H1095     1.0  0.97164  0.59890  0.82351  1.0000
  H   H1096     1.0  0.92371  0.88490  0.82315  1.0000
  H   H1097     1.0  0.72337  0.82218  0.67379  1.0000
  C   C648      1.0  0.96284  0.86015  0.79731  1.0000
  H   H1098     1.0  0.66701  0.82357  0.66919  1.0000
  Fe  Fe95      1.0  0.66570  0.73340  0.72946  1.0000
  H   H1099     1.0  0.98407  0.92150  0.68645  1.0000
  H   H1100     1.0  0.95896  0.90725  0.82245  1.0000
  H   H1101     1.0  0.96478  0.66588  0.93488  1.0000
  H   H1102     1.0  0.68114  0.78540  0.65815  1.0000
  H   H1103     1.0  0.69735  0.67010  0.52302  1.0000
  H   H1104     1.0  0.90485  0.63834  0.52827  1.0000
  N   N47       1.0  0.80983  0.78598  0.77631  1.0000
  C   C649      1.0  0.78907  0.78898  0.74146  1.0000
  C   C650      1.0  0.84100  0.80097  0.76687  1.0000
  C   C651      1.0  0.79424  0.80327  0.80888  1.0000
  C   C652      1.0  0.81325  0.75141  0.78521  1.0000
  C   C653      1.0  0.75384  0.78167  0.74747  1.0000
  C   C654      1.0  0.85870  0.78735  0.73218  1.0000
  C   C655      1.0  0.81560  0.81701  0.84037  1.0000
  C   C656      1.0  0.83365  0.74271  0.81988  1.0000
  H   H1105     1.0  0.79038  0.81322  0.72935  1.0000
  H   H1106     1.0  0.79720  0.77311  0.71829  1.0000
  H   H1107     1.0  0.85751  0.79951  0.79130  1.0000
  H   H1108     1.0  0.83773  0.82658  0.76126  1.0000
  H   H1109     1.0  0.78083  0.82397  0.79810  1.0000
  H   H1110     1.0  0.77658  0.78794  0.82295  1.0000
  H   H1111     1.0  0.79008  0.74040  0.79078  1.0000
  H   H1112     1.0  0.82295  0.73872  0.76016  1.0000
  H   H1113     1.0  0.74958  0.75877  0.76160  1.0000
  H   H1114     1.0  0.74186  0.80032  0.76405  1.0000
  H   H1115     1.0  0.74213  0.78060  0.71917  1.0000
  H   H1116     1.0  0.88112  0.80032  0.72847  1.0000
  H   H1117     1.0  0.86492  0.76227  0.73630  1.0000
  H   H1118     1.0  0.84553  0.79030  0.70507  1.0000
  H   H1119     1.0  0.82796  0.83835  0.82989  1.0000
  H   H1120     1.0  0.83313  0.80029  0.85163  1.0000
  H   H1121     1.0  0.80075  0.82437  0.86485  1.0000
  H   H1122     1.0  0.85787  0.75191  0.81745  1.0000
  H   H1123     1.0  0.83548  0.71669  0.82168  1.0000
  H   H1124     1.0  0.82268  0.75044  0.84695  1.0000
  H   H1125     1.0  0.95407  0.87548  0.85656  1.0000
  H   H1126     1.0  0.84351  0.68242  0.49129  1.0000
  C   C657      1.0  0.67926  0.80970  0.64675  1.0000
  H   H1127     1.0  0.71249  0.71647  0.93128  1.0000
  Fe  Fe96      1.0  0.67425  0.76764  0.80420  1.0000
  S   S189      1.0  0.97583  0.97122  0.83490  1.0000
  C   C658      1.0  0.96389  0.57903  0.97621  1.0000
  C   C659      1.0  0.71334  0.82193  0.64450  1.0000
  H   H1128     1.0  0.71489  0.84632  0.63345  1.0000
  H   H1129     1.0  0.68139  0.76493  0.59573  1.0000
  H   H1130     1.0  0.95297  0.86741  0.76924  1.0000
  C   C660      1.0  0.92530  0.63236  0.51155  1.0000
  C   C661      1.0  0.67651  0.78825  0.58237  1.0000
  H   H1131     1.0  0.71534  0.66633  0.89990  1.0000
  H   H1132     1.0  0.72564  0.74100  0.52350  1.0000
  H   H1133     1.0  0.96633  0.57265  0.86368  1.0000
  C   C662      1.0  0.77221  0.75730  0.50974  1.0000
  H   H1134     1.0  0.96950  0.82909  0.72871  1.0000
  C   C663      1.0  0.66440  0.67336  0.90931  1.0000
  S   S190      1.0  0.83065  0.78173  0.49126  1.0000
  C   C664      1.0  0.69543  0.72983  0.98649  1.0000
  H   H1135     1.0  0.88575  0.62631  0.97732  1.0000
  H   H1136     1.0  0.70034  0.79698  0.57489  1.0000
  H   H1137     1.0  0.78111  0.75416  0.53845  1.0000
  C   C665      1.0  0.74077  0.74989  0.50118  1.0000
  C   C666      1.0  0.69437  0.70785  0.95156  1.0000
  H   H1138     1.0  0.67743  0.61800  0.52109  1.0000
  C   C667      1.0  0.69328  0.66865  0.88329  1.0000
  H   H1139     1.0  0.95954  0.61614  0.90765  1.0000
  S   S191      1.0  0.67448  0.71626  0.78970  1.0000
  C   C668      1.0  0.67014  0.68192  0.57214  1.0000
  H   H1140     1.0  0.90709  0.58719  0.49406  1.0000
  H   H1141     1.0  0.99323  0.69050  0.91041  1.0000
  C   C669      1.0  0.67333  0.67930  0.52832  1.0000
  C   C670      1.0  0.96116  0.59639  0.85216  1.0000
  S   S192      1.0  0.80738  0.71927  0.95018  1.0000
  H   H1142     1.0  0.69027  0.64647  0.86704  1.0000
  C   C671      1.0  0.99002  0.67200  0.93237  1.0000
  H   H1143     1.0  0.87373  0.50990  0.87066  1.0000
  H   H1144     1.0  0.98561  0.56592  0.97638  1.0000
  H   H1145     1.0  0.97776  0.81949  0.85311  1.0000
  H   H1146     1.0  0.68635  0.75361  0.98048  1.0000
  H   H1147     1.0  0.66738  0.80079  0.52241  1.0000
  H   H1148     1.0  0.67791  0.73264  0.88367  1.0000
  H   H1149     1.0  0.67438  0.65905  0.58655  1.0000
  H   H1150     1.0  0.98124  0.95699  0.93672  1.0000
  H   H1151     1.0  0.88183  0.49932  0.93665  1.0000
  H   H1152     1.0  0.66364  0.65276  0.92907  1.0000
  N   N48       1.0  0.66325  0.70382  0.93143  1.0000
  C   C672      1.0  0.99547  0.82916  0.73077  1.0000
