data_image0
_chemical_formula_structural       C3FeHSH4SHSCFeSH7CHCH4C2H6CNCH4CH2C2HSC3HCHSHC2H3SHC5HNC8SH9SH9NFeH2SHC2H4CHSCH4SHCHCSH2FeHCSHFeHCHSCHC2HC2HFeCHSC2HFeH4CHCSFeCH4FeH2CHCHC2NHCH2CH5CFeSFeS2FeS2FeSFeS5H2SCFeSCS2H2CFeCSFeCH2FeS3H4CH2CSCHCHCH2C2SH2CHCH4C2H2C6H4C6H4C3HCH3SC6H6NCHC2HCH4SCH9CH2CHCHCH3CH6SC2H2CH3CH4CHC2HC2HCNCH4CFeH4C4HSH2C2HCH3C2H2NHCH7C3H3NHNCHCH5FeHC2H3SCH2CH2SHFe2CHSH2C3H3CSH3CSC2H6C3H3CHNH3CHCH3C3H3CHC2H4C2H3NCH2CFe2S2FeS2FeS2HS2FeS2FeS2FeCFeS3HSH4NSH2CHSHCH3CHC3H5CHCHSHSH4C7H4C6SH3C6H4C3H2CH2FeC2FeC2H7C2SH7C2NH5CHNCHCHC2HC2H5CHCHSH4FeCHCH2NHNH4FeHC2HC4H4CSCH3CH5CH2CHCHCHFeH3CHCHCHC6H4C2H7CH3SHCHCSH2FeCH3CH2SHCH8C3H6CH2CH3NH2C2SFeSHSHFeS4CFeSFeS3FeHSCFeS2FeS2FeNFeS3H2CHCSC6H4C6H5SCHNHCH3C3H7C6H9C2HCHCFeHCFeHFeH3SH3CHC4H3C2H2CHC2HC2H3FeC2H4CH3CHCH2CHCH2CHC2H3FeH4CH3CH2CH8CNHC2SHCH5CH4SNHCH4CHSCH8SH2FeSCSFeS2CS3FeS2FeS2FeSFeS5FeS2HC6H4C6H4C6H4FeH3C6H9C3HC2H4CHNHSCHNH3CHCH3CHC2H5CHCNC8H16NH4CHFeHFeCH3CFeHCHSHCHSH2CHSH2SH2FeHC3SC2HC2H2SC4HC2HC2H3SCH2FeNC8H21NFeH3C2FeH6FeCSH4FeC2H3CHFeHNHCSNC7H2C2HSHC2H3CH4CH2SH2CH7CH4SHC3HCHSH2C2HCSH2C2H2FeCHCHCHCHSH2CSFeS2FeS2HFeS3CH4SH2CH2CHCH3CHSH4FeS2FeS2FeSFeS3H2CH2CHC2H4CHCHCH2C3HC6H3FeH3CH6C2H3SH2CH3CHC6H4C6H4C4H2NC6HSHCSFeCNC8H20CH3CH3CHNC2SHC2HC3HCHC2H2C2HCH5SH6C2H2NHCH2CH4CHCH2CH2CHCH2NH2CH4CHC3NH2CH3CFeH3CH5CH3C2H4NHCH3CFeCHCH5CH4CH5FeCH2SCH2CH3C3HFeH2CSHCHCH6C2HCH6C4H3NH5SCH4C3H2CHCH2CH5CH2NCH4CH2SH9CH3C3FeS2FeS2Fe2S3FeS2FeCSFeHFeS3FeS2FeS2FeSFeS3HSFeS2FeSFeHSCSH3CSHFeCSCH2CSHC3H2SCH2C6H5C6H4C6H2CH2C6H4C6H4C6H7C2HCH4C3HFeH9C2H3CHSH2NCHFeC2NH2NH2SHCH2CH3NC8H20C2HNC6H13NHC2HCH2CH5CH6NC7H13C2H2SH3CH2FeH2CH6CH2CHCSH2CH2C2HCSH3CSH4C2HC2HCH2CHCHFeCHCHCHNH2CFeCSHCH3SHCFeH6CHC3H3CH4CHC2H3SH2C3HNH2SH2C2NH2CH4C2H8CHCH7C3H2CH3C2HCHC2H5CHCHCHSC2H4C2H3CH8CNHCH3NHC2H5SH4NHCHC2SFeSH4SHC2H2SHSCH3FeCH4C2HCH4CHSCSHSCHCH3SH4C3HC2H4SH2CH8C2HC2HSHCH4C4NSHCH3C3FeCHSFeSC2SH2C5H3SH3C2SHCH2C2H2C2H3CHCFeH4SFeH2SC2NC8H20NC8H16SCHSHNHC3HSC2HSHCSCNCHCHNHSHCH3CHC2H2C2SH2SNC2SFeHSHC2H4C4SC4HSCFeCFeCFeH2CHCH2CHCHSC3H3CFeS2C3FeCHCHFeH2SH4FeH2FeHFeC2H3S2HC2HFeSHFe2NHCH3SC2NH4FeSH2CH4CHC2HCH6C2HC3HCHFeH3CH2CH2FeSCH3C2HCNH3CH5C4H7C2H2SHCHCH8FeSCHCNCHSCSHS2H3CHCH2CFeS2FeSFeS2FeS2FeSFeHS2H2C4H2C6H6CNHCHCHSH2CSCFeHCHC2H4CH2CSCH2CHCFeH3CSCH4C2H2CHC2HSCH3SFeC2H2SH2SC2HC3HCHNC8H20NC6HCH9CH2CH3SCH3CSC2H2CH3CH7CH3CH2C2HSHNH3FeH4CH10CHC3H4C2HCH8CH4C3NC3HCH2CH7C2H5CFeS2FeS2FeSFeHS2FeS2FeS2FeSFeHS2C2H2CH2SHC2H2CHFeCH3SH7CH3C2H3C2FeH3C6HCH4NH5CHC3SHC6H4C2HSH2SCH2CSHCH2CH2CNCHSHCSCHCH2CHC2H6CH11CSCHNC6H11SHCH2CH2SC7H2CSHCHSCFeSCH5Fe2H8SCH2CH3FeCNCH2CHSH2C8H7Fe2H3NC2H4C2H3CH6SCH2CHCH2C2SH3NC2SHCH2C3H5CH5SH2FeS2FeSHFeS2FeS2FeSFeS3FeS4FeS2FeSFeS2CHSFeSCFeS2FeSFeSHSFeCHC5H2CHC6H4C4H2C6H4C6H5CHC6H4C6H7C3HNHCHNC8H2SH9CHCH5C4H9CSFeH2NC6H15NC6H15NSH2CH3CHC2FeSCH4CHC2H9FeCHCH3SHSCH4CHSH2SHCH3C2H5C3H2CHCHNC5H9CHCH3C2H2FeCNCHCH2CHCNCNHCFe2CHFeCHCH3Fe2HC2HSHCHC2H2NH2CHSCHSHC2H2NH2SCH2C3HC2HSC3HC3H4SCFeH2CSH2SCSCH2CHCH5SCFeH2C2SCH2CH3CFeCSNH2CH4CHCHCH2C2H4C2HFeH2SHSH5CHSCH2CH7SCHCH2CH3CH2FeSHC2H5C3H10CH2CS2CHCH4C3H2CHCH4C2H6CHCH4SCH6CHC2H6CH3C2HCSHCHCHFeS2FeS2FeSFeHS2CHCH2C6H5CH2CH5CH2CH2CH2C2HCHNCNCH3C2H7C2H4CH5C4H3FeHCHCSNH3SH3CHC2H3CFeS2FeS2FeSFeS3FeS2FeS2FeSFeS3FeHSFeCSHFeSHSFeS2FeS2FeHFeS3CHSH4CHCHCH7CHC8H4CH4C6H4C6H4C6H4C6H4C6H4C6H9CHNC8H9CH10CHSCHCHC3H2NH13C4HCH5NH6CHCH3CFeNH3CNC6H19CH3CH3CH3C2H5CH2CH2CH2CHNC2NHC2H3CH2CH5CHC2HCH10CHC5H2CHNH2CH5CH4CH8C3HCHSH4FeS3FeS2FeS2FeS2FeS2FeHCS2FeS2FeS2FeSFeS3C2H5CH2C6H4C6H5C6H3C6H4C2H2CHCHC2H3CHCH2C3SHNHCHCHCH4NC8H20CH2CH2C3H2CHCH3SH2CH4CH2CH5C2HC2H3CHCH2CH3SHFeCNHCFeH5SHCH3C3HCHC2SH2NHCHNC2FeC3H2CH3CHSH2SH5CH2CH3CH2CFeC2HS2FeCHC2HCHSH2SH3CHCH4CH3NCH4CH2C2H9C3HCH10CHNHCH2NCH4CH3C2HC2H2NH4C2H5CH3CHSFeS2FeS2FeSFeS3H2NFeS2HFeSHSFeSFeS2FeSFe2S2H2NC2H2CH2C3H3CH2NHNCHC6H4C6H5C6H4CHCHC2HC2H3CH3C4H4CH5C3H2CHC2HSC2H7CHCHNC8H24C2HC2H2C2HCHCH2CH3CHC2SHC2H2C4H7CH5CH7CHC2H3CH3CHC2H3CHCH3C2H2NHC2HNH3CH6CH6SCH2CFeH3C2HSCH2CH3CHSCNC2H4CH3FeS2FeHFeHS2FeS2FeS2FeSFeHS2FeS2FeS2FeSFeS3H4S3C6H2CHCH2CH2CH2C7H4C5H2C5H3C5H2C6H6CSC4H5CH3FeHCH4NH4CHSHCH3C2H2CH2CHC2SCFeSHC4HCNHC3HC3HNH10SH2CHCH4CH7CHNC6H10CHCHCHNH2SH3CHCH6C3HFeHC2HSHCH3CHC3NHCH5FeH4CHSH2FeSH2CHSH2CSCHC2H8NHCH2SHFeH2CH7CHSC3HNH2CH4NHCHCHCHCSCH2CH4SH2FeSHFeS2FeSFeS3FeS2H2S3C6H5CH2C2H2CH2Fe3CH2CH2CNHCHCH3CNH3CHCHCH5CHC3H6CSC2HCH2CH2CHCH5SH3C2H3CH7C3H3CHNH7SCSHCH5CH2CHCHC2FeH3C2NHC2H3C2H2CHCHC6H2CSCH5CHCHCHCHC3H8CH2CN2CH2CHCH3CH7CH2CH3CH9C2H4CH
_chemical_formula_sum              "C1792 Fe256 H3072 S512 N128"
_cell_length_a       69.4228
_cell_length_b       88.7259
_cell_length_c       52.6117
_cell_angle_alpha    74.9146
_cell_angle_beta     75.8099
_cell_angle_gamma    76.0622

_space_group_name_H-M_alt    "P 1"
_space_group_IT_number       1

loop_
  _space_group_symop_operation_xyz
  'x, y, z'

loop_
  _atom_site_type_symbol
  _atom_site_label
  _atom_site_symmetry_multiplicity
  _atom_site_fract_x
  _atom_site_fract_y
  _atom_site_fract_z
  _atom_site_occupancy
  C   C1        1.0  0.30887  0.07379  0.08079  1.0000
  C   C2        1.0  0.30116  0.06394  0.03334  1.0000
  C   C3        1.0  0.28781  0.04868  0.07862  1.0000
  Fe  Fe1       1.0  0.30352  0.01701  0.14651  1.0000
  H   H1        1.0  0.30950  0.05608  0.99502  1.0000
  S   S1        1.0  0.30390  0.04275  0.14454  1.0000
  H   H2        1.0  0.32051  0.07870  0.08559  1.0000
  H   H3        1.0  0.32133  0.02748  0.07040  1.0000
  H   H4        1.0  0.27882  0.05979  0.08475  1.0000
  H   H5        1.0  0.28452  0.06683  0.00172  1.0000
  S   S2        1.0  0.28057  0.00966  0.13071  1.0000
  H   H6        1.0  0.26526  0.05003  0.05471  1.0000
  S   S3        1.0  0.30359  0.99634  0.18173  1.0000
  C   C4        1.0  0.32336  0.03782  0.18676  1.0000
  Fe  Fe2       1.0  0.30763  0.99630  0.10713  1.0000
  S   S4        1.0  0.30836  0.99813  0.06361  1.0000
  H   H7        1.0  0.31403  0.07019  0.02307  1.0000
  H   H8        1.0  0.30479  0.10488  0.27500  1.0000
  H   H9        1.0  0.30749  0.20225  0.45371  1.0000
  H   H10       1.0  0.26051  0.03892  0.08822  1.0000
  H   H11       1.0  0.32016  0.08686  0.28856  1.0000
  H   H12       1.0  0.28812  0.07331  0.03925  1.0000
  H   H13       1.0  0.31066  0.03062  0.04213  1.0000
  C   C5        1.0  0.29609  0.05765  0.01137  1.0000
  H   H14       1.0  0.29215  0.04055  0.09721  1.0000
  C   C6        1.0  0.32049  0.04685  0.16142  1.0000
  H   H15       1.0  0.31552  0.02802  0.19616  1.0000
  H   H16       1.0  0.32822  0.06684  0.13019  1.0000
  H   H17       1.0  0.28984  0.04662  0.01844  1.0000
  H   H18       1.0  0.32766  0.14297  0.22932  1.0000
  C   C7        1.0  0.31917  0.05840  0.07057  1.0000
  C   C8        1.0  0.31882  0.20620  0.46107  1.0000
  H   H19       1.0  0.30167  0.08314  0.06563  1.0000
  H   H20       1.0  0.32449  0.04934  0.08780  1.0000
  H   H21       1.0  0.31170  0.21848  0.46319  1.0000
  H   H22       1.0  0.29764  0.07139  0.09971  1.0000
  H   H23       1.0  0.32112  0.17568  0.47097  1.0000
  H   H24       1.0  0.27964  0.03000  0.06449  1.0000
  C   C9        1.0  0.31878  0.03629  0.05156  1.0000
  N   N1        1.0  0.30653  0.05184  0.05791  1.0000
  C   C10       1.0  0.27273  0.04149  0.07051  1.0000
  H   H25       1.0  0.31651  0.13408  0.26239  1.0000
  H   H26       1.0  0.30394  0.09054  0.24473  1.0000
  H   H27       1.0  0.30671  0.11153  0.31318  1.0000
  H   H28       1.0  0.31641  0.09906  0.21113  1.0000
  C   C11       1.0  0.31792  0.08939  0.22920  1.0000
  H   H29       1.0  0.31940  0.07812  0.22272  1.0000
  H   H30       1.0  0.31595  0.11887  0.23048  1.0000
  C   C12       1.0  0.32014  0.09973  0.27970  1.0000
  C   C13       1.0  0.32210  0.10688  0.30267  1.0000
  H   H31       1.0  0.33038  0.11684  0.29647  1.0000
  S   S5        1.0  0.33031  0.00514  0.12039  1.0000
  C   C14       1.0  0.33047  0.05973  0.14965  1.0000
  C   C15       1.0  0.32978  0.13242  0.24596  1.0000
  C   C16       1.0  0.33097  0.11742  0.23568  1.0000
  H   H32       1.0  0.32903  0.09748  0.31813  1.0000
  C   C17       1.0  0.33101  0.17886  0.48179  1.0000
  H   H33       1.0  0.24855  0.14972  0.75166  1.0000
  S   S6        1.0  0.30625  0.15916  0.83797  1.0000
  H   H34       1.0  0.31906  0.16195  0.51768  1.0000
  C   C18       1.0  0.30863  0.11396  0.83426  1.0000
  C   C19       1.0  0.29670  0.22640  0.59950  1.0000
  H   H35       1.0  0.24609  0.18315  0.67648  1.0000
  H   H36       1.0  0.27982  0.18573  0.61707  1.0000
  H   H37       1.0  0.26060  0.20687  0.64165  1.0000
  S   S7        1.0  0.32993  0.18703  0.77327  1.0000
  H   H38       1.0  0.21346  0.21833  0.81390  1.0000
  C   C20       1.0  0.28906  0.18461  0.73197  1.0000
  C   C21       1.0  0.26918  0.14239  0.71723  1.0000
  C   C22       1.0  0.25393  0.15301  0.73024  1.0000
  C   C23       1.0  0.24560  0.16778  0.71566  1.0000
  C   C24       1.0  0.25251  0.17184  0.68792  1.0000
  H   H39       1.0  0.27558  0.13108  0.72870  1.0000
  N   N2        1.0  0.24334  0.18898  0.81760  1.0000
  C   C25       1.0  0.22908  0.19664  0.79827  1.0000
  C   C26       1.0  0.26192  0.17979  0.80275  1.0000
  C   C27       1.0  0.24886  0.20208  0.82651  1.0000
  C   C28       1.0  0.23256  0.17826  0.84117  1.0000
  C   C29       1.0  0.20990  0.20809  0.80873  1.0000
  C   C30       1.0  0.25850  0.16663  0.79102  1.0000
  C   C31       1.0  0.27021  0.19919  0.83296  1.0000
  C   C32       1.0  0.24545  0.16732  0.86125  1.0000
  S   S8        1.0  0.31813  0.09618  0.79643  1.0000
  H   H40       1.0  0.22357  0.18754  0.79223  1.0000
  H   H41       1.0  0.27309  0.17393  0.81572  1.0000
  H   H42       1.0  0.26979  0.18808  0.78607  1.0000
  H   H43       1.0  0.24813  0.21323  0.81071  1.0000
  H   H44       1.0  0.23769  0.20534  0.84433  1.0000
  H   H45       1.0  0.21984  0.18536  0.85311  1.0000
  H   H46       1.0  0.22543  0.17051  0.83415  1.0000
  H   H47       1.0  0.20098  0.21313  0.79257  1.0000
  H   H48       1.0  0.19993  0.20188  0.82608  1.0000
  S   S9        1.0  0.22646  0.18083  0.73259  1.0000
  H   H49       1.0  0.27340  0.15975  0.78307  1.0000
  H   H50       1.0  0.25025  0.15799  0.80629  1.0000
  H   H51       1.0  0.30580  0.12963  0.60288  1.0000
  H   H52       1.0  0.27133  0.20914  0.84134  1.0000
  H   H53       1.0  0.28214  0.19907  0.81453  1.0000
  H   H54       1.0  0.27378  0.18807  0.84779  1.0000
  H   H55       1.0  0.25796  0.15883  0.85189  1.0000
  H   H56       1.0  0.23573  0.16000  0.87726  1.0000
  H   H57       1.0  0.25144  0.17416  0.87134  1.0000
  N   N3        1.0  0.32287  0.19536  0.48731  1.0000
  Fe  Fe3       1.0  0.24189  0.23215  0.67132  1.0000
  H   H58       1.0  0.28841  0.22035  0.49942  1.0000
  H   H59       1.0  0.32276  0.99907  0.76604  1.0000
  S   S10       1.0  0.19920  0.22457  0.73376  1.0000
  H   H60       1.0  0.30242  0.12745  0.86491  1.0000
  C   C33       1.0  0.33021  0.23243  0.86940  1.0000
  C   C34       1.0  0.30591  0.12788  0.84356  1.0000
  H   H61       1.0  0.29629  0.17713  0.74880  1.0000
  H   H62       1.0  0.23703  0.20344  0.77928  1.0000
  H   H63       1.0  0.29232  0.19077  0.49941  1.0000
  H   H64       1.0  0.27759  0.19409  0.74017  1.0000
  C   C35       1.0  0.30851  0.14219  0.82541  1.0000
  H   H65       1.0  0.31808  0.22854  0.83696  1.0000
  S   S11       1.0  0.29703  0.09508  0.73329  1.0000
  C   C36       1.0  0.27569  0.14626  0.68940  1.0000
  H   H66       1.0  0.29819  0.21353  0.76309  1.0000
  H   H67       1.0  0.31026  0.09411  0.60288  1.0000
  H   H68       1.0  0.32903  0.01668  0.74405  1.0000
  H   H69       1.0  0.32067  0.21663  0.57045  1.0000
  S   S12       1.0  0.31496  0.05286  0.71131  1.0000
  H   H70       1.0  0.32270  0.22390  0.71821  1.0000
  C   C37       1.0  0.30187  0.19962  0.59258  1.0000
  H   H71       1.0  0.25061  0.17168  0.77390  1.0000
  C   C38       1.0  0.29231  0.21050  0.51629  1.0000
  S   S13       1.0  0.21710  0.21998  0.67120  1.0000
  H   H72       1.0  0.31226  0.19872  0.71799  1.0000
  H   H73       1.0  0.29498  0.20207  0.69623  1.0000
  Fe  Fe4       1.0  0.22224  0.20684  0.71262  1.0000
  H   H74       1.0  0.27220  0.16398  0.65326  1.0000
  C   C39       1.0  0.29535  0.23591  0.77379  1.0000
  S   S14       1.0  0.29479  0.13318  0.67250  1.0000
  H   H75       1.0  0.32049  0.02308  0.69587  1.0000
  Fe  Fe5       1.0  0.31140  0.11237  0.69879  1.0000
  H   H76       1.0  0.31474  0.15380  0.78367  1.0000
  C   C40       1.0  0.31505  0.12878  0.78838  1.0000
  H   H77       1.0  0.30553  0.18621  0.52632  1.0000
  S   S15       1.0  0.32036  0.23266  0.77831  1.0000
  C   C41       1.0  0.26725  0.16097  0.67478  1.0000
  H   H78       1.0  0.32187  0.15329  0.66227  1.0000
  C   C42       1.0  0.27986  0.22366  0.61981  1.0000
  C   C43       1.0  0.31406  0.11719  0.60810  1.0000
  H   H79       1.0  0.14790  0.23623  0.72340  1.0000
  C   C44       1.0  0.30784  0.17425  0.67966  1.0000
  C   C45       1.0  0.27365  0.20902  0.62604  1.0000
  H   H80       1.0  0.31005  0.21228  0.65660  1.0000
  Fe  Fe6       1.0  0.22566  0.23601  0.72893  1.0000
  C   C46       1.0  0.30771  0.21439  0.58600  1.0000
  H   H81       1.0  0.30722  0.10283  0.84851  1.0000
  S   S16       1.0  0.24874  0.21756  0.71065  1.0000
  C   C47       1.0  0.31336  0.11430  0.80673  1.0000
  C   C48       1.0  0.31288  0.14272  0.79775  1.0000
  H   H82       1.0  0.27782  0.20850  0.53019  1.0000
  Fe  Fe7       1.0  0.32972  0.17386  0.81581  1.0000
  H   H83       1.0  0.28062  0.17771  0.72531  1.0000
  H   H84       1.0  0.30089  0.16484  0.69506  1.0000
  H   H85       1.0  0.26301  0.21900  0.75587  1.0000
  H   H86       1.0  0.29480  0.18306  0.67249  1.0000
  C   C49       1.0  0.28452  0.19708  0.61213  1.0000
  H   H87       1.0  0.32325  0.22591  0.49083  1.0000
  C   C50       1.0  0.30434  0.19254  0.70889  1.0000
  S   S17       1.0  0.31700  0.18403  0.57777  1.0000
  Fe  Fe8       1.0  0.32177  0.09654  0.75277  1.0000
  C   C51       1.0  0.31978  0.16639  0.65607  1.0000
  H   H88       1.0  0.30118  0.21400  0.52798  1.0000
  H   H89       1.0  0.31122  0.17011  0.63949  1.0000
  H   H90       1.0  0.32323  0.23824  0.88659  1.0000
  H   H91       1.0  0.31058  0.11376  0.63047  1.0000
  Fe  Fe9       1.0  0.32008  0.07627  0.71497  1.0000
  H   H92       1.0  0.31935  0.19760  0.63629  1.0000
  H   H93       1.0  0.28757  0.10846  0.60746  1.0000
  C   C52       1.0  0.28829  0.22459  0.76606  1.0000
  H   H94       1.0  0.32201  0.16284  0.72764  1.0000
  C   C53       1.0  0.30319  0.19489  0.50733  1.0000
  H   H95       1.0  0.31850  0.12917  0.76710  1.0000
  C   C54       1.0  0.31366  0.23559  0.85272  1.0000
  C   C55       1.0  0.26842  0.22776  0.76166  1.0000
  N   N4        1.0  0.31940  0.18178  0.69218  1.0000
  H   H96       1.0  0.31891  0.14668  0.61406  1.0000
  C   C56       1.0  0.32350  0.20385  0.64918  1.0000
  H   H97       1.0  0.29979  0.23185  0.86614  1.0000
  H   H98       1.0  0.32593  0.02700  0.78517  1.0000
  C   C57       1.0  0.30383  0.10698  0.59768  1.0000
  H   H99       1.0  0.30442  0.11087  0.57575  1.0000
  H   H100      1.0  0.29192  0.23422  0.68883  1.0000
  H   H101      1.0  0.33195  0.04599  0.78090  1.0000
  H   H102      1.0  0.33007  0.13406  0.56248  1.0000
  H   H103      1.0  0.30140  0.23776  0.59442  1.0000
  C   C58       1.0  0.33179  0.16945  0.71054  1.0000
  Fe  Fe10      1.0  0.19642  0.23885  0.69226  1.0000
  S   S18       1.0  0.26748  0.23855  0.63768  1.0000
  Fe  Fe11      1.0  0.08249  0.39952  0.27835  1.0000
  S   S19       1.0  0.10086  0.38791  0.31042  1.0000
  S   S20       1.0  0.08356  0.38525  0.24817  1.0000
  Fe  Fe12      1.0  0.07281  0.43136  0.29396  1.0000
  S   S21       1.0  0.09101  0.42266  0.32624  1.0000
  S   S22       1.0  0.05936  0.45732  0.28680  1.0000
  Fe  Fe13      1.0  0.11390  0.41005  0.29701  1.0000
  S   S23       1.0  0.14670  0.41151  0.28934  1.0000
  Fe  Fe14      1.0  0.07612  0.40146  0.33699  1.0000
  S   S24       1.0  0.06516  0.38981  0.38025  1.0000
  S   S25       1.0  0.09725  0.42082  0.26342  1.0000
  S   S26       1.0  0.05621  0.41098  0.30622  1.0000
  S   S27       1.0  0.07697  0.47899  0.16142  1.0000
  S   S28       1.0  0.07781  0.38844  0.10130  1.0000
  H   H104      1.0  0.11426  0.40545  0.18559  1.0000
  H   H105      1.0  0.15996  0.40090  0.38637  1.0000
  S   S29       1.0  0.07123  0.42419  0.06223  1.0000
  C   C59       1.0  0.11644  0.45641  0.22808  1.0000
  Fe  Fe15      1.0  0.07374  0.41357  0.10525  1.0000
  S   S30       1.0  0.05385  0.42322  0.14053  1.0000
  C   C60       1.0  0.15023  0.42870  0.17439  1.0000
  S   S31       1.0  0.10683  0.41362  0.09785  1.0000
  S   S32       1.0  0.16348  0.48493  0.19242  1.0000
  H   H106      1.0  0.20092  0.47440  0.12328  1.0000
  H   H107      1.0  0.12017  0.44708  0.21633  1.0000
  C   C61       1.0  0.10305  0.42993  0.18731  1.0000
  Fe  Fe16      1.0  0.22354  0.37515  0.18794  1.0000
  C   C62       1.0  0.07041  0.48409  0.21222  1.0000
  S   S33       1.0  0.20213  0.36231  0.22119  1.0000
  Fe  Fe17      1.0  0.22625  0.39256  0.13015  1.0000
  C   C63       1.0  0.15288  0.42594  0.11804  1.0000
  H   H108      1.0  0.15422  0.35707  0.19344  1.0000
  H   H109      1.0  0.15690  0.44173  0.29555  1.0000
  Fe  Fe18      1.0  0.23847  0.40616  0.16982  1.0000
  S   S34       1.0  0.23896  0.42852  0.18215  1.0000
  S   S35       1.0  0.23780  0.36730  0.14904  1.0000
  S   S36       1.0  0.20970  0.39966  0.16859  1.0000
  H   H110      1.0  0.17584  0.43715  0.06007  1.0000
  H   H111      1.0  0.16521  0.38016  0.39907  1.0000
  H   H112      1.0  0.13064  0.40365  0.42600  1.0000
  H   H113      1.0  0.03712  0.45904  0.12835  1.0000
  C   C64       1.0  0.18391  0.46888  0.18916  1.0000
  H   H114      1.0  0.14482  0.36290  0.39846  1.0000
  H   H115      1.0  0.15692  0.43759  0.11620  1.0000
  C   C65       1.0  0.31862  0.32686  0.18742  1.0000
  S   S37       1.0  0.08259  0.42258  0.46316  1.0000
  C   C66       1.0  0.16429  0.44872  0.27654  1.0000
  H   H116      1.0  0.09474  0.45880  0.11779  1.0000
  C   C67       1.0  0.20030  0.46771  0.20101  1.0000
  H   H117      1.0  0.10818  0.44127  0.18394  1.0000
  C   C68       1.0  0.07391  0.45648  0.09354  1.0000
  H   H118      1.0  0.09185  0.42870  0.20644  1.0000
  H   H119      1.0  0.31190  0.29120  0.11509  1.0000
  C   C69       1.0  0.20040  0.44425  0.17425  1.0000
  C   C70       1.0  0.21712  0.44346  0.18535  1.0000
  S   S38       1.0  0.25409  0.40126  0.12942  1.0000
  H   H120      1.0  0.20035  0.43511  0.16415  1.0000
  H   H121      1.0  0.08639  0.45190  0.07814  1.0000
  C   C71       1.0  0.11748  0.45681  0.28716  1.0000
  H   H122      1.0  0.13057  0.36383  0.35812  1.0000
  C   C72       1.0  0.15375  0.40106  0.16922  1.0000
  H   H123      1.0  0.10706  0.37542  0.37204  1.0000
  H   H124      1.0  0.12000  0.44417  0.08030  1.0000
  H   H125      1.0  0.14860  0.42613  0.09896  1.0000
  H   H126      1.0  0.19356  0.43519  0.09668  1.0000
  C   C73       1.0  0.17726  0.39733  0.08050  1.0000
  C   C74       1.0  0.15979  0.39102  0.08467  1.0000
  H   H127      1.0  0.18037  0.40684  0.06335  1.0000
  H   H128      1.0  0.14959  0.39566  0.07068  1.0000
  C   C75       1.0  0.06797  0.39935  0.40416  1.0000
  C   C76       1.0  0.06943  0.41539  0.39721  1.0000
  C   C77       1.0  0.07337  0.42254  0.41576  1.0000
  C   C78       1.0  0.07517  0.41384  0.44167  1.0000
  C   C79       1.0  0.07258  0.39801  0.44920  1.0000
  C   C80       1.0  0.06915  0.39073  0.43037  1.0000
  H   H129      1.0  0.06760  0.42233  0.37753  1.0000
  H   H130      1.0  0.07517  0.43483  0.40995  1.0000
  H   H131      1.0  0.07407  0.39122  0.46916  1.0000
  H   H132      1.0  0.06790  0.37833  0.43592  1.0000
  C   C81       1.0  0.07506  0.39617  0.21858  1.0000
  C   C82       1.0  0.08241  0.39026  0.19511  1.0000
  C   C83       1.0  0.07619  0.39869  0.17110  1.0000
  C   C84       1.0  0.06204  0.41289  0.17055  1.0000
  C   C85       1.0  0.05456  0.41884  0.19405  1.0000
  C   C86       1.0  0.06123  0.41057  0.21801  1.0000
  H   H133      1.0  0.09322  0.37930  0.19526  1.0000
  H   H134      1.0  0.08214  0.39404  0.15308  1.0000
  H   H135      1.0  0.04367  0.42987  0.19369  1.0000
  H   H136      1.0  0.05545  0.41521  0.23606  1.0000
  C   C87       1.0  0.06119  0.46433  0.25224  1.0000
  C   C88       1.0  0.06009  0.45430  0.23629  1.0000
  C   C89       1.0  0.06384  0.45928  0.20830  1.0000
  H   H137      1.0  0.22131  0.48740  0.05190  1.0000
  C   C90       1.0  0.16875  0.37481  0.34866  1.0000
  H   H138      1.0  0.23109  0.43205  0.05429  1.0000
  H   H139      1.0  0.05645  0.44266  0.24553  1.0000
  H   H140      1.0  0.06294  0.45153  0.19596  1.0000
  S   S39       1.0  0.25153  0.38204  0.19223  1.0000
  C   C91       1.0  0.16240  0.39744  0.27138  1.0000
  C   C92       1.0  0.15632  0.38335  0.27221  1.0000
  C   C93       1.0  0.16897  0.37227  0.25765  1.0000
  C   C94       1.0  0.18745  0.37546  0.24155  1.0000
  C   C95       1.0  0.19357  0.38951  0.24086  1.0000
  C   C96       1.0  0.18118  0.40038  0.25600  1.0000
  H   H141      1.0  0.14197  0.38091  0.28417  1.0000
  H   H142      1.0  0.16423  0.36141  0.25827  1.0000
  H   H143      1.0  0.20792  0.39199  0.22871  1.0000
  H   H144      1.0  0.18603  0.41122  0.25531  1.0000
  H   H145      1.0  0.15936  0.43545  0.20584  1.0000
  H   H146      1.0  0.16643  0.41654  0.11996  1.0000
  N   N5        1.0  0.13882  0.38817  0.38066  1.0000
  C   C97       1.0  0.15139  0.47347  0.02894  1.0000
  H   H147      1.0  0.13272  0.42143  0.38336  1.0000
  C   C98       1.0  0.12042  0.40128  0.38012  1.0000
  C   C99       1.0  0.15267  0.34448  0.20211  1.0000
  H   H148      1.0  0.01891  0.39171  0.39492  1.0000
  C   C100      1.0  0.12454  0.41841  0.37029  1.0000
  H   H149      1.0  0.12129  0.37331  0.41296  1.0000
  H   H150      1.0  0.15621  0.39952  0.34351  1.0000
  H   H151      1.0  0.11091  0.39996  0.36697  1.0000
  H   H152      1.0  0.11055  0.40050  0.40037  1.0000
  S   S40       1.0  0.15820  0.48652  0.06655  1.0000
  C   C101      1.0  0.30932  0.31299  0.12703  1.0000
  H   H153      1.0  0.16882  0.44168  0.26069  1.0000
  H   H154      1.0  0.26373  0.42810  0.06627  1.0000
  H   H155      1.0  0.06248  0.44894  0.09691  1.0000
  H   H156      1.0  0.16489  0.36283  0.35652  1.0000
  H   H157      1.0  0.29059  0.34404  0.18626  1.0000
  H   H158      1.0  0.10983  0.42687  0.37097  1.0000
  H   H159      1.0  0.19167  0.44953  0.03656  1.0000
  H   H160      1.0  0.25590  0.44380  0.08381  1.0000
  H   H161      1.0  0.17502  0.37582  0.32682  1.0000
  C   C102      1.0  0.13188  0.37257  0.39344  1.0000
  H   H162      1.0  0.10258  0.47634  0.30779  1.0000
  H   H163      1.0  0.31328  0.32028  0.20733  1.0000
  C   C103      1.0  0.01405  0.41385  0.44450  1.0000
  H   H164      1.0  0.15604  0.39454  0.21227  1.0000
  C   C104      1.0  0.13151  0.45286  0.03849  1.0000
  H   H165      1.0  0.31093  0.30788  0.08855  1.0000
  C   C105      1.0  0.23141  0.43687  0.07163  1.0000
  H   H166      1.0  0.06653  0.48719  0.25262  1.0000
  H   H167      1.0  0.13970  0.38455  0.20373  1.0000
  H   H168      1.0  0.09484  0.43065  0.17126  1.0000
  C   C106      1.0  0.11220  0.46439  0.31174  1.0000
  H   H169      1.0  0.14559  0.46362  0.99884  1.0000
  H   H170      1.0  0.32159  0.27626  0.08420  1.0000
  H   H171      1.0  0.14982  0.39457  0.15626  1.0000
  H   H172      1.0  0.12253  0.33337  0.26192  1.0000
  H   H173      1.0  0.10275  0.45646  0.28282  1.0000
  H   H174      1.0  0.16665  0.37922  0.19420  1.0000
  S   S41       1.0  0.29725  0.36593  0.13402  1.0000
  C   C107      1.0  0.19125  0.43999  0.05500  1.0000
  C   C108      1.0  0.31804  0.30226  0.10646  1.0000
  H   H175      1.0  0.00725  0.42616  0.43537  1.0000
  H   H176      1.0  0.12453  0.44415  0.29367  1.0000
  C   C109      1.0  0.14248  0.39274  0.42569  1.0000
  H   H177      1.0  0.13342  0.46299  0.09595  1.0000
  H   H178      1.0  0.14002  0.38819  0.33905  1.0000
  H   H179      1.0  0.16438  0.42995  0.15916  1.0000
  C   C110      1.0  0.15708  0.42453  0.20152  1.0000
  H   H180      1.0  0.12254  0.41145  0.20977  1.0000
  H   H181      1.0  0.14116  0.44096  0.17156  1.0000
  H   H182      1.0  0.15416  0.39404  0.43571  1.0000
  H   H183      1.0  0.13604  0.34944  0.25621  1.0000
  C   C111      1.0  0.14306  0.46334  0.02007  1.0000
  H   H184      1.0  0.16008  0.47142  0.24935  1.0000
  C   C112      1.0  0.15386  0.38935  0.19657  1.0000
  C   C113      1.0  0.12202  0.34629  0.25433  1.0000
  H   H185      1.0  0.14943  0.47180  0.28337  1.0000
  C   C114      1.0  0.15255  0.39053  0.39690  1.0000
  C   C115      1.0  0.12071  0.36673  0.37691  1.0000
  H   H186      1.0  0.12687  0.41496  0.13715  1.0000
  C   C116      1.0  0.12500  0.34995  0.17830  1.0000
  N   N6        1.0  0.13105  0.34264  0.20519  1.0000
  C   C117      1.0  0.10390  0.34859  0.17565  1.0000
  H   H187      1.0  0.13287  0.42065  0.34923  1.0000
  H   H188      1.0  0.12021  0.36475  0.21880  1.0000
  H   H189      1.0  0.12583  0.36284  0.17245  1.0000
  H   H190      1.0  0.20038  0.47669  0.21147  1.0000
  C   C118      1.0  0.19487  0.44528  0.07895  1.0000
  Fe  Fe19      1.0  0.11094  0.38917  0.09086  1.0000
  H   H191      1.0  0.04583  0.46578  0.06500  1.0000
  H   H192      1.0  0.10112  0.35550  0.15554  1.0000
  H   H193      1.0  0.09144  0.35367  0.19046  1.0000
  H   H194      1.0  0.10313  0.33614  0.17645  1.0000
  C   C119      1.0  0.11814  0.35217  0.22537  1.0000
  C   C120      1.0  0.25315  0.43965  0.06713  1.0000
  C   C121      1.0  0.12030  0.41523  0.18873  1.0000
  C   C122      1.0  0.30575  0.34032  0.17558  1.0000
  H   H195      1.0  0.22877  0.45918  0.10018  1.0000
  S   S42       1.0  0.12053  0.44103  0.02612  1.0000
  H   H196      1.0  0.11548  0.35566  0.38899  1.0000
  H   H197      1.0  0.10176  0.35308  0.22669  1.0000
  C   C123      1.0  0.13444  0.45508  0.24140  1.0000
  C   C124      1.0  0.31260  0.34898  0.14997  1.0000
  H   H198      1.0  0.11346  0.46797  0.21382  1.0000
  C   C125      1.0  0.16917  0.33413  0.18489  1.0000
  H   H199      1.0  0.31095  0.32550  0.11803  1.0000
  H   H200      1.0  0.12424  0.43493  0.13991  1.0000
  H   H201      1.0  0.17167  0.41595  0.20100  1.0000
  C   C126      1.0  0.13482  0.42326  0.14141  1.0000
  C   C127      1.0  0.15025  0.38832  0.35229  1.0000
  H   H202      1.0  0.22953  0.42700  0.08960  1.0000
  H   H203      1.0  0.20184  0.42901  0.05079  1.0000
  N   N7        1.0  0.13986  0.41708  0.16902  1.0000
  H   H204      1.0  0.10247  0.45448  0.24284  1.0000
  C   C128      1.0  0.21694  0.45522  0.19875  1.0000
  H   H205      1.0  0.14570  0.42006  0.21882  1.0000
  H   H206      1.0  0.14715  0.45840  0.22489  1.0000
  H   H207      1.0  0.22978  0.45468  0.20741  1.0000
  H   H208      1.0  0.10649  0.31198  0.21657  1.0000
  H   H209      1.0  0.13596  0.38232  0.43808  1.0000
  H   H210      1.0  0.17856  0.45063  0.28013  1.0000
  H   H211      1.0  0.16966  0.40245  0.16052  1.0000
  C   C129      1.0  0.04939  0.48044  0.10470  1.0000
  C   C130      1.0  0.19038  0.39160  0.09873  1.0000
  C   C131      1.0  0.12843  0.45250  0.06595  1.0000
  H   H212      1.0  0.25727  0.44778  0.04759  1.0000
  H   H213      1.0  0.12582  0.46486  0.31869  1.0000
  H   H214      1.0  0.13917  0.44220  0.24996  1.0000
  N   N8        1.0  0.13067  0.46477  0.26245  1.0000
  H   H215      1.0  0.19625  0.37486  0.13508  1.0000
  N   N9        1.0  0.21448  0.45095  0.07496  1.0000
  C   C132      1.0  0.15099  0.46504  0.26775  1.0000
  H   H216      1.0  0.10312  0.45698  0.32857  1.0000
  C   C133      1.0  0.13615  0.46308  0.07480  1.0000
  H   H217      1.0  0.18401  0.33736  0.18326  1.0000
  H   H218      1.0  0.02899  0.41147  0.43103  1.0000
  H   H219      1.0  0.01576  0.36061  0.45192  1.0000
  H   H220      1.0  0.15734  0.34147  0.22184  1.0000
  H   H221      1.0  0.07013  0.45515  0.13702  1.0000
  Fe  Fe20      1.0  0.26485  0.37635  0.15144  1.0000
  H   H222      1.0  0.10946  0.35248  0.26786  1.0000
  C   C134      1.0  0.10900  0.32076  0.22656  1.0000
  C   C135      1.0  0.19741  0.46996  0.10735  1.0000
  H   H223      1.0  0.09595  0.33069  0.22533  1.0000
  H   H224      1.0  0.17062  0.32130  0.19443  1.0000
  H   H225      1.0  0.17119  0.45785  0.16688  1.0000
  S   S43       1.0  0.11194  0.39727  0.04645  1.0000
  C   C136      1.0  0.18391  0.45711  0.17579  1.0000
  H   H226      1.0  0.16590  0.36316  0.14160  1.0000
  H   H227      1.0  0.16690  0.33602  0.16412  1.0000
  C   C137      1.0  0.13006  0.32520  0.21364  1.0000
  H   H228      1.0  0.08845  0.43976  0.12460  1.0000
  H   H229      1.0  0.21298  0.44571  0.11780  1.0000
  S   S44       1.0  0.21102  0.40074  0.09461  1.0000
  H   H230      1.0  0.10849  0.31475  0.24800  1.0000
  Fe  Fe21      1.0  0.10496  0.42187  0.05457  1.0000
  Fe  Fe22      1.0  0.07819  0.39890  0.05729  1.0000
  C   C138      1.0  0.15572  0.37863  0.10665  1.0000
  H   H231      1.0  0.18100  0.37582  0.35789  1.0000
  S   S45       1.0  0.13354  0.37104  0.11250  1.0000
  H   H232      1.0  0.08874  0.48236  0.09285  1.0000
  H   H233      1.0  0.18166  0.45479  0.08332  1.0000
  C   C139      1.0  0.18625  0.37927  0.12083  1.0000
  C   C140      1.0  0.16908  0.37264  0.12455  1.0000
  C   C141      1.0  0.08221  0.45265  0.11965  1.0000
  H   H234      1.0  0.14002  0.31913  0.22847  1.0000
  H   H235      1.0  0.22065  0.45931  0.03186  1.0000
  H   H236      1.0  0.29282  0.31315  0.13381  1.0000
  C   C142      1.0  0.06969  0.47392  0.19629  1.0000
  S   S46       1.0  0.05887  0.39118  0.03580  1.0000
  H   H237      1.0  0.13638  0.31944  0.19611  1.0000
  H   H238      1.0  0.31618  0.30860  0.14516  1.0000
  H   H239      1.0  0.13563  0.34457  0.16212  1.0000
  C   C143      1.0  0.21597  0.46425  0.05035  1.0000
  S   S47       1.0  0.13531  0.47516  0.14351  1.0000
  C   C144      1.0  0.21433  0.45594  0.10035  1.0000
  C   C145      1.0  0.06576  0.47942  0.24025  1.0000
  H   H240      1.0  0.00743  0.38288  0.98641  1.0000
  H   H241      1.0  0.01847  0.38256  0.47015  1.0000
  H   H242      1.0  0.02333  0.47090  0.10249  1.0000
  H   H243      1.0  0.00386  0.40785  0.37610  1.0000
  H   H244      1.0  0.02878  0.38503  0.43544  1.0000
  H   H245      1.0  0.02920  0.42243  0.46803  1.0000
  C   C146      1.0  0.08219  0.48299  0.07523  1.0000
  C   C147      1.0  0.08609  0.39469  0.98748  1.0000
  C   C148      1.0  0.14770  0.47355  0.05623  1.0000
  H   H246      1.0  0.20073  0.47185  0.04917  1.0000
  H   H247      1.0  0.10350  0.48216  0.25522  1.0000
  H   H248      1.0  0.19591  0.48011  0.09005  1.0000
  C   C149      1.0  0.03185  0.47129  0.11749  1.0000
  H   H249      1.0  0.00021  0.36507  0.98560  1.0000
  N   N10       1.0  0.06532  0.47370  0.08331  1.0000
  H   H250      1.0  0.12499  0.48478  0.22934  1.0000
  H   H251      1.0  0.08063  0.46011  0.03658  1.0000
  H   H252      1.0  0.09530  0.47768  0.06122  1.0000
  C   C150      1.0  0.05599  0.38521  0.98842  1.0000
  H   H253      1.0  0.24161  0.47136  0.06105  1.0000
  C   C151      1.0  0.07062  0.47194  0.03370  1.0000
  H   H254      1.0  0.18259  0.46619  0.11555  1.0000
  H   H255      1.0  0.06188  0.47224  0.01843  1.0000
  H   H256      1.0  0.05621  0.48129  0.12115  1.0000
  C   C152      1.0  0.12016  0.48145  0.25154  1.0000
  C   C153      1.0  0.06769  0.39034  0.00165  1.0000
  C   C154      1.0  0.05578  0.47473  0.05988  1.0000
  H   H257      1.0  0.07992  0.48129  0.02512  1.0000
  H   H258      1.0  0.23878  0.47827  0.02708  1.0000
  H   H259      1.0  0.32829  0.27736  0.14488  1.0000
  C   C155      1.0  0.23026  0.47574  0.04807  1.0000
  H   H260      1.0  0.02198  0.41194  0.39100  1.0000
  C   C156      1.0  0.01854  0.41421  0.47164  1.0000
  C   C157      1.0  0.01417  0.38560  0.45013  1.0000
  H   H261      1.0  0.09519  0.39870  0.99745  1.0000
  H   H262      1.0  0.16039  0.48148  0.01453  1.0000
  H   H263      1.0  0.00006  0.37334  0.42976  1.0000
  H   H264      1.0  0.04551  0.48636  0.05508  1.0000
  C   C158      1.0  0.00447  0.37186  0.44925  1.0000
  C   C159      1.0  0.01087  0.40419  0.39416  1.0000
  H   H265      1.0  0.02591  0.40242  0.48181  1.0000
  H   H266      1.0  0.04180  0.38178  0.99933  1.0000
  H   H267      1.0  0.02107  0.47749  0.13261  1.0000
  N   N11       1.0  0.00133  0.40204  0.44539  1.0000
  C   C160      1.0  0.08438  0.43040  0.90816  1.0000
  H   H268      1.0  0.09949  0.42311  0.91061  1.0000
  H   H269      1.0  0.06629  0.38788  0.67304  1.0000
  C   C161      1.0  0.14497  0.25901  0.69600  1.0000
  Fe  Fe23      1.0  0.04986  0.43644  0.55181  1.0000
  Fe  Fe24      1.0  0.04083  0.31220  0.68007  1.0000
  S   S48       1.0  0.03357  0.28897  0.70569  1.0000
  S   S49       1.0  0.04081  0.32041  0.63600  1.0000
  Fe  Fe25      1.0  0.04277  0.32515  0.72689  1.0000
  S   S50       1.0  0.03556  0.30327  0.75714  1.0000
  S   S51       1.0  0.04512  0.34814  0.73507  1.0000
  Fe  Fe26      1.0  0.05747  0.29005  0.72724  1.0000
  S   S52       1.0  0.07965  0.26818  0.74229  1.0000
  S   S53       1.0  0.16973  0.25614  0.67698  1.0000
  H   H270      1.0  0.11016  0.27600  0.61477  1.0000
  S   S54       1.0  0.06660  0.31203  0.69901  1.0000
  S   S55       1.0  0.01789  0.32698  0.70573  1.0000
  Fe  Fe27      1.0  0.07052  0.37959  0.89259  1.0000
  S   S56       1.0  0.06446  0.35488  0.90004  1.0000
  S   S57       1.0  0.09014  0.38743  0.91321  1.0000
  Fe  Fe28      1.0  0.04730  0.39247  0.84710  1.0000
  S   S58       1.0  0.03912  0.36904  0.85059  1.0000
  S   S59       1.0  0.03469  0.41410  0.81815  1.0000
  Fe  Fe29      1.0  0.03304  0.36732  0.89491  1.0000
  C   C162      1.0  0.01437  0.33162  0.86749  1.0000
  Fe  Fe30      1.0  0.07104  0.35850  0.85514  1.0000
  S   S60       1.0  0.08645  0.33864  0.83371  1.0000
  S   S61       1.0  0.03834  0.39179  0.89133  1.0000
  S   S62       1.0  0.08004  0.38213  0.84781  1.0000
  H   H271      1.0  0.32385  0.26310  0.87350  1.0000
  S   S63       1.0  0.08001  0.42140  0.53937  1.0000
  H   H272      1.0  0.00072  0.38373  0.87411  1.0000
  H   H273      1.0  0.14764  0.26148  0.79914  1.0000
  H   H274      1.0  0.05838  0.44499  0.63493  1.0000
  H   H275      1.0  0.01973  0.33619  0.78629  1.0000
  N   N12       1.0  0.08776  0.43359  0.85712  1.0000
  S   S64       1.0  0.05449  0.39650  0.52953  1.0000
  H   H276      1.0  0.06456  0.36461  0.56694  1.0000
  H   H277      1.0  0.30947  0.24837  0.84357  1.0000
  C   C163      1.0  0.12893  0.30043  0.59618  1.0000
  H   H278      1.0  0.08963  0.28512  0.58429  1.0000
  S   S65       1.0  0.03643  0.41599  0.57851  1.0000
  H   H279      1.0  0.00595  0.36043  0.52458  1.0000
  C   C164      1.0  0.09329  0.30750  0.59224  1.0000
  H   H280      1.0  0.07257  0.41419  0.71891  1.0000
  H   H281      1.0  0.12090  0.42197  0.81368  1.0000
  H   H282      1.0  0.16922  0.27777  0.72191  1.0000
  C   C165      1.0  0.13318  0.31341  0.78361  1.0000
  H   H283      1.0  0.14953  0.31242  0.78283  1.0000
  C   C166      1.0  0.10453  0.26456  0.72374  1.0000
  C   C167      1.0  0.11171  0.27613  0.70222  1.0000
  C   C168      1.0  0.13185  0.27337  0.68854  1.0000
  H   H284      1.0  0.11220  0.24115  0.74809  1.0000
  H   H285      1.0  0.12018  0.43666  0.63282  1.0000
  H   H286      1.0  0.02295  0.31227  0.82065  1.0000
  H   H287      1.0  0.10183  0.28726  0.69631  1.0000
  H   H288      1.0  0.03425  0.47741  0.66530  1.0000
  C   C169      1.0  0.00387  0.34062  0.79570  1.0000
  H   H289      1.0  0.07121  0.45083  0.88157  1.0000
  C   C170      1.0  0.10813  0.42996  0.63449  1.0000
  H   H290      1.0  0.09774  0.43147  0.67532  1.0000
  S   S66       1.0  0.06979  0.47093  0.68979  1.0000
  H   H291      1.0  0.10246  0.45172  0.82827  1.0000
  S   S67       1.0  0.22118  0.25180  0.68939  1.0000
  H   H292      1.0  0.32484  0.25514  0.60325  1.0000
  H   H293      1.0  0.09243  0.40502  0.68031  1.0000
  H   H294      1.0  0.00462  0.30978  0.85102  1.0000
  H   H295      1.0  0.13111  0.31175  0.58148  1.0000
  C   C171      1.0  0.29348  0.24575  0.69215  1.0000
  C   C172      1.0  0.05736  0.34538  0.76179  1.0000
  C   C173      1.0  0.06528  0.33008  0.77485  1.0000
  C   C174      1.0  0.07454  0.32804  0.79672  1.0000
  C   C175      1.0  0.07568  0.34128  0.80568  1.0000
  C   C176      1.0  0.06774  0.35656  0.79260  1.0000
  C   C177      1.0  0.05863  0.35861  0.77062  1.0000
  H   H296      1.0  0.06428  0.31983  0.76813  1.0000
  H   H297      1.0  0.08040  0.31623  0.80712  1.0000
  H   H298      1.0  0.06882  0.36683  0.79925  1.0000
  H   H299      1.0  0.05256  0.37045  0.76052  1.0000
  C   C178      1.0  0.06747  0.36554  0.60632  1.0000
  C   C179      1.0  0.06186  0.35917  0.58809  1.0000
  C   C180      1.0  0.05341  0.34536  0.59719  1.0000
  C   C181      1.0  0.05017  0.33819  0.62456  1.0000
  C   C182      1.0  0.05509  0.34496  0.64275  1.0000
  C   C183      1.0  0.06404  0.35842  0.63362  1.0000
  S   S68       1.0  0.10015  0.45361  0.74537  1.0000
  H   H300      1.0  0.04954  0.34021  0.58303  1.0000
  H   H301      1.0  0.05218  0.33983  0.66393  1.0000
  H   H302      1.0  0.06819  0.36339  0.64781  1.0000
  C   C184      1.0  0.08173  0.44234  0.76350  1.0000
  C   C185      1.0  0.06127  0.44949  0.76794  1.0000
  C   C186      1.0  0.04684  0.44066  0.78443  1.0000
  C   C187      1.0  0.05278  0.42461  0.79607  1.0000
  C   C188      1.0  0.07311  0.41728  0.79054  1.0000
  C   C189      1.0  0.08760  0.42618  0.77452  1.0000
  H   H303      1.0  0.05663  0.46196  0.75941  1.0000
  H   H304      1.0  0.03114  0.44641  0.78870  1.0000
  H   H305      1.0  0.07773  0.40480  0.79879  1.0000
  H   H306      1.0  0.10340  0.42058  0.77082  1.0000
  C   C190      1.0  0.05843  0.46448  0.58198  1.0000
  C   C191      1.0  0.05089  0.47466  0.60003  1.0000
  C   C192      1.0  0.10262  0.31239  0.63084  1.0000
  H   H307      1.0  0.10349  0.33605  0.63448  1.0000
  H   H308      1.0  0.08526  0.45158  0.56085  1.0000
  C   C193      1.0  0.07933  0.45932  0.57495  1.0000
  H   H309      1.0  0.05788  0.45409  0.82548  1.0000
  H   H310      1.0  0.09241  0.44015  0.81369  1.0000
  Fe  Fe31      1.0  0.08701  0.47516  0.71714  1.0000
  C   C194      1.0  0.10775  0.42203  0.85639  1.0000
  C   C195      1.0  0.01373  0.33916  0.83767  1.0000
  Fe  Fe32      1.0  0.08734  0.48728  0.65784  1.0000
  C   C196      1.0  0.08120  0.38847  0.94723  1.0000
  C   C197      1.0  0.06269  0.38429  0.96126  1.0000
  H   H311      1.0  0.09623  0.31911  0.57921  1.0000
  H   H312      1.0  0.10960  0.30690  0.64883  1.0000
  H   H313      1.0  0.10718  0.39693  0.94965  1.0000
  H   H314      1.0  0.05366  0.38019  0.95131  1.0000
  H   H315      1.0  0.29478  0.24320  0.71344  1.0000
  H   H316      1.0  0.13204  0.28946  0.80505  1.0000
  H   H317      1.0  0.10397  0.31518  0.74990  1.0000
  C   C198      1.0  0.11039  0.30684  0.73621  1.0000
  C   C199      1.0  0.06295  0.43181  0.63900  1.0000
  S   S69       1.0  0.10174  0.48060  0.61801  1.0000
  H   H318      1.0  0.02212  0.37963  0.65798  1.0000
  H   H319      1.0  0.30495  0.28355  0.70282  1.0000
  H   H320      1.0  0.12513  0.32802  0.61239  1.0000
  H   H321      1.0  0.10301  0.40873  0.82884  1.0000
  H   H322      1.0  0.14192  0.30077  0.63067  1.0000
  H   H323      1.0  0.07234  0.28619  0.63047  1.0000
  H   H324      1.0  0.04653  0.44514  0.87036  1.0000
  C   C200      1.0  0.00652  0.31549  0.82931  1.0000
  C   C201      1.0  0.13295  0.29970  0.73667  1.0000
  N   N13       1.0  0.13764  0.28916  0.76283  1.0000
  H   H325      1.0  0.13251  0.29158  0.58332  1.0000
  H   H326      1.0  0.26915  0.25994  0.67038  1.0000
  H   H327      1.0  0.08373  0.27062  0.65455  1.0000
  H   H328      1.0  0.03880  0.43021  0.86055  1.0000
  H   H329      1.0  0.15957  0.29971  0.60064  1.0000
  C   C202      1.0  0.10853  0.32885  0.61882  1.0000
  H   H330      1.0  0.06606  0.46612  0.84276  1.0000
  N   N14       1.0  0.07272  0.42608  0.66332  1.0000
  C   C203      1.0  0.13790  0.24739  0.71759  1.0000
  H   H331      1.0  0.12771  0.40375  0.83648  1.0000
  C   C204      1.0  0.16031  0.28556  0.76068  1.0000
  H   H332      1.0  0.16454  0.28084  0.78074  1.0000
  C   C205      1.0  0.11766  0.25016  0.73139  1.0000
  C   C206      1.0  0.02019  0.47343  0.67498  1.0000
  H   H333      1.0  0.07337  0.42243  0.91251  1.0000
  C   C207      1.0  0.12782  0.29713  0.78606  1.0000
  C   C208      1.0  0.26242  0.25320  0.77381  1.0000
  H   H334      1.0  0.00861  0.45175  0.75005  1.0000
  H   H335      1.0  0.08608  0.31473  0.63911  1.0000
  H   H336      1.0  0.12067  0.26338  0.81034  1.0000
  H   H337      1.0  0.10900  0.31384  0.71569  1.0000
  H   H338      1.0  0.10895  0.29462  0.55981  1.0000
  C   C209      1.0  0.27313  0.25737  0.69039  1.0000
  H   H339      1.0  0.12851  0.32236  0.76608  1.0000
  C   C210      1.0  0.09283  0.39372  0.96037  1.0000
  H   H340      1.0  0.02855  0.39734  0.77881  1.0000
  S   S70       1.0  0.07903  0.38221  0.59555  1.0000
  H   H341      1.0  0.09759  0.44815  0.87686  1.0000
  H   H342      1.0  0.01726  0.38251  0.53479  1.0000
  H   H343      1.0  0.08279  0.30262  0.56013  1.0000
  H   H344      1.0  0.07840  0.29049  0.65910  1.0000
  Fe  Fe33      1.0  0.01253  0.30392  0.73329  1.0000
  C   C211      1.0  0.09398  0.29665  0.57325  1.0000
  H   H345      1.0  0.16661  0.29667  0.75271  1.0000
  C   C212      1.0  0.14573  0.29536  0.61295  1.0000
  H   H346      1.0  0.07105  0.42199  0.84071  1.0000
  H   H347      1.0  0.03488  0.39073  0.62825  1.0000
  N   N15       1.0  0.31185  0.25134  0.67339  1.0000
  H   H348      1.0  0.13741  0.28245  0.67222  1.0000
  N   N16       1.0  0.10750  0.30129  0.61178  1.0000
  H   H349      1.0  0.30132  0.27698  0.66519  1.0000
  H   H350      1.0  0.02202  0.40903  0.74815  1.0000
  H   H351      1.0  0.28783  0.25906  0.78332  1.0000
  H   H352      1.0  0.11276  0.27691  0.76932  1.0000
  Fe  Fe34      1.0  0.06651  0.41857  0.50638  1.0000
  H   H353      1.0  0.14116  0.30982  0.73030  1.0000
  C   C213      1.0  0.00750  0.43932  0.75098  1.0000
  C   C214      1.0  0.13339  0.26158  0.79320  1.0000
  H   H354      1.0  0.30679  0.24021  0.64406  1.0000
  C   C215      1.0  0.08937  0.44583  0.83108  1.0000
  C   C216      1.0  0.31314  0.26787  0.67457  1.0000
  C   C217      1.0  0.11499  0.41379  0.83232  1.0000
  C   C218      1.0  0.08507  0.44158  0.88015  1.0000
  H   H355      1.0  0.02394  0.45722  0.64917  1.0000
  H   H356      1.0  0.13851  0.29306  0.72021  1.0000
  H   H357      1.0  0.00997  0.43810  0.72996  1.0000
  H   H358      1.0  0.10096  0.33553  0.60185  1.0000
  C   C219      1.0  0.04931  0.43221  0.87171  1.0000
  S   S71       1.0  0.23019  0.24596  0.76167  1.0000
  C   C220      1.0  0.10508  0.28486  0.62777  1.0000
  H   H359      1.0  0.01045  0.39969  0.64354  1.0000
  H   H360      1.0  0.16947  0.26164  0.75121  1.0000
  H   H361      1.0  0.07447  0.46734  0.80759  1.0000
  C   C221      1.0  0.32844  0.25496  0.62279  1.0000
  H   H362      1.0  0.10879  0.46081  0.57979  1.0000
  H   H363      1.0  0.18885  0.27317  0.74081  1.0000
  H   H364      1.0  0.07972  0.43760  0.92381  1.0000
  H   H365      1.0  0.27284  0.26865  0.69599  1.0000
  H   H366      1.0  0.29680  0.26086  0.63918  1.0000
  C   C222      1.0  0.17238  0.27388  0.74254  1.0000
  H   H367      1.0  0.12485  0.31814  0.80172  1.0000
  H   H368      1.0  0.10720  0.41225  0.87458  1.0000
  C   C223      1.0  0.09059  0.43425  0.65751  1.0000
  H   H369      1.0  0.07431  0.41268  0.87376  1.0000
  C   C224      1.0  0.25540  0.24202  0.76576  1.0000
  H   H370      1.0  0.25240  0.26423  0.77707  1.0000
  C   C225      1.0  0.28244  0.25027  0.77738  1.0000
  H   H371      1.0  0.10365  0.43352  0.61468  1.0000
  Fe  Fe35      1.0  0.02660  0.41368  0.54271  1.0000
  H   H372      1.0  0.04454  0.42612  0.89288  1.0000
  H   H373      1.0  0.01980  0.43162  0.76099  1.0000
  H   H374      1.0  0.03474  0.47874  0.60547  1.0000
  C   C226      1.0  0.01972  0.38829  0.63909  1.0000
  H   H375      1.0  0.14945  0.28221  0.61963  1.0000
  C   C227      1.0  0.08357  0.28318  0.64367  1.0000
  H   H376      1.0  0.07373  0.42900  0.62069  1.0000
  C   C228      1.0  0.06412  0.47944  0.61141  1.0000
  H   H377      1.0  0.08560  0.44744  0.65287  1.0000
  C   C229      1.0  0.09261  0.46458  0.58564  1.0000
  C   C230      1.0  0.08019  0.40832  0.66843  1.0000
  C   C231      1.0  0.05809  0.43160  0.68700  1.0000
  C   C232      1.0  0.06590  0.42698  0.71361  1.0000
  C   C233      1.0  0.04436  0.42501  0.63982  1.0000
  C   C234      1.0  0.06446  0.39763  0.68362  1.0000
  H   H378      1.0  0.04367  0.42734  0.69144  1.0000
  H   H379      1.0  0.05343  0.44479  0.68227  1.0000
  H   H380      1.0  0.07701  0.43420  0.71329  1.0000
  H   H381      1.0  0.05308  0.42959  0.73018  1.0000
  C   C235      1.0  0.12947  0.27419  0.76762  1.0000
  C   C236      1.0  0.01659  0.40065  0.76658  1.0000
  H   H382      1.0  0.03770  0.43158  0.62197  1.0000
  H   H383      1.0  0.03217  0.42662  0.65742  1.0000
  H   H384      1.0  0.04873  0.41233  0.63842  1.0000
  H   H385      1.0  0.04845  0.40360  0.68539  1.0000
  H   H386      1.0  0.06741  0.39170  0.70405  1.0000
  H   H387      1.0  0.08735  0.40456  0.64907  1.0000
  H   H388      1.0  0.00126  0.38126  0.95633  1.0000
  C   C237      1.0  0.30990  0.25172  0.64522  1.0000
  H   H389      1.0  0.01602  0.38945  0.76135  1.0000
  H   H390      1.0  0.11506  0.41715  0.63843  1.0000
  H   H391      1.0  0.02966  0.33736  0.82627  1.0000
  S   S72       1.0  0.03751  0.43545  0.51681  1.0000
  H   H392      1.0  0.12010  0.42799  0.85667  1.0000
  C   C238      1.0  0.07119  0.42454  0.86023  1.0000
  H   H393      1.0  0.11516  0.28067  0.64268  1.0000
  C   C239      1.0  0.08501  0.47451  0.60410  1.0000
  S   S73       1.0  0.04122  0.45865  0.56852  1.0000
  H   H394      1.0  0.13502  0.26848  0.75010  1.0000
  H   H395      1.0  0.11104  0.29867  0.78966  1.0000
  Fe  Fe36      1.0  0.06546  0.40072  0.56346  1.0000
  C   C240      1.0  0.07069  0.45899  0.82710  1.0000
  H   H396      1.0  0.07736  0.31009  0.60292  1.0000
  H   H397      1.0  0.10097  0.29765  0.74090  1.0000
  H   H398      1.0  0.02242  0.33845  0.87507  1.0000
  C   C241      1.0  0.31219  0.27098  0.70245  1.0000
  H   H399      1.0  0.26093  0.25185  0.70498  1.0000
  H   H400      1.0  0.01004  0.46332  0.53821  1.0000
  S   S74       1.0  0.00536  0.35807  0.91953  1.0000
  H   H401      1.0  0.32763  0.26891  0.70673  1.0000
  C   C242      1.0  0.01079  0.38157  0.62116  1.0000
  H   H402      1.0  0.32755  0.27113  0.66201  1.0000
  H   H403      1.0  0.32824  0.27769  0.84410  1.0000
  H   H404      1.0  0.01093  0.36011  0.58976  1.0000
  H   H405      1.0  0.05817  0.48724  0.62539  1.0000
  H   H406      1.0  0.01044  0.39028  0.60166  1.0000
  H   H407      1.0  0.30279  0.26392  0.71918  1.0000
  H   H408      1.0  0.02219  0.37109  0.61608  1.0000
  H   H409      1.0  0.02313  0.31928  0.87016  1.0000
  C   C243      1.0  0.01439  0.46197  0.66593  1.0000
  C   C244      1.0  0.00030  0.35894  0.78837  1.0000
  C   C245      1.0  0.00754  0.48004  0.69602  1.0000
  H   H410      1.0  0.32943  0.24189  0.72044  1.0000
  H   H411      1.0  0.00595  0.35395  0.65210  1.0000
  H   H412      1.0  0.00902  0.35219  0.83664  1.0000
  H   H413      1.0  0.13486  0.24954  0.78945  1.0000
  H   H414      1.0  0.00623  0.48217  0.51600  1.0000
  H   H415      1.0  0.01266  0.36336  0.79245  1.0000
  C   C246      1.0  0.00141  0.38319  0.53532  1.0000
  H   H416      1.0  0.00231  0.29415  0.82021  1.0000
  H   H417      1.0  0.99941  0.46573  0.50893  1.0000
  C   C247      1.0  0.99964  0.47131  0.52539  1.0000
  H   H418      1.0  0.00058  0.36299  0.76647  1.0000
  H   H419      1.0  0.99968  0.41067  0.80074  1.0000
  H   H420      1.0  0.99906  0.33200  0.88029  1.0000
  N   N17       1.0  0.00014  0.33331  0.82533  1.0000
  H   H421      1.0  0.00468  0.41876  0.48532  1.0000
  H   H422      1.0  0.33219  0.26668  0.62108  1.0000
  C   C248      1.0  0.33094  0.23966  0.67894  1.0000
  C   C249      1.0  0.00047  0.66176  0.03834  1.0000
  S   S75       1.0  0.11169  0.50570  0.17166  1.0000
  Fe  Fe37      1.0  0.11900  0.52130  0.13093  1.0000
  S   S76       1.0  0.10822  0.54783  0.12010  1.0000
  H   H423      1.0  0.09714  0.71523  0.15056  1.0000
  S   S77       1.0  0.10912  0.50669  0.10928  1.0000
  H   H424      1.0  0.08541  0.67455  0.47234  1.0000
  Fe  Fe38      1.0  0.04165  0.63448  0.14063  1.0000
  S   S78       1.0  0.06284  0.62800  0.16936  1.0000
  S   S79       1.0  0.05128  0.63951  0.09585  1.0000
  S   S80       1.0  0.09480  0.73785  0.00186  1.0000
  S   S81       1.0  0.02212  0.62636  0.21757  1.0000
  C   C250      1.0  0.01051  0.56271  0.15974  1.0000
  Fe  Fe39      1.0  0.03976  0.64491  0.19177  1.0000
  S   S82       1.0  0.04855  0.66457  0.20376  1.0000
  Fe  Fe40      1.0  0.04357  0.61004  0.19240  1.0000
  S   S83       1.0  0.05698  0.58482  0.20986  1.0000
  S   S84       1.0  0.02003  0.65288  0.16095  1.0000
  S   S85       1.0  0.02432  0.61504  0.16163  1.0000
  Fe  Fe41      1.0  0.07972  0.71777  0.02733  1.0000
  H   H425      1.0  0.02982  0.70667  0.98992  1.0000
  S   S86       1.0  0.09404  0.69897  0.05857  1.0000
  C   C251      1.0  0.12415  0.73717  0.36608  1.0000
  Fe  Fe42      1.0  0.06064  0.67786  0.33396  1.0000
  S   S87       1.0  0.04849  0.70126  0.30929  1.0000
  S   S88       1.0  0.05934  0.65514  0.32324  1.0000
  Fe  Fe43      1.0  0.07080  0.69352  0.37361  1.0000
  S   S89       1.0  0.05887  0.71820  0.35215  1.0000
  S   S90       1.0  0.08590  0.68675  0.40974  1.0000
  Fe  Fe44      1.0  0.03344  0.70758  0.34886  1.0000
  N   N18       1.0  0.12739  0.59646  0.13259  1.0000
  Fe  Fe45      1.0  0.07501  0.70933  0.31473  1.0000
  S   S91       1.0  0.09528  0.72170  0.27948  1.0000
  S   S92       1.0  0.04389  0.68359  0.37367  1.0000
  S   S93       1.0  0.08868  0.68531  0.33619  1.0000
  H   H426      1.0  0.09528  0.60263  0.13186  1.0000
  H   H427      1.0  0.02922  0.58047  0.15602  1.0000
  C   C252      1.0  0.00659  0.68894  0.26322  1.0000
  H   H428      1.0  0.10504  0.71717  0.33356  1.0000
  C   C253      1.0  0.12203  0.58757  0.16122  1.0000
  S   S94       1.0  0.00053  0.71891  0.35220  1.0000
  C   C254      1.0  0.05345  0.66087  0.23631  1.0000
  C   C255      1.0  0.04907  0.64729  0.25553  1.0000
  C   C256      1.0  0.05132  0.64544  0.28208  1.0000
  C   C257      1.0  0.05794  0.65714  0.28949  1.0000
  C   C258      1.0  0.06304  0.67040  0.26998  1.0000
  C   C259      1.0  0.06080  0.67225  0.24347  1.0000
  H   H429      1.0  0.04353  0.63840  0.25014  1.0000
  H   H430      1.0  0.04757  0.63508  0.29705  1.0000
  H   H431      1.0  0.06882  0.67919  0.27529  1.0000
  H   H432      1.0  0.06449  0.68266  0.22862  1.0000
  C   C260      1.0  0.06413  0.65548  0.08502  1.0000
  C   C261      1.0  0.07221  0.66005  0.10309  1.0000
  C   C262      1.0  0.08223  0.67296  0.09445  1.0000
  C   C263      1.0  0.08324  0.68188  0.06813  1.0000
  C   C264      1.0  0.07533  0.67723  0.04998  1.0000
  C   C265      1.0  0.06613  0.66384  0.05829  1.0000
  H   H433      1.0  0.07093  0.65357  0.12367  1.0000
  H   H434      1.0  0.08892  0.67616  0.10830  1.0000
  H   H435      1.0  0.07663  0.68375  0.02943  1.0000
  H   H436      1.0  0.06032  0.66012  0.04410  1.0000
  H   H437      1.0  0.09517  0.62554  0.09451  1.0000
  S   S95       1.0  0.06697  0.71408  0.99458  1.0000
  C   C266      1.0  0.14270  0.72870  0.29454  1.0000
  H   H438      1.0  0.15414  0.72246  0.37224  1.0000
  N   N19       1.0  0.07283  0.72307  0.12788  1.0000
  H   H439      1.0  0.16234  0.58642  0.15483  1.0000
  C   C267      1.0  0.00004  0.69387  0.07543  1.0000
  H   H440      1.0  0.06081  0.69658  0.47054  1.0000
  H   H441      1.0  0.03694  0.56949  0.12964  1.0000
  H   H442      1.0  0.07454  0.49553  0.20296  1.0000
  C   C268      1.0  0.08844  0.72657  0.43283  1.0000
  C   C269      1.0  0.08328  0.71643  0.41996  1.0000
  C   C270      1.0  0.09302  0.70048  0.42299  1.0000
  H   H443      1.0  0.00951  0.66368  0.27968  1.0000
  H   H444      1.0  0.06418  0.68380  0.14808  1.0000
  H   H445      1.0  0.12696  0.60450  0.18226  1.0000
  H   H446      1.0  0.07146  0.72084  0.40830  1.0000
  H   H447      1.0  0.10236  0.71702  0.36769  1.0000
  H   H448      1.0  0.04977  0.55282  0.16639  1.0000
  H   H449      1.0  0.17456  0.59123  0.11995  1.0000
  C   C271      1.0  0.07049  0.57417  0.18513  1.0000
  C   C272      1.0  0.08172  0.55887  0.19247  1.0000
  C   C273      1.0  0.09312  0.55050  0.17269  1.0000
  C   C274      1.0  0.09314  0.55738  0.14555  1.0000
  C   C275      1.0  0.08161  0.57255  0.13831  1.0000
  C   C276      1.0  0.07034  0.58093  0.15803  1.0000
  H   H450      1.0  0.08191  0.55361  0.21344  1.0000
  H   H451      1.0  0.10223  0.53891  0.17841  1.0000
  H   H452      1.0  0.08157  0.57793  0.11733  1.0000
  H   H453      1.0  0.06182  0.59273  0.15215  1.0000
  H   H454      1.0  0.99980  0.69108  0.28360  1.0000
  H   H455      1.0  0.07141  0.50778  0.07953  1.0000
  H   H456      1.0  0.07771  0.72933  0.08446  1.0000
  H   H457      1.0  0.12010  0.69159  0.36077  1.0000
  H   H458      1.0  0.11462  0.72737  0.10934  1.0000
  C   C277      1.0  0.03972  0.54390  0.17408  1.0000
  C   C278      1.0  0.10810  0.69487  0.43847  1.0000
  H   H459      1.0  0.01130  0.72378  0.18939  1.0000
  C   C279      1.0  0.12875  0.70135  0.35160  1.0000
  H   H460      1.0  0.13943  0.70019  0.36474  1.0000
  C   C280      1.0  0.07432  0.70593  0.12705  1.0000
  Fe  Fe46      1.0  0.04021  0.73213  0.00807  1.0000
  H   H461      1.0  0.11160  0.60896  0.08290  1.0000
  C   C281      1.0  0.10974  0.61717  0.09639  1.0000
  Fe  Fe47      1.0  0.14096  0.49319  0.10523  1.0000
  H   H462      1.0  0.00632  0.64178  0.09527  1.0000
  Fe  Fe48      1.0  0.10427  0.49021  0.14935  1.0000
  H   H463      1.0  0.00663  0.68900  0.21097  1.0000
  H   H464      1.0  0.11310  0.58965  0.20291  1.0000
  H   H465      1.0  0.09744  0.73806  0.16331  1.0000
  S   S96       1.0  0.15165  0.50934  0.12300  1.0000
  H   H466      1.0  0.04336  0.72764  0.15360  1.0000
  H   H467      1.0  0.01375  0.68672  0.34491  1.0000
  H   H468      1.0  0.03668  0.66089  0.47506  1.0000
  C   C282      1.0  0.11294  0.70488  0.45171  1.0000
  H   H469      1.0  0.01124  0.53038  0.21269  1.0000
  C   C283      1.0  0.00226  0.67262  0.26399  1.0000
  C   C284      1.0  0.14407  0.60553  0.12858  1.0000
  C   C285      1.0  0.12403  0.49519  0.26145  1.0000
  C   C286      1.0  0.11538  0.59769  0.18276  1.0000
  H   H470      1.0  0.15380  0.72071  0.33143  1.0000
  H   H471      1.0  0.06840  0.69424  0.17017  1.0000
  H   H472      1.0  0.04241  0.49290  0.09652  1.0000
  C   C287      1.0  0.13858  0.72561  0.38355  1.0000
  C   C288      1.0  0.08207  0.72327  0.15089  1.0000
  H   H473      1.0  0.14829  0.61122  0.10703  1.0000
  H   H474      1.0  0.00014  0.73333  0.27259  1.0000
  C   C289      1.0  0.99971  0.71949  0.00162  1.0000
  H   H475      1.0  0.12170  0.62446  0.08920  1.0000
  C   C290      1.0  0.01396  0.70788  0.99001  1.0000
  C   C291      1.0  0.02370  0.57501  0.14316  1.0000
  H   H476      1.0  0.11890  0.58255  0.11016  1.0000
  C   C292      1.0  0.06243  0.69589  0.15173  1.0000
  C   C293      1.0  0.11369  0.71739  0.34867  1.0000
  H   H477      1.0  0.16012  0.56923  0.12754  1.0000
  H   H478      1.0  0.04599  0.70076  0.15525  1.0000
  H   H479      1.0  0.04877  0.53504  0.21368  1.0000
  Fe  Fe49      1.0  0.14351  0.49227  0.16186  1.0000
  C   C294      1.0  0.04786  0.66803  0.47484  1.0000
  C   C295      1.0  0.14578  0.56863  0.12267  1.0000
  H   H480      1.0  0.14091  0.59060  0.09365  1.0000
  H   H481      1.0  0.01268  0.65745  0.02235  1.0000
  H   H482      1.0  0.10963  0.58117  0.16324  1.0000
  H   H483      1.0  0.03190  0.69165  0.05367  1.0000
  C   C296      1.0  0.00821  0.67277  0.05032  1.0000
  H   H484      1.0  0.09027  0.69947  0.12491  1.0000
  H   H485      1.0  0.13885  0.61585  0.13856  1.0000
  H   H486      1.0  0.13739  0.69907  0.33183  1.0000
  C   C297      1.0  0.02263  0.69398  0.07314  1.0000
  H   H487      1.0  0.04064  0.53849  0.15680  1.0000
  C   C298      1.0  0.07634  0.50093  0.06335  1.0000
  H   H488      1.0  0.13460  0.57803  0.16743  1.0000
  H   H489      1.0  0.11330  0.50623  0.25475  1.0000
  C   C299      1.0  0.99947  0.66648  0.10015  1.0000
  H   H490      1.0  0.00899  0.71312  0.28699  1.0000
  C   C300      1.0  0.00489  0.71737  0.24533  1.0000
  H   H491      1.0  0.02162  0.71652  0.23935  1.0000
  H   H492      1.0  0.13712  0.56119  0.13993  1.0000
  C   C301      1.0  0.10302  0.72074  0.44918  1.0000
  H   H493      1.0  0.01074  0.68314  0.03353  1.0000
  C   C302      1.0  0.13285  0.58513  0.11374  1.0000
  C   C303      1.0  0.08396  0.73083  0.10106  1.0000
  H   H494      1.0  0.12197  0.49311  0.28350  1.0000
  H   H495      1.0  0.14972  0.56220  0.10601  1.0000
  H   H496      1.0  0.04242  0.72596  0.12098  1.0000
  Fe  Fe50      1.0  0.00435  0.63287  0.18460  1.0000
  H   H497      1.0  0.00354  0.58531  0.19132  1.0000
  H   H498      1.0  0.02410  0.70605  0.07390  1.0000
  H   H499      1.0  0.02351  0.66662  0.05427  1.0000
  H   H500      1.0  0.11130  0.71223  0.09403  1.0000
  C   C304      1.0  0.10873  0.60841  0.12606  1.0000
  H   H501      1.0  0.10063  0.60576  0.18117  1.0000
  H   H502      1.0  0.11329  0.73159  0.07470  1.0000
  H   H503      1.0  0.12440  0.70030  0.46383  1.0000
  C   C305      1.0  0.16415  0.59609  0.13685  1.0000
  H   H504      1.0  0.13952  0.49756  0.25225  1.0000
  H   H505      1.0  0.02909  0.68555  0.08992  1.0000
  C   C306      1.0  0.00399  0.71364  0.19113  1.0000
  H   H506      1.0  0.04347  0.68000  0.46236  1.0000
  H   H507      1.0  0.01469  0.58469  0.13028  1.0000
  H   H508      1.0  0.17159  0.60419  0.14248  1.0000
  H   H509      1.0  0.04366  0.51983  0.20007  1.0000
  H   H510      1.0  0.02317  0.68770  0.26129  1.0000
  H   H511      1.0  0.06279  0.66223  0.46493  1.0000
  H   H512      1.0  0.07293  0.71817  0.17038  1.0000
  H   H513      1.0  0.10503  0.61788  0.13775  1.0000
  C   C307      1.0  0.10707  0.72497  0.09491  1.0000
  N   N20       1.0  0.01821  0.55175  0.18380  1.0000
  H   H514      1.0  0.06430  0.50382  0.05153  1.0000
  C   C308      1.0  0.04988  0.53088  0.19514  1.0000
  C   C309      1.0  0.01802  0.56037  0.20521  1.0000
  S   S97       1.0  0.10837  0.73325  0.46671  1.0000
  H   H515      1.0  0.01590  0.66400  0.10028  1.0000
  C   C310      1.0  0.05063  0.73070  0.13205  1.0000
  H   H516      1.0  0.15846  0.72479  0.28431  1.0000
  H   H517      1.0  0.13231  0.71482  0.39445  1.0000
  H   H518      1.0  0.01724  0.55210  0.22523  1.0000
  H   H519      1.0  0.03245  0.56464  0.20169  1.0000
  H   H520      1.0  0.06893  0.70522  0.10916  1.0000
  C   C311      1.0  0.14274  0.73082  0.32275  1.0000
  H   H521      1.0  0.08970  0.50512  0.04920  1.0000
  H   H522      1.0  0.06623  0.52759  0.18657  1.0000
  H   H523      1.0  0.11588  0.68261  0.44066  1.0000
  H   H524      1.0  0.02615  0.69764  0.21297  1.0000
  S   S98       1.0  0.00704  0.73211  0.01642  1.0000
  N   N21       1.0  0.12237  0.73238  0.34134  1.0000
  H   H525      1.0  0.00859  0.66860  0.24489  1.0000
  C   C312      1.0  0.00587  0.53879  0.19499  1.0000
  H   H526      1.0  0.00967  0.70940  0.17207  1.0000
  H   H527      1.0  0.08066  0.73883  0.43085  1.0000
  H   H528      1.0  0.00161  0.57905  0.22658  1.0000
  H   H529      1.0  0.13386  0.71967  0.29532  1.0000
  C   C313      1.0  0.00114  0.57512  0.20837  1.0000
  H   H530      1.0  0.00899  0.55574  0.14574  1.0000
  S   S99       1.0  0.05171  0.73380  0.04308  1.0000
  C   C314      1.0  0.00940  0.69993  0.21473  1.0000
  H   H531      1.0  0.13972  0.73139  0.39938  1.0000
  H   H532      1.0  0.00773  0.53156  0.17979  1.0000
  H   H533      1.0  0.10926  0.73873  0.37999  1.0000
  H   H534      1.0  0.23574  0.65288  0.55745  1.0000
  H   H535      1.0  0.06871  0.69807  0.91737  1.0000
  H   H536      1.0  0.02230  0.70274  0.92446  1.0000
  H   H537      1.0  0.05792  0.70935  0.52066  1.0000
  H   H538      1.0  0.29205  0.71701  0.71510  1.0000
  S   S100      1.0  0.06445  0.50933  0.66376  1.0000
  H   H539      1.0  0.06780  0.69204  0.87684  1.0000
  H   H540      1.0  0.06918  0.64178  0.79142  1.0000
  Fe  Fe51      1.0  0.08233  0.51072  0.69332  1.0000
  S   S101      1.0  0.08577  0.53517  0.69566  1.0000
  C   C315      1.0  0.09454  0.69692  0.66571  1.0000
  S   S102      1.0  0.01462  0.49427  0.70782  1.0000
  Fe  Fe52      1.0  0.11889  0.68968  0.54549  1.0000
  S   S103      1.0  0.09559  0.71201  0.54115  1.0000
  S   S104      1.0  0.11278  0.66540  0.54999  1.0000
  C   C316      1.0  0.18851  0.63074  0.57185  1.0000
  S   S105      1.0  0.14125  0.69802  0.50922  1.0000
  S   S106      1.0  0.13288  0.69647  0.57391  1.0000
  S   S107      1.0  0.14419  0.66679  0.80886  1.0000
  Fe  Fe53      1.0  0.16226  0.58861  0.67964  1.0000
  S   S108      1.0  0.13676  0.59775  0.71056  1.0000
  S   S109      1.0  0.16564  0.56365  0.67328  1.0000
  Fe  Fe54      1.0  0.17944  0.61946  0.66410  1.0000
  S   S110      1.0  0.15486  0.63097  0.69324  1.0000
  S   S111      1.0  0.20077  0.63491  0.63581  1.0000
  Fe  Fe55      1.0  0.15990  0.60738  0.72146  1.0000
  S   S112      1.0  0.16127  0.60410  0.76476  1.0000
  Fe  Fe56      1.0  0.13419  0.62033  0.67941  1.0000
  S   S113      1.0  0.10386  0.63452  0.67306  1.0000
  S   S114      1.0  0.18612  0.59630  0.69328  1.0000
  S   S115      1.0  0.15810  0.61076  0.64743  1.0000
  S   S116      1.0  0.27409  0.70892  0.61643  1.0000
  S   S117      1.0  0.27604  0.70112  0.68025  1.0000
  Fe  Fe57      1.0  0.26396  0.69094  0.65358  1.0000
  S   S118      1.0  0.26729  0.66423  0.66063  1.0000
  S   S119      1.0  0.23225  0.70436  0.66239  1.0000
  H   H541      1.0  0.18287  0.69035  0.69424  1.0000
  C   C317      1.0  0.21751  0.64344  0.64573  1.0000
  C   C318      1.0  0.21945  0.65925  0.63369  1.0000
  C   C319      1.0  0.23415  0.66592  0.63893  1.0000
  C   C320      1.0  0.24748  0.65666  0.65560  1.0000
  C   C321      1.0  0.24538  0.64091  0.66792  1.0000
  C   C322      1.0  0.23026  0.63438  0.66332  1.0000
  H   H542      1.0  0.20979  0.66632  0.61987  1.0000
  H   H543      1.0  0.23575  0.67800  0.62917  1.0000
  H   H544      1.0  0.25569  0.63366  0.68074  1.0000
  H   H545      1.0  0.22910  0.62212  0.67239  1.0000
  C   C323      1.0  0.14733  0.64946  0.79700  1.0000
  C   C324      1.0  0.14092  0.64983  0.77355  1.0000
  C   C325      1.0  0.14509  0.63594  0.76346  1.0000
  C   C326      1.0  0.15548  0.62169  0.77691  1.0000
  C   C327      1.0  0.16146  0.62133  0.80060  1.0000
  C   C328      1.0  0.15754  0.63519  0.81049  1.0000
  H   H546      1.0  0.13307  0.66085  0.76298  1.0000
  H   H547      1.0  0.14017  0.63627  0.74541  1.0000
  H   H548      1.0  0.16944  0.61036  0.81112  1.0000
  H   H549      1.0  0.16257  0.63489  0.82856  1.0000
  C   C329      1.0  0.10861  0.65667  0.58415  1.0000
  C   C330      1.0  0.10058  0.66619  0.60307  1.0000
  C   C331      1.0  0.09844  0.65925  0.63051  1.0000
  C   C332      1.0  0.10501  0.64289  0.63892  1.0000
  C   C333      1.0  0.11289  0.63335  0.61998  1.0000
  C   C334      1.0  0.11430  0.64022  0.59257  1.0000
  H   H550      1.0  0.09603  0.67891  0.59659  1.0000
  H   H551      1.0  0.09225  0.66661  0.64514  1.0000
  H   H552      1.0  0.11775  0.62068  0.62652  1.0000
  H   H553      1.0  0.12038  0.63287  0.57789  1.0000
  Fe  Fe58      1.0  0.24485  0.71569  0.68647  1.0000
  H   H554      1.0  0.16000  0.73783  0.83775  1.0000
  H   H555      1.0  0.05892  0.66113  0.87004  1.0000
  H   H556      1.0  0.18382  0.65287  0.76539  1.0000
  C   C335      1.0  0.10834  0.54262  0.68921  1.0000
  C   C336      1.0  0.10684  0.55885  0.68800  1.0000
  C   C337      1.0  0.12429  0.56542  0.68282  1.0000
  C   C338      1.0  0.14347  0.55580  0.67879  1.0000
  C   C339      1.0  0.14502  0.53958  0.67969  1.0000
  C   C340      1.0  0.12752  0.53298  0.68498  1.0000
  H   H557      1.0  0.09207  0.56640  0.69112  1.0000
  H   H558      1.0  0.12286  0.57795  0.68190  1.0000
  H   H559      1.0  0.15981  0.53206  0.67664  1.0000
  H   H560      1.0  0.12886  0.52044  0.68607  1.0000
  H   H561      1.0  0.16631  0.67051  0.55900  1.0000
  H   H562      1.0  0.20207  0.64029  0.52087  1.0000
  H   H563      1.0  0.25083  0.66877  0.74338  1.0000
  H   H564      1.0  0.20972  0.64482  0.76065  1.0000
  H   H565      1.0  0.20197  0.66739  0.55500  1.0000
  C   C341      1.0  0.20333  0.65445  0.56354  1.0000
  C   C342      1.0  0.03979  0.68318  0.55249  1.0000
  C   C343      1.0  0.19147  0.71762  0.75436  1.0000
  H   H566      1.0  0.12126  0.72470  0.70167  1.0000
  C   C344      1.0  0.16672  0.65767  0.56801  1.0000
  C   C345      1.0  0.32335  0.73810  0.65316  1.0000
  H   H567      1.0  0.14512  0.66311  0.60364  1.0000
  H   H568      1.0  0.16021  0.71695  0.77241  1.0000
  H   H569      1.0  0.22861  0.63395  0.56558  1.0000
  H   H570      1.0  0.16045  0.64397  0.61011  1.0000
  C   C346      1.0  0.22524  0.64630  0.55387  1.0000
  H   H571      1.0  0.20621  0.66885  0.51018  1.0000
  N   N22       1.0  0.06187  0.67823  0.50698  1.0000
  H   H572      1.0  0.23911  0.65224  0.74953  1.0000
  S   S120      1.0  0.11946  0.71073  0.80280  1.0000
  C   C347      1.0  0.17109  0.62284  0.57148  1.0000
  H   H573      1.0  0.04336  0.66864  0.93658  1.0000
  N   N23       1.0  0.18693  0.64802  0.55796  1.0000
  H   H574      1.0  0.18965  0.62899  0.59311  1.0000
  H   H575      1.0  0.04941  0.70929  0.93790  1.0000
  H   H576      1.0  0.11471  0.71434  0.89137  1.0000
  C   C348      1.0  0.11649  0.52268  0.62624  1.0000
  H   H577      1.0  0.19553  0.65084  0.80564  1.0000
  C   C349      1.0  0.16071  0.65632  0.59870  1.0000
  H   H578      1.0  0.18208  0.68797  0.75412  1.0000
  H   H579      1.0  0.17553  0.64651  0.52405  1.0000
  H   H580      1.0  0.15431  0.65463  0.56148  1.0000
  C   C350      1.0  0.21425  0.72650  0.57999  1.0000
  H   H581      1.0  0.22869  0.64644  0.53213  1.0000
  C   C351      1.0  0.18303  0.69500  0.71178  1.0000
  C   C352      1.0  0.17320  0.72422  0.63946  1.0000
  H   H582      1.0  0.17444  0.61004  0.58126  1.0000
  H   H583      1.0  0.16929  0.62354  0.55084  1.0000
  H   H584      1.0  0.12716  0.71335  0.66218  1.0000
  H   H585      1.0  0.09137  0.55214  0.58263  1.0000
  H   H586      1.0  0.15656  0.62801  0.58314  1.0000
  C   C353      1.0  0.07750  0.54843  0.62463  1.0000
  H   H587      1.0  0.20269  0.62350  0.56270  1.0000
  C   C354      1.0  0.12125  0.55025  0.61297  1.0000
  N   N24       1.0  0.06159  0.65167  0.73767  1.0000
  C   C355      1.0  0.07660  0.63618  0.74084  1.0000
  C   C356      1.0  0.04060  0.64809  0.74361  1.0000
  C   C357      1.0  0.06262  0.66137  0.75678  1.0000
  C   C358      1.0  0.06668  0.66102  0.70932  1.0000
  C   C359      1.0  0.09850  0.63743  0.74040  1.0000
  C   C360      1.0  0.03644  0.63930  0.72431  1.0000
  C   C361      1.0  0.05880  0.65332  0.78686  1.0000
  C   C362      1.0  0.05113  0.67612  0.70083  1.0000
  H   H588      1.0  0.07154  0.62776  0.75972  1.0000
  H   H589      1.0  0.07758  0.62999  0.72457  1.0000
  H   H590      1.0  0.02896  0.65917  0.74405  1.0000
  H   H591      1.0  0.03737  0.64043  0.76398  1.0000
  H   H592      1.0  0.07757  0.66501  0.75190  1.0000
  H   H593      1.0  0.05141  0.67269  0.75472  1.0000
  H   H594      1.0  0.08140  0.66486  0.70577  1.0000
  H   H595      1.0  0.06882  0.65351  0.69458  1.0000
  H   H596      1.0  0.09976  0.64115  0.75838  1.0000
  H   H597      1.0  0.10836  0.62553  0.74041  1.0000
  H   H598      1.0  0.10481  0.64560  0.72209  1.0000
  H   H599      1.0  0.02046  0.63764  0.73039  1.0000
  H   H600      1.0  0.03840  0.64607  0.70322  1.0000
  H   H601      1.0  0.04606  0.62729  0.72525  1.0000
  H   H602      1.0  0.11293  0.55169  0.63340  1.0000
  H   H603      1.0  0.21783  0.68296  0.75038  1.0000
  N   N25       1.0  0.03923  0.68584  0.89979  1.0000
  H   H604      1.0  0.03654  0.67334  0.70025  1.0000
  H   H605      1.0  0.05724  0.68221  0.68013  1.0000
  H   H606      1.0  0.04837  0.68479  0.71370  1.0000
  H   H607      1.0  0.24795  0.66175  0.71548  1.0000
  C   C363      1.0  0.17056  0.72294  0.75632  1.0000
  H   H608      1.0  0.07037  0.67418  0.90151  1.0000
  Fe  Fe59      1.0  0.12088  0.72226  0.75950  1.0000
  H   H609      1.0  0.17904  0.67515  0.51535  1.0000
  Fe  Fe60      1.0  0.11887  0.72096  0.50598  1.0000
  C   C364      1.0  0.16032  0.69566  0.62998  1.0000
  H   H610      1.0  0.13762  0.71478  0.61452  1.0000
  H   H611      1.0  0.22305  0.68449  0.71581  1.0000
  H   H612      1.0  0.05042  0.65635  0.51590  1.0000
  C   C365      1.0  0.09306  0.72196  0.63294  1.0000
  Fe  Fe61      1.0  0.28284  0.72066  0.64436  1.0000
  H   H613      1.0  0.21860  0.65127  0.71365  1.0000
  C   C366      1.0  0.06537  0.67204  0.86385  1.0000
  H   H614      1.0  0.29016  0.70794  0.74972  1.0000
  S   S121      1.0  0.08431  0.69416  0.72019  1.0000
  H   H615      1.0  0.05991  0.67976  0.84574  1.0000
  C   C367      1.0  0.08818  0.70504  0.68679  1.0000
  H   H616      1.0  0.17370  0.66403  0.70897  1.0000
  S   S122      1.0  0.09052  0.68874  0.79403  1.0000
  H   H617      1.0  0.10771  0.51412  0.62457  1.0000
  H   H618      1.0  0.14816  0.52119  0.62963  1.0000
  C   C368      1.0  0.18911  0.64926  0.52827  1.0000
  H   H619      1.0  0.08314  0.64674  0.49717  1.0000
  S   S123      1.0  0.06303  0.72136  0.83793  1.0000
  H   H620      1.0  0.15051  0.69080  0.64895  1.0000
  H   H621      1.0  0.04613  0.64887  0.91359  1.0000
  S   S124      1.0  0.13325  0.73100  0.53059  1.0000
  H   H622      1.0  0.19151  0.64990  0.69243  1.0000
  H   H623      1.0  0.02698  0.68180  0.86817  1.0000
  Fe  Fe62      1.0  0.15345  0.70696  0.53711  1.0000
  H   H624      1.0  0.05274  0.68816  0.94637  1.0000
  C   C369      1.0  0.13951  0.71857  0.66447  1.0000
  C   C370      1.0  0.21924  0.70991  0.58438  1.0000
  C   C371      1.0  0.12893  0.73084  0.68203  1.0000
  S   S125      1.0  0.09670  0.73295  0.59953  1.0000
  C   C372      1.0  0.11905  0.56690  0.59427  1.0000
  C   C373      1.0  0.09950  0.71999  0.88851  1.0000
  H   H625      1.0  0.21486  0.68889  0.57487  1.0000
  C   C374      1.0  0.29217  0.71919  0.73486  1.0000
  C   C375      1.0  0.19675  0.71000  0.55523  1.0000
  H   H626      1.0  0.07224  0.68258  0.53989  1.0000
  H   H627      1.0  0.03045  0.69290  0.54029  1.0000
  S   S126      1.0  0.09839  0.73508  0.92806  1.0000
  C   C376      1.0  0.17618  0.73522  0.65586  1.0000
  C   C377      1.0  0.13832  0.51358  0.62766  1.0000
  C   C378      1.0  0.04758  0.66874  0.50397  1.0000
  C   C379      1.0  0.21072  0.70170  0.57171  1.0000
  H   H628      1.0  0.16302  0.71670  0.59958  1.0000
  C   C380      1.0  0.05308  0.69852  0.92928  1.0000
  C   C381      1.0  0.06072  0.67688  0.53645  1.0000
  H   H629      1.0  0.14889  0.70870  0.67666  1.0000
  C   C382      1.0  0.06039  0.73459  0.88078  1.0000
  C   C383      1.0  0.09289  0.54261  0.60095  1.0000
  H   H630      1.0  0.18116  0.73306  0.53797  1.0000
  H   H631      1.0  0.08756  0.53254  0.59750  1.0000
  H   H632      1.0  0.12579  0.54588  0.56222  1.0000
  S   S127      1.0  0.30852  0.73475  0.63275  1.0000
  C   C384      1.0  0.20065  0.73479  0.56301  1.0000
  H   H633      1.0  0.10336  0.57177  0.59105  1.0000
  H   H634      1.0  0.07784  0.53941  0.64353  1.0000
  Fe  Fe63      1.0  0.09514  0.70193  0.75085  1.0000
  N   N26       1.0  0.15641  0.55492  0.76871  1.0000
  C   C385      1.0  0.17424  0.56299  0.75501  1.0000
  C   C386      1.0  0.14133  0.56608  0.78464  1.0000
  C   C387      1.0  0.14747  0.55235  0.74702  1.0000
  C   C388      1.0  0.16406  0.53928  0.78615  1.0000
  C   C389      1.0  0.19115  0.55415  0.73595  1.0000
  C   C390      1.0  0.14780  0.56853  0.80913  1.0000
  C   C391      1.0  0.12517  0.55035  0.75428  1.0000
  C   C392      1.0  0.14807  0.52984  0.80470  1.0000
  H   H635      1.0  0.16907  0.57501  0.74305  1.0000
  H   H636      1.0  0.18180  0.56502  0.76982  1.0000
  H   H637      1.0  0.12660  0.56217  0.79258  1.0000
  H   H638      1.0  0.13761  0.57801  0.77138  1.0000
  H   H639      1.0  0.14818  0.56257  0.72949  1.0000
  H   H640      1.0  0.15652  0.54179  0.73900  1.0000
  H   H641      1.0  0.17413  0.53107  0.77354  1.0000
  H   H642      1.0  0.17410  0.54073  0.79860  1.0000
  H   H643      1.0  0.18555  0.55189  0.71956  1.0000
  H   H644      1.0  0.20267  0.56175  0.72617  1.0000
  H   H645      1.0  0.19912  0.54287  0.74688  1.0000
  H   H646      1.0  0.16162  0.57373  0.80360  1.0000
  H   H647      1.0  0.13562  0.57715  0.81874  1.0000
  H   H648      1.0  0.14991  0.55735  0.82449  1.0000
  H   H649      1.0  0.12153  0.54162  0.77309  1.0000
  H   H650      1.0  0.12183  0.54602  0.73813  1.0000
  H   H651      1.0  0.11481  0.56197  0.75529  1.0000
  H   H652      1.0  0.14449  0.52177  0.79423  1.0000
  H   H653      1.0  0.13393  0.53740  0.81277  1.0000
  H   H654      1.0  0.15411  0.52253  0.82267  1.0000
  H   H655      1.0  0.18032  0.71210  0.64889  1.0000
  N   N27       1.0  0.11457  0.53761  0.60454  1.0000
  Fe  Fe64      1.0  0.24283  0.72295  0.62716  1.0000
  H   H656      1.0  0.10196  0.69893  0.62282  1.0000
  H   H657      1.0  0.20984  0.66989  0.69403  1.0000
  H   H658      1.0  0.03111  0.67343  0.56173  1.0000
  C   C393      1.0  0.19180  0.66560  0.50998  1.0000
  C   C394      1.0  0.09707  0.70533  0.63887  1.0000
  Fe  Fe65      1.0  0.11179  0.71982  0.56616  1.0000
  H   H659      1.0  0.19720  0.70761  0.76909  1.0000
  H   H660      1.0  0.18396  0.64480  0.72791  1.0000
  H   H661      1.0  0.21493  0.66205  0.78869  1.0000
  H   H662      1.0  0.19562  0.70154  0.70712  1.0000
  H   H663      1.0  0.13805  0.50372  0.64564  1.0000
  H   H664      1.0  0.32515  0.71491  0.67926  1.0000
  Fe  Fe66      1.0  0.07993  0.73543  0.96984  1.0000
  C   C395      1.0  0.12769  0.53488  0.57812  1.0000
  S   S128      1.0  0.18656  0.69951  0.53919  1.0000
  H   H665      1.0  0.18846  0.67150  0.79196  1.0000
  H   H666      1.0  0.18306  0.72648  0.61944  1.0000
  H   H667      1.0  0.06199  0.55070  0.62053  1.0000
  H   H668      1.0  0.16894  0.70397  0.71489  1.0000
  Fe  Fe67      1.0  0.12361  0.68793  0.78970  1.0000
  C   C396      1.0  0.00289  0.69592  0.89056  1.0000
  C   C397      1.0  0.06106  0.68126  0.88639  1.0000
  H   H669      1.0  0.20173  0.65346  0.58531  1.0000
  H   H670      1.0  0.08152  0.70408  0.49819  1.0000
  H   H671      1.0  0.09775  0.68407  0.67011  1.0000
  C   C398      1.0  0.20489  0.72477  0.73271  1.0000
  H   H672      1.0  0.30720  0.72141  0.73494  1.0000
  Fe  Fe68      1.0  0.08655  0.71259  0.80404  1.0000
  H   H673      1.0  0.17067  0.66154  0.60614  1.0000
  N   N28       1.0  0.15187  0.72456  0.63731  1.0000
  H   H674      1.0  0.12964  0.56697  0.57470  1.0000
  C   C399      1.0  0.05602  0.69530  0.49270  1.0000
  S   S129      1.0  0.12868  0.69919  0.74600  1.0000
  N   N29       1.0  0.20210  0.66877  0.73700  1.0000
  C   C400      1.0  0.18364  0.68186  0.73759  1.0000
  C   C401      1.0  0.19880  0.65615  0.76227  1.0000
  C   C402      1.0  0.20548  0.66137  0.71316  1.0000
  C   C403      1.0  0.22031  0.67573  0.73505  1.0000
  C   C404      1.0  0.19957  0.66061  0.78840  1.0000
  C   C405      1.0  0.18748  0.65476  0.71084  1.0000
  C   C406      1.0  0.24059  0.66385  0.73581  1.0000
  H   H675      1.0  0.16953  0.67695  0.74237  1.0000
  H   H676      1.0  0.04287  0.65176  0.79437  1.0000
  C   C407      1.0  0.16315  0.73602  0.73754  1.0000
  C   C408      1.0  0.08422  0.72166  0.68091  1.0000
  H   H677      1.0  0.12305  0.57523  0.60382  1.0000
  S   S130      1.0  0.23080  0.71706  0.72921  1.0000
  H   H678      1.0  0.15990  0.68903  0.61498  1.0000
  C   C409      1.0  0.08652  0.73008  0.65404  1.0000
  C   C410      1.0  0.19167  0.72657  0.55099  1.0000
  H   H679      1.0  0.17629  0.69303  0.63243  1.0000
  H   H680      1.0  0.04189  0.68823  0.56866  1.0000
  H   H681      1.0  0.11778  0.51196  0.58271  1.0000
  C   C411      1.0  0.09195  0.71706  0.86821  1.0000
  H   H682      1.0  0.08203  0.66840  0.85769  1.0000
  H   H683      1.0  0.13758  0.51613  0.55521  1.0000
  H   H684      1.0  0.09087  0.65023  0.52533  1.0000
  H   H685      1.0  0.01806  0.67655  0.93510  1.0000
  C   C412      1.0  0.07253  0.72459  0.86388  1.0000
  H   H686      1.0  0.19216  0.66521  0.48894  1.0000
  H   H687      1.0  0.14522  0.50805  0.61010  1.0000
  S   S131      1.0  0.06420  0.49614  0.72849  1.0000
  H   H688      1.0  0.10744  0.65128  0.49356  1.0000
  H   H689      1.0  0.10110  0.70877  0.85625  1.0000
  C   C413      1.0  0.03750  0.69997  0.91177  1.0000
  H   H690      1.0  0.13743  0.54669  0.61475  1.0000
  H   H691      1.0  0.03883  0.71085  0.89569  1.0000
  H   H692      1.0  0.11200  0.52687  0.55383  1.0000
  H   H693      1.0  0.03051  0.70135  0.86364  1.0000
  H   H694      1.0  0.14409  0.53254  0.57873  1.0000
  H   H695      1.0  0.07990  0.55972  0.62760  1.0000
  H   H696      1.0  0.06155  0.66119  0.79842  1.0000
  C   C414      1.0  0.15280  0.71355  0.61923  1.0000
  H   H697      1.0  0.16237  0.72806  0.81135  1.0000
  H   H698      1.0  0.06488  0.66426  0.54675  1.0000
  H   H699      1.0  0.17436  0.72935  0.67742  1.0000
  H   H700      1.0  0.22973  0.70345  0.59741  1.0000
  S   S132      1.0  0.08758  0.72594  0.76115  1.0000
  H   H701      1.0  0.10960  0.52540  0.64633  1.0000
  C   C415      1.0  0.02569  0.69108  0.87937  1.0000
  C   C416      1.0  0.03277  0.67251  0.92234  1.0000
  C   C417      1.0  0.12334  0.52178  0.56697  1.0000
  H   H702      1.0  0.19172  0.73784  0.64875  1.0000
  C   C418      1.0  0.08751  0.73013  0.90517  1.0000
  H   H703      1.0  0.07908  0.72803  0.69704  1.0000
  S   S133      1.0  0.25197  0.73588  0.65240  1.0000
  H   H704      1.0  0.27452  0.73271  0.76410  1.0000
  H   H705      1.0  0.03168  0.67374  0.51247  1.0000
  C   C419      1.0  0.09130  0.65403  0.50346  1.0000
  C   C420      1.0  0.06491  0.70754  0.50007  1.0000
  H   H706      1.0  0.03931  0.69934  0.49594  1.0000
  C   C421      1.0  0.08338  0.67202  0.49454  1.0000
  S   S134      1.0  0.22313  0.73709  0.59739  1.0000
  H   H707      1.0  0.02583  0.65939  0.89586  1.0000
  H   H708      1.0  0.12682  0.73222  0.83413  1.0000
  C   C422      1.0  0.03135  0.65723  0.91471  1.0000
  C   C423      1.0  0.27467  0.73262  0.74290  1.0000
  H   H709      1.0  0.01842  0.68805  0.97144  1.0000
  H   H710      1.0  0.09404  0.67825  0.49870  1.0000
  Fe  Fe69      1.0  0.04836  0.49312  0.69822  1.0000
  C   C424      1.0  0.32968  0.72633  0.67453  1.0000
  H   H711      1.0  0.26061  0.72861  0.74334  1.0000
  C   C425      1.0  0.00754  0.69746  0.97930  1.0000
  H   H712      1.0  0.01992  0.65133  0.93034  1.0000
  C   C426      1.0  0.19750  0.73778  0.71380  1.0000
  H   H713      1.0  0.13954  0.73701  0.68606  1.0000
  C   C427      1.0  0.06779  0.73726  0.90154  1.0000
  H   H714      1.0  0.06170  0.71924  0.48618  1.0000
  S   S135      1.0  0.10662  0.48984  0.68454  1.0000
  H   H715      1.0  0.99947  0.70650  0.89952  1.0000
  H   H716      1.0  0.02802  0.80711  0.20889  1.0000
  C   C428      1.0  0.26858  0.94643  0.28181  1.0000
  S   S136      1.0  0.05901  0.77593  0.03091  1.0000
  Fe  Fe70      1.0  0.09579  0.79429  0.14023  1.0000
  S   S137      1.0  0.09269  0.81965  0.11816  1.0000
  S   S138      1.0  0.10917  0.77507  0.11678  1.0000
  Fe  Fe71      1.0  0.07727  0.80336  0.19373  1.0000
  S   S139      1.0  0.07285  0.82959  0.17584  1.0000
  S   S140      1.0  0.06396  0.79471  0.23715  1.0000
  H   H717      1.0  0.04759  0.78739  0.07952  1.0000
  Fe  Fe72      1.0  0.10427  0.82402  0.15157  1.0000
  S   S141      1.0  0.13014  0.83790  0.13793  1.0000
  S   S142      1.0  0.06412  0.79701  0.16394  1.0000
  S   S143      1.0  0.10957  0.79811  0.17199  1.0000
  C   C429      1.0  0.03116  0.75711  0.22840  1.0000
  H   H718      1.0  0.32116  0.94541  0.17468  1.0000
  H   H719      1.0  0.01631  0.77436  0.04386  1.0000
  H   H720      1.0  0.26007  0.93294  0.35065  1.0000
  H   H721      1.0  0.28471  0.93084  0.32847  1.0000
  S   S144      1.0  0.27497  0.88008  0.33994  1.0000
  H   H722      1.0  0.04805  0.75262  0.10071  1.0000
  H   H723      1.0  0.04792  0.75354  0.22563  1.0000
  C   C430      1.0  0.30166  0.96369  0.03112  1.0000
  H   H724      1.0  0.08765  0.74795  0.13447  1.0000
  H   H725      1.0  0.08041  0.74110  0.35675  1.0000
  C   C431      1.0  0.32510  0.89107  0.45884  1.0000
  H   H726      1.0  0.30906  0.95145  0.21722  1.0000
  C   C432      1.0  0.23622  0.94785  0.31334  1.0000
  H   H727      1.0  0.12891  0.74893  0.36047  1.0000
  H   H728      1.0  0.12849  0.88546  0.31708  1.0000
  H   H729      1.0  0.10217  0.91350  0.28563  1.0000
  C   C433      1.0  0.26530  0.91832  0.07276  1.0000
  H   H730      1.0  0.31574  0.88913  0.18107  1.0000
  S   S145      1.0  0.31388  0.93164  0.03722  1.0000
  H   H731      1.0  0.03672  0.81458  0.07444  1.0000
  H   H732      1.0  0.16238  0.91808  0.25462  1.0000
  H   H733      1.0  0.13653  0.90363  0.30768  1.0000
  H   H734      1.0  0.10132  0.83633  0.02500  1.0000
  Fe  Fe73      1.0  0.21314  0.89181  0.22771  1.0000
  S   S146      1.0  0.19213  0.90838  0.20189  1.0000
  S   S147      1.0  0.20806  0.89645  0.26911  1.0000
  Fe  Fe74      1.0  0.23169  0.87180  0.18598  1.0000
  S   S148      1.0  0.21232  0.88683  0.15682  1.0000
  S   S149      1.0  0.25112  0.84912  0.17629  1.0000
  Fe  Fe75      1.0  0.21952  0.90716  0.16886  1.0000
  S   S150      1.0  0.22986  0.92825  0.13860  1.0000
  Fe  Fe76      1.0  0.18694  0.88641  0.19271  1.0000
  S   S151      1.0  0.15518  0.88159  0.19870  1.0000
  S   S152      1.0  0.24097  0.89202  0.19530  1.0000
  S   S153      1.0  0.20594  0.86998  0.22120  1.0000
  H   H735      1.0  0.09387  0.82766  0.05953  1.0000
  H   H736      1.0  0.22850  0.95798  0.29954  1.0000
  C   C434      1.0  0.23335  0.94005  0.18059  1.0000
  H   H737      1.0  0.30942  0.83024  0.11172  1.0000
  H   H738      1.0  0.22510  0.93112  0.19364  1.0000
  C   C435      1.0  0.00225  0.76061  0.07999  1.0000
  H   H739      1.0  0.12682  0.87077  0.28747  1.0000
  C   C436      1.0  0.06367  0.84450  0.01259  1.0000
  C   C437      1.0  0.08946  0.83032  0.03967  1.0000
  H   H740      1.0  0.28971  0.89628  0.19637  1.0000
  H   H741      1.0  0.00014  0.79371  0.13036  1.0000
  H   H742      1.0  0.02262  0.78394  0.00048  1.0000
  H   H743      1.0  0.28393  0.87105  0.05678  1.0000
  C   C438      1.0  0.23971  0.95044  0.19159  1.0000
  H   H744      1.0  0.04097  0.84365  0.06899  1.0000
  C   C439      1.0  0.00504  0.76646  0.04928  1.0000
  H   H745      1.0  0.07635  0.84868  0.99674  1.0000
  C   C440      1.0  0.31884  0.93481  0.19089  1.0000
  H   H746      1.0  0.29049  0.87908  0.46947  1.0000
  H   H747      1.0  0.26336  0.97202  0.13413  1.0000
  C   C441      1.0  0.00745  0.78941  0.99567  1.0000
  C   C442      1.0  0.09512  0.74959  0.24246  1.0000
  C   C443      1.0  0.32286  0.95100  0.06398  1.0000
  H   H748      1.0  0.06154  0.74401  0.30165  1.0000
  C   C444      1.0  0.31004  0.85371  0.11539  1.0000
  C   C445      1.0  0.30031  0.86615  0.12860  1.0000
  C   C446      1.0  0.28225  0.86484  0.14769  1.0000
  C   C447      1.0  0.27409  0.85104  0.15368  1.0000
  C   C448      1.0  0.28409  0.83855  0.14089  1.0000
  C   C449      1.0  0.30189  0.83992  0.12171  1.0000
  H   H749      1.0  0.30665  0.87672  0.12418  1.0000
  H   H750      1.0  0.27472  0.87445  0.15779  1.0000
  H   H751      1.0  0.27798  0.82781  0.14561  1.0000
  Fe  Fe77      1.0  0.28351  0.98754  0.16328  1.0000
  H   H752      1.0  0.15877  0.86989  0.31525  1.0000
  H   H753      1.0  0.16992  0.88541  0.25493  1.0000
  H   H754      1.0  0.28183  0.93878  0.27174  1.0000
  C   C450      1.0  0.24263  0.93185  0.27945  1.0000
  H   H755      1.0  0.24979  0.96062  0.25171  1.0000
  H   H756      1.0  0.11524  0.75649  0.31821  1.0000
  H   H757      1.0  0.12002  0.76176  0.06987  1.0000
  H   H758      1.0  0.27589  0.91391  0.35053  1.0000
  H   H759      1.0  0.06182  0.83367  0.00743  1.0000
  H   H760      1.0  0.22537  0.93073  0.34988  1.0000
  C   C451      1.0  0.21943  0.93977  0.33326  1.0000
  C   C452      1.0  0.32145  0.96577  0.07011  1.0000
  H   H761      1.0  0.03161  0.85537  0.02582  1.0000
  H   H762      1.0  0.29690  0.90314  0.04857  1.0000
  H   H763      1.0  0.09405  0.85034  0.07004  1.0000
  S   S154      1.0  0.03433  0.83728  0.12824  1.0000
  H   H764      1.0  0.02494  0.75065  0.24870  1.0000
  H   H765      1.0  0.24302  0.95352  0.32466  1.0000
  C   C453      1.0  0.25727  0.92492  0.25633  1.0000
  H   H766      1.0  0.25646  0.97206  0.27079  1.0000
  H   H767      1.0  0.27520  0.95052  0.29547  1.0000
  H   H768      1.0  0.12224  0.91196  0.24791  1.0000
  C   C454      1.0  0.25066  0.96195  0.17496  1.0000
  H   H769      1.0  0.13651  0.74009  0.28180  1.0000
  C   C455      1.0  0.25714  0.88339  0.31941  1.0000
  C   C456      1.0  0.23663  0.88659  0.33107  1.0000
  C   C457      1.0  0.22187  0.89039  0.31532  1.0000
  C   C458      1.0  0.22741  0.89059  0.28784  1.0000
  C   C459      1.0  0.24792  0.88693  0.27609  1.0000
  C   C460      1.0  0.26284  0.88352  0.29186  1.0000
  H   H770      1.0  0.23214  0.88645  0.35233  1.0000
  H   H771      1.0  0.20606  0.89318  0.32451  1.0000
  H   H772      1.0  0.25230  0.88704  0.25485  1.0000
  H   H773      1.0  0.27868  0.88084  0.28279  1.0000
  C   C461      1.0  0.13670  0.84994  0.15539  1.0000
  C   C462      1.0  0.15359  0.85724  0.14353  1.0000
  C   C463      1.0  0.15959  0.86676  0.15672  1.0000
  C   C464      1.0  0.14857  0.86925  0.18182  1.0000
  C   C465      1.0  0.13163  0.86203  0.19366  1.0000
  C   C466      1.0  0.12579  0.85231  0.18063  1.0000
  H   H774      1.0  0.16199  0.85559  0.12390  1.0000
  H   H775      1.0  0.17245  0.87245  0.14722  1.0000
  H   H776      1.0  0.12294  0.86394  0.21300  1.0000
  H   H777      1.0  0.11274  0.84680  0.18995  1.0000
  C   C467      1.0  0.08825  0.76581  0.23288  1.0000
  C   C468      1.0  0.07217  0.77429  0.24846  1.0000
  C   C469      1.0  0.06250  0.76640  0.27325  1.0000
  C   C470      1.0  0.13041  0.87980  0.26873  1.0000
  H   H778      1.0  0.09566  0.77179  0.21366  1.0000
  H   H779      1.0  0.04998  0.77293  0.28528  1.0000
  N   N30       1.0  0.25227  0.93722  0.29756  1.0000
  C   C471      1.0  0.07277  0.77474  0.05548  1.0000
  C   C472      1.0  0.09311  0.76725  0.05303  1.0000
  C   C473      1.0  0.10423  0.76744  0.07192  1.0000
  C   C474      1.0  0.09506  0.77512  0.09322  1.0000
  C   C475      1.0  0.07461  0.78235  0.09591  1.0000
  C   C476      1.0  0.06346  0.78202  0.07719  1.0000
  H   H780      1.0  0.06856  0.84921  0.08897  1.0000
  S   S155      1.0  0.30895  0.97374  0.13837  1.0000
  H   H781      1.0  0.06735  0.78814  0.11242  1.0000
  C   C477      1.0  0.31986  0.89940  0.48266  1.0000
  S   S156      1.0  0.32097  0.89814  0.33679  1.0000
  Fe  Fe78      1.0  0.06546  0.75367  0.01489  1.0000
  C   C478      1.0  0.31029  0.97952  0.05650  1.0000
  N   N31       1.0  0.20399  0.82269  0.17654  1.0000
  C   C479      1.0  0.20081  0.81102  0.16230  1.0000
  C   C480      1.0  0.22175  0.81509  0.19026  1.0000
  C   C481      1.0  0.20855  0.83778  0.15713  1.0000
  C   C482      1.0  0.18488  0.82684  0.19637  1.0000
  C   C483      1.0  0.18460  0.81723  0.14462  1.0000
  C   C484      1.0  0.21802  0.80160  0.21513  1.0000
  C   C485      1.0  0.22661  0.83569  0.13367  1.0000
  C   C486      1.0  0.18572  0.83799  0.21407  1.0000
  H   H782      1.0  0.21519  0.80632  0.14951  1.0000
  H   H783      1.0  0.19618  0.80039  0.17704  1.0000
  H   H784      1.0  0.22742  0.82405  0.19640  1.0000
  H   H785      1.0  0.23492  0.80998  0.17610  1.0000
  H   H786      1.0  0.19515  0.84454  0.14842  1.0000
  H   H787      1.0  0.21179  0.84596  0.16775  1.0000
  H   H788      1.0  0.17222  0.83309  0.18575  1.0000
  H   H789      1.0  0.17932  0.81608  0.20946  1.0000
  H   H790      1.0  0.16922  0.82014  0.15665  1.0000
  H   H791      1.0  0.18789  0.82762  0.12838  1.0000
  H   H792      1.0  0.18417  0.80772  0.13471  1.0000
  H   H793      1.0  0.20676  0.80599  0.23182  1.0000
  H   H794      1.0  0.21329  0.79174  0.21039  1.0000
  H   H795      1.0  0.23240  0.79657  0.22259  1.0000
  H   H796      1.0  0.22414  0.82871  0.12047  1.0000
  H   H797      1.0  0.24098  0.83024  0.14083  1.0000
  H   H798      1.0  0.22850  0.84759  0.12109  1.0000
  H   H799      1.0  0.18299  0.85057  0.20321  1.0000
  H   H800      1.0  0.20024  0.83546  0.22089  1.0000
  H   H801      1.0  0.17400  0.83636  0.23267  1.0000
  C   C487      1.0  0.11147  0.88512  0.25586  1.0000
  H   H802      1.0  0.00207  0.80104  0.00162  1.0000
  H   H803      1.0  0.26692  0.86688  0.09946  1.0000
  H   H804      1.0  0.26952  0.91535  0.26337  1.0000
  C   C488      1.0  0.10582  0.90481  0.30387  1.0000
  H   H805      1.0  0.10037  0.76159  0.03631  1.0000
  H   H806      1.0  0.13757  0.92555  0.27298  1.0000
  H   H807      1.0  0.02728  0.80436  0.13988  1.0000
  C   C489      1.0  0.02534  0.77525  0.22595  1.0000
  H   H808      1.0  0.16719  0.89460  0.28219  1.0000
  N   N32       1.0  0.00331  0.78245  0.22593  1.0000
  C   C490      1.0  0.27097  0.92557  0.33743  1.0000
  C   C491      1.0  0.31184  0.90803  0.20364  1.0000
  S   S157      1.0  0.25898  0.97445  0.18955  1.0000
  H   H809      1.0  0.25138  0.95414  0.11457  1.0000
  C   C492      1.0  0.14590  0.92111  0.25471  1.0000
  C   C493      1.0  0.16604  0.86991  0.29401  1.0000
  H   H810      1.0  0.23374  0.92252  0.29117  1.0000
  C   C494      1.0  0.04197  0.82280  0.05550  1.0000
  C   C495      1.0  0.01548  0.81235  0.13027  1.0000
  C   C496      1.0  0.26184  0.96161  0.26126  1.0000
  H   H811      1.0  0.14376  0.93112  0.23723  1.0000
  C   C497      1.0  0.13781  0.90709  0.25154  1.0000
  H   H812      1.0  0.11520  0.89137  0.23455  1.0000
  C   C498      1.0  0.99941  0.79916  0.23016  1.0000
  C   C499      1.0  0.01562  0.82873  0.12272  1.0000
  H   H813      1.0  0.27379  0.91511  0.30408  1.0000
  H   H814      1.0  0.03055  0.77809  0.24221  1.0000
  C   C500      1.0  0.16089  0.88630  0.27533  1.0000
  C   C501      1.0  0.12822  0.89649  0.30108  1.0000
  H   H815      1.0  0.20793  0.94890  0.34251  1.0000
  C   C502      1.0  0.23743  0.94138  0.15276  1.0000
  H   H816      1.0  0.28859  0.94607  0.20970  1.0000
  H   H817      1.0  0.23134  0.94166  0.27034  1.0000
  H   H818      1.0  0.26383  0.93434  0.24075  1.0000
  H   H819      1.0  0.05114  0.81531  0.04136  1.0000
  H   H820      1.0  0.27481  0.96397  0.24457  1.0000
  S   S158      1.0  0.31223  0.89867  0.27758  1.0000
  H   H821      1.0  0.29726  0.91006  0.14960  1.0000
  H   H822      1.0  0.21153  0.93426  0.32317  1.0000
  H   H823      1.0  0.10589  0.87442  0.25572  1.0000
  H   H824      1.0  0.26236  0.91081  0.02835  1.0000
  H   H825      1.0  0.16224  0.86025  0.28746  1.0000
  H   H826      1.0  0.07053  0.74516  0.16654  1.0000
  C   C503      1.0  0.25497  0.96316  0.14716  1.0000
  C   C504      1.0  0.04433  0.85706  0.00855  1.0000
  H   H827      1.0  0.10789  0.74314  0.23064  1.0000
  H   H828      1.0  0.32647  0.90794  0.98914  1.0000
  N   N33       1.0  0.13879  0.89261  0.27425  1.0000
  H   H829      1.0  0.24871  0.91976  0.24649  1.0000
  C   C505      1.0  0.07071  0.85665  0.04499  1.0000
  H   H830      1.0  0.23619  0.94951  0.21306  1.0000
  H   H831      1.0  0.30360  0.93227  0.23327  1.0000
  C   C506      1.0  0.30391  0.94127  0.21420  1.0000
  H   H832      1.0  0.30712  0.88370  0.21620  1.0000
  H   H833      1.0  0.24071  0.87273  0.11370  1.0000
  H   H834      1.0  0.09573  0.89595  0.30993  1.0000
  H   H835      1.0  0.01070  0.78644  0.18234  1.0000
  C   C507      1.0  0.05315  0.83397  0.06218  1.0000
  H   H836      1.0  0.24796  0.87514  0.07875  1.0000
  C   C508      1.0  0.25304  0.87592  0.09659  1.0000
  H   H837      1.0  0.05985  0.82735  0.08007  1.0000
  H   H838      1.0  0.26544  0.89081  0.11140  1.0000
  C   C509      1.0  0.25622  0.89262  0.09596  1.0000
  H   H839      1.0  0.30898  0.87476  0.04585  1.0000
  H   H840      1.0  0.25602  0.89192  0.04213  1.0000
  C   C510      1.0  0.30066  0.97848  0.03673  1.0000
  H   H841      1.0  0.22561  0.91048  0.03562  1.0000
  C   C511      1.0  0.29279  0.88050  0.04681  1.0000
  H   H842      1.0  0.24155  0.89960  0.10457  1.0000
  H   H843      1.0  0.29062  0.88509  0.02576  1.0000
  N   N34       1.0  0.31274  0.92248  0.18097  1.0000
  H   H844      1.0  0.30066  0.91101  0.22154  1.0000
  H   H845      1.0  0.27645  0.93224  0.09225  1.0000
  C   C512      1.0  0.30575  0.89366  0.19844  1.0000
  H   H846      1.0  0.29511  0.88948  0.07992  1.0000
  H   H847      1.0  0.00061  0.85154  0.10363  1.0000
  H   H848      1.0  0.22968  0.92363  0.05334  1.0000
  H   H849      1.0  0.00668  0.82271  0.21287  1.0000
  C   C513      1.0  0.00060  0.83891  0.10962  1.0000
  H   H850      1.0  0.07595  0.86794  0.07419  1.0000
  C   C514      1.0  0.23228  0.91092  0.05251  1.0000
  C   C515      1.0  0.28803  0.89414  0.06188  1.0000
  C   C516      1.0  0.25502  0.90347  0.04722  1.0000
  N   N35       1.0  0.26604  0.90175  0.06951  1.0000
  H   H851      1.0  0.28015  0.92888  0.19126  1.0000
  H   H852      1.0  0.29144  0.94191  0.16302  1.0000
  C   C517      1.0  0.07777  0.85571  0.07109  1.0000
  H   H853      1.0  0.31892  0.96984  0.25903  1.0000
  H   H854      1.0  0.10216  0.91192  0.31956  1.0000
  H   H855      1.0  0.31153  0.89438  0.44963  1.0000
  C   C518      1.0  0.29243  0.92910  0.17308  1.0000
  Fe  Fe79      1.0  0.06186  0.82272  0.14441  1.0000
  H   H856      1.0  0.30842  0.87345  0.42698  1.0000
  H   H857      1.0  0.05584  0.86497  0.04620  1.0000
  H   H858      1.0  0.32670  0.90373  0.21012  1.0000
  C   C519      1.0  0.31273  0.94996  0.04476  1.0000
  H   H859      1.0  0.27086  0.91397  0.11373  1.0000
  H   H860      1.0  0.22384  0.90429  0.07108  1.0000
  H   H861      1.0  0.09887  0.89268  0.26681  1.0000
  H   H862      1.0  0.14648  0.90381  0.23231  1.0000
  H   H863      1.0  0.29360  0.91421  0.08804  1.0000
  C   C520      1.0  0.27737  0.91947  0.09293  1.0000
  H   H864      1.0  0.24952  0.92424  0.07976  1.0000
  H   H865      1.0  0.28494  0.92947  0.13509  1.0000
  H   H866      1.0  0.31749  0.93747  0.12559  1.0000
  C   C521      1.0  0.28665  0.92087  0.15425  1.0000
  C   C522      1.0  0.24814  0.95303  0.13609  1.0000
  H   H867      1.0  0.29384  0.96291  0.01621  1.0000
  H   H868      1.0  0.08126  0.86273  0.02803  1.0000
  H   H869      1.0  0.27170  0.91739  0.16324  1.0000
  H   H870      1.0  0.08178  0.74382  0.09876  1.0000
  N   N36       1.0  0.06895  0.84105  0.03996  1.0000
  H   H871      1.0  0.27093  0.92597  0.05314  1.0000
  C   C523      1.0  0.08735  0.75123  0.34409  1.0000
  H   H872      1.0  0.18266  0.86701  0.29316  1.0000
  H   H873      1.0  0.14199  0.87311  0.25482  1.0000
  H   H874      1.0  0.25036  0.91490  0.32640  1.0000
  C   C524      1.0  0.26159  0.92264  0.31584  1.0000
  Fe  Fe80      1.0  0.30613  0.88442  0.31946  1.0000
  C   C525      1.0  0.06902  0.75006  0.28251  1.0000
  H   H875      1.0  0.08243  0.80651  0.04951  1.0000
  C   C526      1.0  0.10816  0.74577  0.32700  1.0000
  H   H876      1.0  0.01253  0.75599  0.04021  1.0000
  H   H877      1.0  0.00847  0.77093  0.27828  1.0000
  H   H878      1.0  0.02873  0.75295  0.13004  1.0000
  H   H879      1.0  0.02631  0.75327  0.21292  1.0000
  H   H880      1.0  0.10493  0.74241  0.30973  1.0000
  C   C527      1.0  0.04519  0.74894  0.12296  1.0000
  H   H881      1.0  0.08816  0.81463  0.01359  1.0000
  H   H882      1.0  0.00311  0.79913  0.24962  1.0000
  H   H883      1.0  0.00929  0.81159  0.18805  1.0000
  H   H884      1.0  0.07688  0.75848  0.33062  1.0000
  C   C528      1.0  0.09167  0.81396  0.03332  1.0000
  H   H885      1.0  0.03507  0.78064  0.20727  1.0000
  H   H886      1.0  0.31346  0.91215  0.47564  1.0000
  H   H887      1.0  0.01680  0.75336  0.08491  1.0000
  H   H888      1.0  0.05326  0.75537  0.13107  1.0000
  H   H889      1.0  0.08855  0.75893  0.35702  1.0000
  Fe  Fe81      1.0  0.32942  0.91094  0.29423  1.0000
  C   C529      1.0  0.29626  0.86692  0.47994  1.0000
  H   H890      1.0  0.10761  0.80762  0.03282  1.0000
  H   H891      1.0  0.32971  0.86743  0.40245  1.0000
  S   S159      1.0  0.32302  0.93747  0.28693  1.0000
  C   C530      1.0  0.32974  0.96272  0.24609  1.0000
  H   H892      1.0  0.04728  0.86927  0.00497  1.0000
  H   H893      1.0  0.02779  0.82948  0.04864  1.0000
  C   C531      1.0  0.00007  0.80634  0.12501  1.0000
  H   H894      1.0  0.14944  0.74153  0.31983  1.0000
  H   H895      1.0  0.03943  0.85623  0.99045  1.0000
  H   H896      1.0  0.32597  0.88662  0.40923  1.0000
  C   C532      1.0  0.08557  0.74172  0.26730  1.0000
  C   C533      1.0  0.01162  0.81060  0.20854  1.0000
  C   C534      1.0  0.32450  0.87412  0.41884  1.0000
  H   H897      1.0  0.29597  0.85826  0.46819  1.0000
  Fe  Fe82      1.0  0.32891  0.98395  0.15436  1.0000
  H   H898      1.0  0.32823  0.90791  0.15148  1.0000
  H   H899      1.0  0.32932  0.96656  0.08493  1.0000
  C   C535      1.0  0.32941  0.91848  0.15794  1.0000
  S   S160      1.0  0.33202  0.85489  0.09037  1.0000
  H   H900      1.0  0.29205  0.98908  0.02619  1.0000
  C   C536      1.0  0.33186  0.93190  0.13263  1.0000
  H   H901      1.0  0.33173  0.94042  0.07412  1.0000
  C   C537      1.0  0.08426  0.73959  0.15381  1.0000
  H   H902      1.0  0.99900  0.76986  0.19814  1.0000
  H   H903      1.0  0.19686  0.74763  0.55940  1.0000
  H   H904      1.0  0.25850  0.77295  0.72780  1.0000
  H   H905      1.0  0.12132  0.74435  0.87002  1.0000
  H   H906      1.0  0.11439  0.76651  0.89265  1.0000
  H   H907      1.0  0.26236  0.76396  0.66225  1.0000
  C   C538      1.0  0.11023  0.76875  0.87271  1.0000
  C   C539      1.0  0.09269  0.75509  0.80685  1.0000
  H   H908      1.0  0.30723  0.74735  0.70886  1.0000
  C   C540      1.0  0.27117  0.76441  0.67694  1.0000
  H   H909      1.0  0.05849  0.74519  0.91421  1.0000
  H   H910      1.0  0.09168  0.75202  0.84847  1.0000
  H   H911      1.0  0.22561  0.76736  0.74958  1.0000
  H   H912      1.0  0.09085  0.77202  0.83057  1.0000
  H   H913      1.0  0.16763  0.75001  0.59701  1.0000
  H   H914      1.0  0.08332  0.74295  0.64958  1.0000
  C   C541      1.0  0.23664  0.75787  0.74066  1.0000
  C   C542      1.0  0.12393  0.75614  0.85738  1.0000
  C   C543      1.0  0.15231  0.74849  0.59673  1.0000
  C   C544      1.0  0.29713  0.77068  0.71705  1.0000
  H   H915      1.0  0.09599  0.74203  0.80886  1.0000
  H   H916      1.0  0.14440  0.77235  0.81493  1.0000
  H   H917      1.0  0.11217  0.78101  0.86228  1.0000
  N   N37       1.0  0.12115  0.75775  0.82909  1.0000
  H   H918      1.0  0.14212  0.78225  0.77058  1.0000
  H   H919      1.0  0.29208  0.77736  0.69824  1.0000
  H   H920      1.0  0.09990  0.76075  0.78660  1.0000
  H   H921      1.0  0.26031  0.75992  0.75903  1.0000
  H   H922      1.0  0.11541  0.78233  0.77606  1.0000
  S   S161      1.0  0.13708  0.74251  0.73955  1.0000
  C   C545      1.0  0.32985  0.75272  0.64681  1.0000
  H   H923      1.0  0.13951  0.74963  0.63735  1.0000
  H   H924      1.0  0.31330  0.77149  0.71421  1.0000
  H   H925      1.0  0.12599  0.74057  0.62320  1.0000
  H   H926      1.0  0.13975  0.75659  0.85767  1.0000
  C   C546      1.0  0.29552  0.75298  0.72387  1.0000
  C   C547      1.0  0.17662  0.74370  0.71669  1.0000
  C   C548      1.0  0.27260  0.74858  0.69790  1.0000
  H   H927      1.0  0.11967  0.78318  0.81820  1.0000
  H   H928      1.0  0.25941  0.74316  0.69923  1.0000
  C   C549      1.0  0.13000  0.77538  0.78141  1.0000
  H   H929      1.0  0.28647  0.76639  0.66577  1.0000
  C   C550      1.0  0.25830  0.76043  0.73842  1.0000
  H   H930      1.0  0.26293  0.77485  0.68537  1.0000
  H   H931      1.0  0.31565  0.86743  0.50619  1.0000
  C   C551      1.0  0.12911  0.77226  0.81186  1.0000
  H   H932      1.0  0.13030  0.74231  0.80027  1.0000
  H   H933      1.0  0.14349  0.76055  0.59022  1.0000
  H   H934      1.0  0.32828  0.91760  0.95473  1.0000
  H   H935      1.0  0.09404  0.76785  0.87683  1.0000
  H   H936      1.0  0.00949  0.79178  0.97346  1.0000
  C   C552      1.0  0.13264  0.74267  0.82017  1.0000
  H   H937      1.0  0.23319  0.75875  0.72077  1.0000
  H   H938      1.0  0.17087  0.75383  0.70215  1.0000
  N   N38       1.0  0.27522  0.74902  0.72528  1.0000
  C   C553      1.0  0.09880  0.75959  0.82980  1.0000
  H   H939      1.0  0.30067  0.74795  0.74337  1.0000
  H   H940      1.0  0.07605  0.75881  0.80837  1.0000
  H   H941      1.0  0.28879  0.77659  0.73381  1.0000
  H   H942      1.0  0.20787  0.74334  0.69704  1.0000
  C   C554      1.0  0.14159  0.74090  0.62477  1.0000
  H   H943      1.0  0.32523  0.76183  0.63012  1.0000
  H   H944      1.0  0.23377  0.74640  0.75408  1.0000
  S   S162      1.0  0.05191  0.75325  0.98056  1.0000
  H   H945      1.0  0.16285  0.74879  0.80298  1.0000
  H   H946      1.0  0.13428  0.76449  0.77332  1.0000
  H   H947      1.0  0.31633  0.92865  0.98088  1.0000
  H   H948      1.0  0.16610  0.74698  0.65323  1.0000
  H   H949      1.0  0.28519  0.86492  0.49915  1.0000
  H   H950      1.0  0.28549  0.74040  0.68845  1.0000
  H   H951      1.0  0.15294  0.74179  0.58137  1.0000
  H   H952      1.0  0.30834  0.89436  0.49923  1.0000
  H   H953      1.0  0.32522  0.95267  0.96295  1.0000
  C   C555      1.0  0.32897  0.91920  0.97465  1.0000
  H   H954      1.0  0.32329  0.85166  0.48977  1.0000
  H   H955      1.0  0.04527  0.74037  0.87771  1.0000
  H   H956      1.0  0.11682  0.73974  0.67313  1.0000
  C   C556      1.0  0.15576  0.73940  0.81812  1.0000
  C   C557      1.0  0.31747  0.86471  0.48613  1.0000
  C   C558      1.0  0.53929  0.01031  0.21549  1.0000
  Fe  Fe83      1.0  0.52412  0.10696  0.22220  1.0000
  S   S163      1.0  0.54665  0.10650  0.24651  1.0000
  S   S164      1.0  0.49347  0.10127  0.24100  1.0000
  Fe  Fe84      1.0  0.54921  0.12101  0.16989  1.0000
  S   S165      1.0  0.57456  0.12140  0.18910  1.0000
  S   S166      1.0  0.54959  0.13042  0.12580  1.0000
  Fe  Fe85      1.0  0.56937  0.09726  0.21289  1.0000
  Fe  Fe86      1.0  0.54990  0.13065  0.22094  1.0000
  S   S167      1.0  0.55111  0.15289  0.23339  1.0000
  S   S168      1.0  0.54642  0.09588  0.19046  1.0000
  S   S169      1.0  0.52503  0.13195  0.20003  1.0000
  Fe  Fe87      1.0  0.42432  0.08344  0.16859  1.0000
  S   S170      1.0  0.40613  0.07459  0.14758  1.0000
  S   S171      1.0  0.45730  0.07328  0.16808  1.0000
  Fe  Fe88      1.0  0.38988  0.10922  0.18568  1.0000
  C   C559      1.0  0.44729  0.17009  0.48259  1.0000
  S   S172      1.0  0.38035  0.13137  0.20253  1.0000
  Fe  Fe89      1.0  0.39161  0.18594  0.31310  1.0000
  H   H957      1.0  0.54734  0.23758  0.14689  1.0000
  Fe  Fe90      1.0  0.39480  0.10050  0.13215  1.0000
  S   S173      1.0  0.38929  0.11092  0.09033  1.0000
  S   S174      1.0  0.40058  0.08403  0.20608  1.0000
  S   S175      1.0  0.41514  0.10916  0.14996  1.0000
  Fe  Fe91      1.0  0.57499  0.19344  0.36212  1.0000
  S   S176      1.0  0.58744  0.16846  0.38126  1.0000
  S   S177      1.0  0.59643  0.20851  0.33425  1.0000
  Fe  Fe92      1.0  0.53167  0.18990  0.38637  1.0000
  S   S178      1.0  0.54054  0.16484  0.40836  1.0000
  S   S179      1.0  0.49898  0.20088  0.38624  1.0000
  Fe  Fe93      1.0  0.56494  0.17389  0.41799  1.0000
  S   S180      1.0  0.57552  0.16597  0.45760  1.0000
  Fe  Fe94      1.0  0.56199  0.16196  0.36958  1.0000
  S   S181      1.0  0.56348  0.14068  0.35264  1.0000
  S   S182      1.0  0.55403  0.19944  0.39944  1.0000
  S   S183      1.0  0.55163  0.18654  0.34712  1.0000
  H   H958      1.0  0.44721  0.15996  0.47406  1.0000
  S   S184      1.0  0.37423  0.16752  0.34014  1.0000
  Fe  Fe95      1.0  0.43122  0.16871  0.32889  1.0000
  S   S185      1.0  0.41754  0.14882  0.35735  1.0000
  S   S186      1.0  0.46503  0.16613  0.32062  1.0000
  Fe  Fe96      1.0  0.40095  0.15001  0.32514  1.0000
  S   S187      1.0  0.40024  0.12690  0.31548  1.0000
  Fe  Fe97      1.0  0.39213  0.16796  0.37009  1.0000
  H   H959      1.0  0.35800  0.10888  0.27014  1.0000
  S   S188      1.0  0.41685  0.16832  0.29541  1.0000
  C   C560      1.0  0.34355  0.06339  0.16285  1.0000
  S   S189      1.0  0.52313  0.21743  0.02515  1.0000
  H   H960      1.0  0.50140  0.09169  0.33754  1.0000
  H   H961      1.0  0.53455  0.20939  0.26367  1.0000
  H   H962      1.0  0.48067  0.08192  0.33971  1.0000
  C   C561      1.0  0.53649  0.21124  0.28293  1.0000
  S   S190      1.0  0.59364  0.07639  0.22454  1.0000
  H   H963      1.0  0.58604  0.20579  0.19614  1.0000
  Fe  Fe98      1.0  0.41908  0.18762  0.01266  1.0000
  C   C562      1.0  0.35591  0.14493  0.12278  1.0000
  S   S191      1.0  0.43873  0.16561  0.03196  1.0000
  C   C563      1.0  0.33969  0.03711  0.03309  1.0000
  H   H964      1.0  0.43547  0.09748  0.37818  1.0000
  H   H965      1.0  0.56654  0.21716  0.26311  1.0000
  C   C564      1.0  0.60484  0.12438  0.26724  1.0000
  S   S192      1.0  0.36256  0.05864  0.20543  1.0000
  H   H966      1.0  0.43514  0.18753  0.24463  1.0000
  C   C565      1.0  0.35230  0.18430  0.08954  1.0000
  C   C566      1.0  0.57854  0.16509  0.13807  1.0000
  C   C567      1.0  0.58459  0.22791  0.32160  1.0000
  H   H967      1.0  0.34885  0.18354  0.07041  1.0000
  H   H968      1.0  0.37962  0.03039  0.17450  1.0000
  S   S193      1.0  0.64240  0.99742  0.17448  1.0000
  C   C568      1.0  0.44964  0.18853  0.43808  1.0000
  H   H969      1.0  0.41518  0.17204  0.12225  1.0000
  H   H970      1.0  0.48898  0.18433  0.44051  1.0000
  C   C569      1.0  0.48924  0.19107  0.36857  1.0000
  C   C570      1.0  0.50135  0.17804  0.35847  1.0000
  C   C571      1.0  0.49386  0.17059  0.34354  1.0000
  C   C572      1.0  0.47396  0.17574  0.33940  1.0000
  C   C573      1.0  0.46171  0.18864  0.34976  1.0000
  C   C574      1.0  0.46940  0.19638  0.36414  1.0000
  H   H971      1.0  0.51646  0.17353  0.36232  1.0000
  H   H972      1.0  0.50347  0.16065  0.33556  1.0000
  H   H973      1.0  0.44645  0.19287  0.34629  1.0000
  H   H974      1.0  0.45998  0.20652  0.37171  1.0000
  H   H975      1.0  0.42176  0.22219  0.06820  1.0000
  C   C575      1.0  0.40385  0.12540  0.07270  1.0000
  C   C576      1.0  0.42261  0.12489  0.07863  1.0000
  C   C577      1.0  0.43348  0.13709  0.06551  1.0000
  C   C578      1.0  0.42562  0.14986  0.04654  1.0000
  C   C579      1.0  0.40715  0.15014  0.04006  1.0000
  C   C580      1.0  0.39631  0.13790  0.05307  1.0000
  H   H976      1.0  0.42882  0.11499  0.09305  1.0000
  H   H977      1.0  0.44788  0.13677  0.07017  1.0000
  H   H978      1.0  0.40132  0.15966  0.02477  1.0000
  H   H979      1.0  0.38196  0.13822  0.04812  1.0000
  C   C581      1.0  0.38797  0.13047  0.23251  1.0000
  C   C582      1.0  0.39853  0.11633  0.24589  1.0000
  C   C583      1.0  0.40233  0.11535  0.27132  1.0000
  C   C584      1.0  0.39623  0.12866  0.28305  1.0000
  C   C585      1.0  0.38662  0.14303  0.26908  1.0000
  C   C586      1.0  0.38231  0.14388  0.24396  1.0000
  H   H980      1.0  0.40335  0.10602  0.23701  1.0000
  H   H981      1.0  0.40999  0.10426  0.28194  1.0000
  C   C587      1.0  0.60416  0.07438  0.17153  1.0000
  H   H982      1.0  0.59548  0.08632  0.16727  1.0000
  H   H983      1.0  0.61293  0.07268  0.12997  1.0000
  C   C588      1.0  0.55241  0.15031  0.26725  1.0000
  C   C589      1.0  0.55938  0.16159  0.27524  1.0000
  C   C590      1.0  0.56224  0.15897  0.30169  1.0000
  C   C591      1.0  0.55802  0.14512  0.32027  1.0000
  C   C592      1.0  0.55051  0.13409  0.31241  1.0000
  C   C593      1.0  0.54748  0.13677  0.28605  1.0000
  H   H984      1.0  0.56325  0.17208  0.26076  1.0000
  H   H985      1.0  0.56852  0.16733  0.30739  1.0000
  H   H986      1.0  0.54714  0.12340  0.32674  1.0000
  H   H987      1.0  0.54160  0.12825  0.28023  1.0000
  C   C594      1.0  0.53905  0.15076  0.11852  1.0000
  C   C595      1.0  0.52272  0.15727  0.13647  1.0000
  C   C596      1.0  0.51520  0.17362  0.13158  1.0000
  C   C597      1.0  0.52389  0.18357  0.10864  1.0000
  C   C598      1.0  0.53957  0.17709  0.08990  1.0000
  C   C599      1.0  0.54712  0.16063  0.09482  1.0000
  H   H988      1.0  0.51550  0.14971  0.15379  1.0000
  H   H989      1.0  0.35138  0.07320  0.15342  1.0000
  H   H990      1.0  0.54608  0.18471  0.07179  1.0000
  H   H991      1.0  0.55953  0.15563  0.08059  1.0000
  C   C600      1.0  0.48350  0.09331  0.22093  1.0000
  C   C601      1.0  0.46259  0.09666  0.22193  1.0000
  C   C602      1.0  0.45444  0.09059  0.20565  1.0000
  C   C603      1.0  0.46712  0.08076  0.18895  1.0000
  C   C604      1.0  0.48801  0.07723  0.18824  1.0000
  C   C605      1.0  0.49620  0.08360  0.20405  1.0000
  H   H992      1.0  0.45268  0.10413  0.23501  1.0000
  H   H993      1.0  0.43835  0.09349  0.20612  1.0000
  H   H994      1.0  0.49783  0.06963  0.17535  1.0000
  H   H995      1.0  0.51226  0.08067  0.20367  1.0000
  H   H996      1.0  0.60469  0.14098  0.22875  1.0000
  H   H997      1.0  0.48255  0.11247  0.35541  1.0000
  H   H998      1.0  0.59081  0.13142  0.27714  1.0000
  C   C606      1.0  0.59132  0.99104  0.07358  1.0000
  C   C607      1.0  0.33596  0.04179  0.20031  1.0000
  H   H999      1.0  0.49077  0.16335  0.42195  1.0000
  C   C608      1.0  0.40642  0.99196  0.18074  1.0000
  H   H1000     1.0  0.38377  0.02148  0.22064  1.0000
  H   H1001     1.0  0.34256  0.19632  0.43001  1.0000
  H   H1002     1.0  0.58318  0.00311  0.06555  1.0000
  H   H1003     1.0  0.37076  0.23235  0.24069  1.0000
  C   C609      1.0  0.41341  0.21590  0.26629  1.0000
  C   C610      1.0  0.36803  0.02012  0.13908  1.0000
  C   C611      1.0  0.47495  0.19442  0.08770  1.0000
  H   H1004     1.0  0.41046  0.99039  0.20044  1.0000
  Fe  Fe99      1.0  0.38904  0.21603  0.02943  1.0000
  H   H1005     1.0  0.48018  0.20838  0.44839  1.0000
  H   H1006     1.0  0.60385  0.21848  0.10830  1.0000
  H   H1007     1.0  0.50122  0.15286  0.45114  1.0000
  H   H1008     1.0  0.56385  0.22619  0.42311  1.0000
  H   H1009     1.0  0.54456  0.00407  0.23435  1.0000
  H   H1010     1.0  0.59997  0.17093  0.15585  1.0000
  H   H1011     1.0  0.56671  0.00936  0.18530  1.0000
  H   H1012     1.0  0.57642  0.02933  0.14571  1.0000
  H   H1013     1.0  0.48815  0.18864  0.07444  1.0000
  C   C612      1.0  0.60542  0.23027  0.37639  1.0000
  C   C613      1.0  0.48730  0.16022  0.44426  1.0000
  H   H1014     1.0  0.38104  0.99549  0.14663  1.0000
  H   H1015     1.0  0.39920  0.00810  0.13359  1.0000
  H   H1016     1.0  0.37039  0.07433  0.26387  1.0000
  C   C614      1.0  0.37744  0.17483  0.16452  1.0000
  H   H1017     1.0  0.61574  0.18378  0.41295  1.0000
  S   S194      1.0  0.36843  0.10274  0.16637  1.0000
  H   H1018     1.0  0.48871  0.17322  0.47310  1.0000
  H   H1019     1.0  0.63507  0.19520  0.40583  1.0000
  N   N39       1.0  0.56521  0.02940  0.20274  1.0000
  C   C615      1.0  0.37295  0.17353  0.09337  1.0000
  H   H1020     1.0  0.43742  0.18332  0.40782  1.0000
  Fe  Fe100     1.0  0.38133  0.07741  0.18345  1.0000
  C   C616      1.0  0.62521  0.05113  0.15564  1.0000
  C   C617      1.0  0.60419  0.12819  0.23712  1.0000
  N   N40       1.0  0.37546  0.16647  0.12194  1.0000
  H   H1021     1.0  0.36794  0.10194  0.24044  1.0000
  H   H1022     1.0  0.39753  0.14664  0.10957  1.0000
  N   N41       1.0  0.45886  0.18206  0.46288  1.0000
  H   H1023     1.0  0.35262  0.19688  0.08871  1.0000
  H   H1024     1.0  0.50226  0.08066  0.31322  1.0000
  S   S195      1.0  0.40729  0.18799  0.34435  1.0000
  H   H1025     1.0  0.55779  0.19475  0.11916  1.0000
  C   C618      1.0  0.39740  0.02169  0.20438  1.0000
  H   H1026     1.0  0.33785  0.03493  0.22010  1.0000
  H   H1027     1.0  0.54305  0.18684  0.16926  1.0000
  C   C619      1.0  0.39268  0.02056  0.17791  1.0000
  H   H1028     1.0  0.42836  0.15433  0.11104  1.0000
  H   H1029     1.0  0.52504  0.01889  0.22016  1.0000
  H   H1030     1.0  0.58895  0.20717  0.41248  1.0000
  N   N42       1.0  0.49185  0.11920  0.11617  1.0000
  C   C620      1.0  0.51274  0.11230  0.10267  1.0000
  C   C621      1.0  0.48389  0.13416  0.09735  1.0000
  C   C622      1.0  0.47760  0.10776  0.12232  1.0000
  C   C623      1.0  0.49327  0.12250  0.14226  1.0000
  C   C624      1.0  0.52291  0.09616  0.11790  1.0000
  C   C625      1.0  0.49350  0.14868  0.09422  1.0000
  C   C626      1.0  0.47593  0.10149  0.09838  1.0000
  C   C627      1.0  0.47336  0.13035  0.15843  1.0000
  H   H1031     1.0  0.51270  0.11092  0.08224  1.0000
  H   H1032     1.0  0.52331  0.12057  0.09929  1.0000
  H   H1033     1.0  0.46722  0.13787  0.10328  1.0000
  H   H1034     1.0  0.48615  0.13203  0.07677  1.0000
  H   H1035     1.0  0.48185  0.09729  0.13814  1.0000
  H   H1036     1.0  0.46199  0.11330  0.13094  1.0000
  H   H1037     1.0  0.49849  0.11125  0.15616  1.0000
  H   H1038     1.0  0.50519  0.12952  0.13945  1.0000
  H   H1039     1.0  0.52634  0.09718  0.13684  1.0000
  H   H1040     1.0  0.51391  0.08674  0.12200  1.0000
  H   H1041     1.0  0.53770  0.09214  0.10527  1.0000
  H   H1042     1.0  0.48747  0.15848  0.07851  1.0000
  H   H1043     1.0  0.48959  0.15318  0.11298  1.0000
  H   H1044     1.0  0.51017  0.14612  0.08765  1.0000
  H   H1045     1.0  0.47089  0.11119  0.08196  1.0000
  H   H1046     1.0  0.46438  0.09376  0.10536  1.0000
  H   H1047     1.0  0.49032  0.09404  0.09050  1.0000
  H   H1048     1.0  0.46494  0.12118  0.17198  1.0000
  H   H1049     1.0  0.46319  0.13877  0.14571  1.0000
  H   H1050     1.0  0.47692  0.13743  0.17068  1.0000
  C   C628      1.0  0.60589  0.06679  0.19794  1.0000
  C   C629      1.0  0.55517  0.01870  0.19409  1.0000
  H   H1051     1.0  0.38192  0.15336  0.27802  1.0000
  N   N43       1.0  0.46785  0.11593  0.32165  1.0000
  C   C630      1.0  0.46087  0.12992  0.30042  1.0000
  C   C631      1.0  0.47832  0.12187  0.33809  1.0000
  C   C632      1.0  0.44924  0.10968  0.33885  1.0000
  C   C633      1.0  0.48193  0.10346  0.30773  1.0000
  C   C634      1.0  0.44998  0.12628  0.28098  1.0000
  C   C635      1.0  0.49811  0.12790  0.32334  1.0000
  H   H1052     1.0  0.45051  0.13949  0.30996  1.0000
  H   H1053     1.0  0.47369  0.13535  0.28749  1.0000
  H   H1054     1.0  0.46780  0.13167  0.34695  1.0000
  H   H1055     1.0  0.43547  0.11919  0.33845  1.0000
  H   H1056     1.0  0.44584  0.10041  0.33070  1.0000
  H   H1057     1.0  0.47375  0.09895  0.29638  1.0000
  H   H1058     1.0  0.49410  0.10866  0.29239  1.0000
  H   H1059     1.0  0.46105  0.12215  0.26398  1.0000
  H   H1060     1.0  0.44054  0.11716  0.29057  1.0000
  H   H1061     1.0  0.43997  0.13727  0.27246  1.0000
  H   H1062     1.0  0.50432  0.13148  0.33798  1.0000
  H   H1063     1.0  0.50992  0.11854  0.31528  1.0000
  H   H1064     1.0  0.49575  0.13861  0.30721  1.0000
  N   N44       1.0  0.60679  0.10709  0.28131  1.0000
  H   H1065     1.0  0.45092  0.18089  0.21613  1.0000
  C   C636      1.0  0.60509  0.10544  0.31117  1.0000
  C   C637      1.0  0.62612  0.09711  0.26949  1.0000
  H   H1066     1.0  0.34383  0.13262  0.25214  1.0000
  C   C638      1.0  0.61308  0.11770  0.32005  1.0000
  H   H1067     1.0  0.64650  0.11456  0.25517  1.0000
  H   H1068     1.0  0.47605  0.15240  0.45095  1.0000
  C   C639      1.0  0.46373  0.22394  0.11402  1.0000
  H   H1069     1.0  0.61264  0.09338  0.32042  1.0000
  H   H1070     1.0  0.62782  0.08463  0.28121  1.0000
  H   H1071     1.0  0.56287  0.21173  0.29921  1.0000
  H   H1072     1.0  0.46238  0.18820  0.09012  1.0000
  H   H1073     1.0  0.63540  0.03150  0.18626  1.0000
  C   C640      1.0  0.61404  0.06665  0.15042  1.0000
  H   H1074     1.0  0.61268  0.11404  0.34202  1.0000
  H   H1075     1.0  0.40562  0.02378  0.16158  1.0000
  H   H1076     1.0  0.42005  0.99520  0.16582  1.0000
  H   H1077     1.0  0.61720  0.12125  0.22549  1.0000
  H   H1078     1.0  0.34554  0.02582  0.02590  1.0000
  H   H1079     1.0  0.45891  0.23532  0.14771  1.0000
  N   N45       1.0  0.48741  0.18076  0.22932  1.0000
  C   C641      1.0  0.50333  0.18622  0.23807  1.0000
  C   C642      1.0  0.49094  0.18566  0.19911  1.0000
  C   C643      1.0  0.49088  0.16286  0.23783  1.0000
  C   C644      1.0  0.46670  0.18814  0.24267  1.0000
  C   C645      1.0  0.48904  0.20372  0.18736  1.0000
  C   C646      1.0  0.47776  0.15426  0.22885  1.0000
  C   C647      1.0  0.44881  0.18944  0.22893  1.0000
  H   H1080     1.0  0.51875  0.18190  0.22700  1.0000
  H   H1081     1.0  0.50116  0.19941  0.23327  1.0000
  H   H1082     1.0  0.48046  0.18164  0.19064  1.0000
  H   H1083     1.0  0.50631  0.17975  0.19023  1.0000
  H   H1084     1.0  0.50701  0.15768  0.23067  1.0000
  H   H1085     1.0  0.48803  0.15906  0.26008  1.0000
  H   H1086     1.0  0.46285  0.18164  0.26388  1.0000
  H   H1087     1.0  0.46674  0.20047  0.24385  1.0000
  H   H1088     1.0  0.53656  0.04404  0.21598  1.0000
  H   H1089     1.0  0.48938  0.20605  0.16546  1.0000
  H   H1090     1.0  0.47471  0.21074  0.19641  1.0000
  H   H1091     1.0  0.50545  0.22819  0.26040  1.0000
  H   H1092     1.0  0.47919  0.15672  0.20680  1.0000
  C   C648      1.0  0.49201  0.08869  0.32599  1.0000
  C   C649      1.0  0.36919  0.00137  0.19637  1.0000
  H   H1093     1.0  0.37611  0.18565  0.17220  1.0000
  H   H1094     1.0  0.48286  0.23180  0.01305  1.0000
  S   S196      1.0  0.37640  0.20688  0.28599  1.0000
  H   H1095     1.0  0.60457  0.20234  0.15070  1.0000
  H   H1096     1.0  0.48305  0.22003  0.31893  1.0000
  H   H1097     1.0  0.59891  0.02956  0.15713  1.0000
  C   C650      1.0  0.44918  0.10282  0.36901  1.0000
  H   H1098     1.0  0.50859  0.16815  0.27505  1.0000
  H   H1099     1.0  0.34000  0.07672  0.25294  1.0000
  Fe  Fe101     1.0  0.52965  0.21737  0.06482  1.0000
  H   H1100     1.0  0.58892  0.10660  0.32174  1.0000
  H   H1101     1.0  0.43632  0.23064  0.14389  1.0000
  C   C651      1.0  0.48115  0.17539  0.45577  1.0000
  H   H1102     1.0  0.43533  0.19720  0.44242  1.0000
  H   H1103     1.0  0.41517  0.16979  0.08895  1.0000
  H   H1104     1.0  0.58077  0.21531  0.15132  1.0000
  H   H1105     1.0  0.45739  0.16805  0.41812  1.0000
  H   H1106     1.0  0.56241  0.16848  0.13633  1.0000
  H   H1107     1.0  0.62181  0.22624  0.45188  1.0000
  C   C652      1.0  0.34625  0.05445  0.18828  1.0000
  H   H1108     1.0  0.57621  0.99764  0.23656  1.0000
  H   H1109     1.0  0.50258  0.17857  0.14550  1.0000
  C   C653      1.0  0.39323  0.21845  0.26363  1.0000
  H   H1110     1.0  0.61868  0.04544  0.22359  1.0000
  C   C654      1.0  0.58760  0.08377  0.29240  1.0000
  S   S197      1.0  0.51511  0.20408  0.10436  1.0000
  H   H1111     1.0  0.64865  0.10178  0.28804  1.0000
  H   H1112     1.0  0.52927  0.20432  0.15136  1.0000
  C   C655      1.0  0.55842  0.04955  0.23328  1.0000
  H   H1113     1.0  0.42383  0.22404  0.11415  1.0000
  H   H1114     1.0  0.51572  0.18644  0.27204  1.0000
  C   C656      1.0  0.58938  0.10101  0.27752  1.0000
  C   C657      1.0  0.58415  0.17590  0.15278  1.0000
  H   H1115     1.0  0.36599  0.16810  0.17819  1.0000
  C   C658      1.0  0.50402  0.18118  0.26821  1.0000
  S   S198      1.0  0.37860  0.16432  0.41423  1.0000
  H   H1116     1.0  0.46249  0.09342  0.37282  1.0000
  H   H1117     1.0  0.44815  0.11241  0.37957  1.0000
  H   H1118     1.0  0.48939  0.18562  0.28054  1.0000
  C   C659      1.0  0.61725  0.05134  0.20320  1.0000
  S   S199      1.0  0.56317  0.21500  0.05077  1.0000
  H   H1119     1.0  0.59451  0.01370  0.19710  1.0000
  H   H1120     1.0  0.34454  0.13805  0.13633  1.0000
  H   H1121     1.0  0.57476  0.10876  0.28400  1.0000
  H   H1122     1.0  0.35742  0.01232  0.19654  1.0000
  C   C660      1.0  0.33748  0.20732  0.43807  1.0000
  C   C661      1.0  0.42586  0.21161  0.08377  1.0000
  H   H1123     1.0  0.44222  0.22325  0.24993  1.0000
  C   C662      1.0  0.64592  0.10251  0.26787  1.0000
  C   C663      1.0  0.46273  0.23423  0.98626  1.0000
  H   H1124     1.0  0.39505  0.21128  0.43078  1.0000
  C   C664      1.0  0.38659  0.17471  0.43262  1.0000
  H   H1125     1.0  0.59034  0.10129  0.25598  1.0000
  H   H1126     1.0  0.45984  0.19534  0.42186  1.0000
  C   C665      1.0  0.38846  0.16752  0.45913  1.0000
  H   H1127     1.0  0.38649  0.15533  0.46717  1.0000
  C   C666      1.0  0.39586  0.15559  0.12170  1.0000
  H   H1128     1.0  0.39734  0.14846  0.14219  1.0000
  Fe  Fe102     1.0  0.55629  0.21755  0.01004  1.0000
  C   C667      1.0  0.45658  0.19574  0.47623  1.0000
  H   H1129     1.0  0.47835  0.22814  0.10581  1.0000
  C   C668      1.0  0.46998  0.21229  0.07457  1.0000
  H   H1130     1.0  0.37925  0.08444  0.28260  1.0000
  C   C669      1.0  0.38964  0.19033  0.42209  1.0000
  H   H1131     1.0  0.38816  0.19596  0.40161  1.0000
  N   N46       1.0  0.38819  0.00496  0.17669  1.0000
  H   H1132     1.0  0.45472  0.21671  0.44249  1.0000
  H   H1133     1.0  0.35028  0.20988  0.44424  1.0000
  C   C670      1.0  0.62664  0.04341  0.18212  1.0000
  Fe  Fe103     1.0  0.64476  0.99002  0.10404  1.0000
  C   C671      1.0  0.61964  0.19564  0.40297  1.0000
  S   S200      1.0  0.61838  0.00591  0.12368  1.0000
  H   H1134     1.0  0.55978  0.21311  0.12425  1.0000
  C   C672      1.0  0.43580  0.21563  0.10373  1.0000
  H   H1135     1.0  0.61961  0.19725  0.38136  1.0000
  H   H1136     1.0  0.47920  0.19230  0.10740  1.0000
  H   H1137     1.0  0.54686  0.02555  0.17774  1.0000
  S   S201      1.0  0.38530  0.19261  0.02463  1.0000
  H   H1138     1.0  0.61731  0.12962  0.26901  1.0000
  C   C673      1.0  0.59889  0.21170  0.09691  1.0000
  Fe  Fe104     1.0  0.64152  0.01518  0.13549  1.0000
  H   H1139     1.0  0.60274  0.20470  0.43775  1.0000
  H   H1140     1.0  0.34611  0.17832  0.46821  1.0000
  H   H1141     1.0  0.39278  0.16771  0.16586  1.0000
  H   H1142     1.0  0.57966  0.04977  0.18329  1.0000
  H   H1143     1.0  0.59319  0.02850  0.21475  1.0000
  H   H1144     1.0  0.58688  0.04693  0.13709  1.0000
  C   C674      1.0  0.58796  0.20250  0.15593  1.0000
  H   H1145     1.0  0.49774  0.20478  0.30153  1.0000
  C   C675      1.0  0.39346  0.19900  0.43863  1.0000
  C   C676      1.0  0.58393  0.03643  0.15341  1.0000
  C   C677      1.0  0.44412  0.17659  0.42558  1.0000
  H   H1146     1.0  0.46172  0.15675  0.23909  1.0000
  H   H1147     1.0  0.58832  0.16473  0.11806  1.0000
  H   H1148     1.0  0.34214  0.11808  0.21633  1.0000
  C   C678      1.0  0.38640  0.23027  0.24265  1.0000
  H   H1149     1.0  0.34462  0.16454  0.14298  1.0000
  H   H1150     1.0  0.46520  0.21318  0.05540  1.0000
  H   H1151     1.0  0.54541  0.02882  0.24200  1.0000
  H   H1152     1.0  0.55265  0.19786  0.45873  1.0000
  C   C679      1.0  0.37370  0.17989  0.13549  1.0000
  H   H1153     1.0  0.61208  0.18795  0.11519  1.0000
  C   C680      1.0  0.57089  0.04224  0.17859  1.0000
  C   C681      1.0  0.58439  0.02023  0.21228  1.0000
  H   H1154     1.0  0.56695  0.19689  0.28013  1.0000
  H   H1155     1.0  0.47682  0.21836  0.28899  1.0000
  H   H1156     1.0  0.43233  0.17027  0.43929  1.0000
  S   S202      1.0  0.42283  0.21029  0.02024  1.0000
  H   H1157     1.0  0.34987  0.15096  0.10428  1.0000
  H   H1158     1.0  0.44468  0.20168  0.21715  1.0000
  C   C682      1.0  0.57865  0.18127  0.47095  1.0000
  C   C683      1.0  0.35700  0.09981  0.25976  1.0000
  C   C684      1.0  0.35944  0.15682  0.13717  1.0000
  H   H1159     1.0  0.55707  0.05043  0.17251  1.0000
  N   N47       1.0  0.58211  0.19331  0.13931  1.0000
  H   H1160     1.0  0.56796  0.19472  0.19526  1.0000
  H   H1161     1.0  0.58479  0.21858  0.09024  1.0000
  S   S203      1.0  0.63725  0.04183  0.12861  1.0000
  H   H1162     1.0  0.48460  0.21653  0.06840  1.0000
  H   H1163     1.0  0.41868  0.20696  0.28273  1.0000
  C   C685      1.0  0.38500  0.00652  0.14862  1.0000
  C   C686      1.0  0.56801  0.20796  0.47942  1.0000
  N   N48       1.0  0.45460  0.22263  0.09164  1.0000
  H   H1164     1.0  0.58647  0.08183  0.31435  1.0000
  H   H1165     1.0  0.34990  0.08890  0.22234  1.0000
  C   C687      1.0  0.41447  0.16366  0.11031  1.0000
  H   H1166     1.0  0.35047  0.22183  0.48025  1.0000
  H   H1167     1.0  0.53157  0.20085  0.29818  1.0000
  H   H1168     1.0  0.57452  0.17404  0.17316  1.0000
  H   H1169     1.0  0.35460  0.07946  0.29453  1.0000
  C   C688      1.0  0.55057  0.03753  0.22369  1.0000
  C   C689      1.0  0.56895  0.23768  0.41831  1.0000
  H   H1170     1.0  0.59704  0.00279  0.24413  1.0000
  H   H1171     1.0  0.55760  0.21925  0.47762  1.0000
  H   H1172     1.0  0.58065  0.15271  0.15003  1.0000
  H   H1173     1.0  0.50630  0.23714  0.35217  1.0000
  H   H1174     1.0  0.62876  0.11887  0.31005  1.0000
  H   H1175     1.0  0.64777  0.22208  0.43625  1.0000
  H   H1176     1.0  0.48301  0.14123  0.23513  1.0000
  H   H1177     1.0  0.59203  0.18922  0.09865  1.0000
  C   C690      1.0  0.60366  0.20835  0.41574  1.0000
  H   H1178     1.0  0.62570  0.09632  0.24884  1.0000
  C   C691      1.0  0.39284  0.17601  0.47530  1.0000
  H   H1179     1.0  0.46751  0.21214  0.12733  1.0000
  H   H1180     1.0  0.61059  0.21100  0.07835  1.0000
  H   H1181     1.0  0.57356  0.08116  0.28931  1.0000
  H   H1182     1.0  0.43886  0.20467  0.11940  1.0000
  H   H1183     1.0  0.60314  0.12960  0.31668  1.0000
  H   H1184     1.0  0.41162  0.20742  0.09469  1.0000
  H   H1185     1.0  0.59427  0.18553  0.19306  1.0000
  C   C692      1.0  0.58360  0.19668  0.18679  1.0000
  C   C693      1.0  0.33702  0.08876  0.23980  1.0000
  C   C694      1.0  0.56110  0.20032  0.13389  1.0000
  H   H1186     1.0  0.37159  0.03205  0.13621  1.0000
  H   H1187     1.0  0.38408  0.18813  0.12352  1.0000
  C   C695      1.0  0.46399  0.21081  0.45805  1.0000
  H   H1188     1.0  0.43547  0.20209  0.07379  1.0000
  H   H1189     1.0  0.38437  0.18112  0.08288  1.0000
  H   H1190     1.0  0.54682  0.05384  0.24986  1.0000
  C   C696      1.0  0.45038  0.23495  0.13262  1.0000
  C   C697      1.0  0.48968  0.21728  0.29884  1.0000
  H   H1191     1.0  0.35321  0.01927  0.15275  1.0000
  C   C698      1.0  0.59664  0.19463  0.11256  1.0000
  H   H1192     1.0  0.45982  0.22230  0.99394  1.0000
  C   C699      1.0  0.39454  0.19195  0.46551  1.0000
  C   C700      1.0  0.54374  0.19927  0.15844  1.0000
  H   H1193     1.0  0.56081  0.06024  0.21725  1.0000
  H   H1194     1.0  0.37633  0.16425  0.08130  1.0000
  H   H1195     1.0  0.50191  0.20830  0.18959  1.0000
  H   H1196     1.0  0.36331  0.14969  0.15663  1.0000
  H   H1197     1.0  0.54455  0.20657  0.17217  1.0000
  C   C701      1.0  0.42003  0.23651  0.22619  1.0000
  H   H1198     1.0  0.37422  0.15488  0.23367  1.0000
  C   C702      1.0  0.36553  0.08351  0.27621  1.0000
  H   H1199     1.0  0.61784  0.22311  0.36417  1.0000
  C   C703      1.0  0.58192  0.00776  0.23875  1.0000
  H   H1200     1.0  0.57248  0.04419  0.24127  1.0000
  S   S204      1.0  0.37412  0.22404  0.06822  1.0000
  C   C704      1.0  0.37112  0.99356  0.22584  1.0000
  C   C705      1.0  0.50342  0.22905  0.28167  1.0000
  H   H1201     1.0  0.58977  0.12641  0.23393  1.0000
  H   H1202     1.0  0.63299  0.20709  0.44342  1.0000
  H   H1203     1.0  0.36635  0.01916  0.11913  1.0000
  H   H1204     1.0  0.41037  0.01261  0.21059  1.0000
  C   C706      1.0  0.55945  0.20931  0.28133  1.0000
  C   C707      1.0  0.56608  0.23485  0.33547  1.0000
  H   H1205     1.0  0.57231  0.01287  0.25578  1.0000
  H   H1206     1.0  0.36989  0.13623  0.11790  1.0000
  H   H1207     1.0  0.40163  0.03342  0.20149  1.0000
  C   C708      1.0  0.42674  0.22503  0.24767  1.0000
  H   H1208     1.0  0.60027  0.07501  0.28402  1.0000
  H   H1209     1.0  0.65875  0.09429  0.25832  1.0000
  H   H1210     1.0  0.35831  0.18746  0.13633  1.0000
  H   H1211     1.0  0.35081  0.03815  0.04424  1.0000
  H   H1212     1.0  0.60838  0.23132  0.28683  1.0000
  H   H1213     1.0  0.53551  0.00124  0.20736  1.0000
  H   H1214     1.0  0.46233  0.21955  0.47056  1.0000
  H   H1215     1.0  0.55897  0.22834  0.35442  1.0000
  C   C709      1.0  0.56525  0.19589  0.46863  1.0000
  N   N49       1.0  0.33611  0.10160  0.25438  1.0000
  H   H1216     1.0  0.36257  0.99323  0.18960  1.0000
  C   C710      1.0  0.62741  0.22671  0.40837  1.0000
  H   H1217     1.0  0.33942  0.18080  0.10529  1.0000
  H   H1218     1.0  0.54011  0.23205  0.23581  1.0000
  H   H1219     1.0  0.37391  0.23560  0.11452  1.0000
  N   N50       1.0  0.60687  0.22526  0.40560  1.0000
  H   H1220     1.0  0.38468  0.99482  0.23189  1.0000
  C   C711      1.0  0.59091  0.23566  0.42200  1.0000
  C   C712      1.0  0.63249  0.22008  0.43667  1.0000
  H   H1221     1.0  0.63962  0.22088  0.39396  1.0000
  H   H1222     1.0  0.59072  0.23091  0.44379  1.0000
  H   H1223     1.0  0.35782  0.99898  0.23941  1.0000
  H   H1224     1.0  0.59124  0.22782  0.37347  1.0000
  H   H1225     1.0  0.33904  0.04700  0.01526  1.0000
  S   S205      1.0  0.38621  0.22830  0.98708  1.0000
  H   H1226     1.0  0.51538  0.21473  0.33093  1.0000
  H   H1227     1.0  0.44425  0.23774  0.05595  1.0000
  H   H1228     1.0  0.53616  0.22413  0.32438  1.0000
  H   H1229     1.0  0.33341  0.21715  0.42114  1.0000
  N   N51       1.0  0.52365  0.22666  0.28935  1.0000
  H   H1230     1.0  0.60288  0.99272  0.08330  1.0000
  C   C713      1.0  0.59389  0.23655  0.29740  1.0000
  H   H1231     1.0  0.33311  0.06125  0.05607  1.0000
  C   C714      1.0  0.52125  0.22558  0.31899  1.0000
  C   C715      1.0  0.44892  0.23877  0.07412  1.0000
  S   S206      1.0  0.64316  0.18762  0.81033  1.0000
  Fe  Fe105     1.0  0.38575  0.20420  0.98106  1.0000
  S   S207      1.0  0.60245  0.19192  0.56741  1.0000
  H   H1232     1.0  0.48928  0.02832  0.60013  1.0000
  H   H1233     1.0  0.33955  0.12123  0.63468  1.0000
  H   H1234     1.0  0.65045  0.13552  0.78228  1.0000
  H   H1235     1.0  0.37421  0.09642  0.74113  1.0000
  S   S208      1.0  0.55326  0.20392  0.80565  1.0000
  H   H1236     1.0  0.34649  0.00126  0.78868  1.0000
  C   C716      1.0  0.56984  0.23049  0.68548  1.0000
  C   C717      1.0  0.57850  0.22121  0.70725  1.0000
  H   H1237     1.0  0.42936  0.02402  0.60766  1.0000
  H   H1238     1.0  0.58170  0.12544  0.53643  1.0000
  S   S209      1.0  0.61038  0.12478  0.67773  1.0000
  H   H1239     1.0  0.49120  0.18181  0.96366  1.0000
  S   S210      1.0  0.38529  0.01821  0.63211  1.0000
  C   C718      1.0  0.65673  0.20046  0.78498  1.0000
  H   H1240     1.0  0.34280  0.14936  0.61683  1.0000
  H   H1241     1.0  0.63528  0.21710  0.65414  1.0000
  H   H1242     1.0  0.60703  0.13338  0.60218  1.0000
  Fe  Fe106     1.0  0.36590  0.18585  0.82070  1.0000
  C   C719      1.0  0.38169  0.11958  0.65408  1.0000
  H   H1243     1.0  0.34976  0.23072  0.81741  1.0000
  H   H1244     1.0  0.33948  0.14754  0.69533  1.0000
  H   H1245     1.0  0.59476  0.14050  0.51255  1.0000
  H   H1246     1.0  0.33916  0.14914  0.58477  1.0000
  C   C720      1.0  0.65246  0.02695  0.65247  1.0000
  C   C721      1.0  0.58114  0.13374  0.58464  1.0000
  H   H1247     1.0  0.62814  0.00536  0.67767  1.0000
  C   C722      1.0  0.38898  0.12211  0.73055  1.0000
  H   H1248     1.0  0.36024  0.12425  0.60818  1.0000
  H   H1249     1.0  0.40624  0.12855  0.69018  1.0000
  H   H1250     1.0  0.61202  0.20146  0.90882  1.0000
  H   H1251     1.0  0.49852  0.20414  0.97356  1.0000
  C   C723      1.0  0.47699  0.19971  0.93141  1.0000
  H   H1252     1.0  0.46712  0.17960  0.96165  1.0000
  S   S211      1.0  0.60241  0.22881  0.56711  1.0000
  C   C724      1.0  0.62997  0.22859  0.66078  1.0000
  S   S212      1.0  0.58595  0.02625  0.68746  1.0000
  H   H1253     1.0  0.62040  0.21995  0.71408  1.0000
  S   S213      1.0  0.58841  0.22128  0.50356  1.0000
  C   C725      1.0  0.39615  0.19100  0.88977  1.0000
  H   H1254     1.0  0.33815  0.09227  0.62343  1.0000
  C   C726      1.0  0.64824  0.21609  0.85761  1.0000
  H   H1255     1.0  0.37034  0.12832  0.56562  1.0000
  H   H1256     1.0  0.35640  0.11235  0.77319  1.0000
  H   H1257     1.0  0.38286  0.07035  0.76998  1.0000
  S   S214      1.0  0.36233  0.20123  0.96027  1.0000
  H   H1258     1.0  0.65291  0.13351  0.84495  1.0000
  H   H1259     1.0  0.40475  0.02131  0.72352  1.0000
  H   H1260     1.0  0.34016  0.17532  0.71954  1.0000
  H   H1261     1.0  0.34598  0.03561  0.73951  1.0000
  C   C727      1.0  0.34719  0.15635  0.69816  1.0000
  C   C728      1.0  0.63238  0.04275  0.71745  1.0000
  C   C729      1.0  0.37696  0.19639  0.69843  1.0000
  H   H1262     1.0  0.35035  0.18783  0.88146  1.0000
  C   C730      1.0  0.49431  0.21418  0.88924  1.0000
  C   C731      1.0  0.41421  0.12229  0.77071  1.0000
  H   H1263     1.0  0.58923  0.12385  0.57465  1.0000
  H   H1264     1.0  0.64489  0.18380  0.87050  1.0000
  H   H1265     1.0  0.41029  0.13315  0.75548  1.0000
  H   H1266     1.0  0.39728  0.02293  0.69261  1.0000
  S   S215      1.0  0.41048  0.13996  0.58092  1.0000
  H   H1267     1.0  0.37418  0.01088  0.79474  1.0000
  H   H1268     1.0  0.57020  0.13916  0.51074  1.0000
  C   C732      1.0  0.34926  0.02049  0.66846  1.0000
  H   H1269     1.0  0.36888  0.23526  0.91201  1.0000
  H   H1270     1.0  0.36975  0.09746  0.62719  1.0000
  H   H1271     1.0  0.38734  0.13439  0.73302  1.0000
  H   H1272     1.0  0.65023  0.15481  0.83961  1.0000
  H   H1273     1.0  0.52403  0.20350  0.95371  1.0000
  H   H1274     1.0  0.60015  0.16507  0.53877  1.0000
  H   H1275     1.0  0.39050  0.02088  0.76786  1.0000
  H   H1276     1.0  0.59325  0.23202  0.90764  1.0000
  C   C733      1.0  0.36667  0.04260  0.65764  1.0000
  C   C734      1.0  0.36578  0.02763  0.65432  1.0000
  H   H1277     1.0  0.46909  0.19554  0.97540  1.0000
  C   C735      1.0  0.61099  0.22201  0.86080  1.0000
  C   C736      1.0  0.62996  0.02192  0.62751  1.0000
  H   H1278     1.0  0.61032  0.18900  0.50451  1.0000
  S   S216      1.0  0.65268  0.16212  0.56713  1.0000
  H   H1279     1.0  0.34326  0.15446  0.49948  1.0000
  C   C737      1.0  0.62908  0.18737  0.88085  1.0000
  H   H1280     1.0  0.50590  0.01389  0.61921  1.0000
  H   H1281     1.0  0.34620  0.22883  0.91387  1.0000
  H   H1282     1.0  0.38452  0.03715  0.71249  1.0000
  H   H1283     1.0  0.33604  0.11462  0.55771  1.0000
  C   C738      1.0  0.65558  0.04280  0.63262  1.0000
  C   C739      1.0  0.39409  0.10456  0.65883  1.0000
  C   C740      1.0  0.41184  0.10085  0.64042  1.0000
  C   C741      1.0  0.41683  0.11191  0.61669  1.0000
  N   N52       1.0  0.62790  0.21741  0.87635  1.0000
  S   S217      1.0  0.43891  0.23745  0.94951  1.0000
  H   H1284     1.0  0.42150  0.08931  0.64421  1.0000
  C   C742      1.0  0.39154  0.02442  0.71362  1.0000
  H   H1285     1.0  0.63085  0.13891  0.55595  1.0000
  H   H1286     1.0  0.52672  0.16988  0.90289  1.0000
  H   H1287     1.0  0.37881  0.10125  0.59123  1.0000
  C   C743      1.0  0.40440  0.12688  0.61168  1.0000
  C   C744      1.0  0.34656  0.09866  0.60443  1.0000
  C   C745      1.0  0.59470  0.17873  0.48432  1.0000
  Fe  Fe107     1.0  0.41995  0.22050  0.97757  1.0000
  C   C746      1.0  0.34028  0.12245  0.56803  1.0000
  H   H1288     1.0  0.64991  0.20728  0.84517  1.0000
  S   S218      1.0  0.64050  0.20829  0.53018  1.0000
  Fe  Fe108     1.0  0.38107  0.19701  0.58877  1.0000
  S   S219      1.0  0.37292  0.17164  0.54412  1.0000
  C   C747      1.0  0.38371  0.19939  0.64990  1.0000
  C   C748      1.0  0.64248  0.00108  0.66440  1.0000
  S   S220      1.0  0.38919  0.18571  0.84417  1.0000
  H   H1289     1.0  0.54711  0.17850  0.55539  1.0000
  H   H1290     1.0  0.45651  0.02220  0.59761  1.0000
  C   C749      1.0  0.65383  0.14467  0.82948  1.0000
  C   C750      1.0  0.61471  0.02180  0.71843  1.0000
  C   C751      1.0  0.60247  0.03256  0.70156  1.0000
  C   C752      1.0  0.60470  0.04853  0.69358  1.0000
  C   C753      1.0  0.61949  0.05365  0.70166  1.0000
  H   H1291     1.0  0.61300  0.00950  0.72491  1.0000
  H   H1292     1.0  0.59525  0.05692  0.68061  1.0000
  H   H1293     1.0  0.62135  0.06592  0.69497  1.0000
  S   S221      1.0  0.36243  0.20739  0.55684  1.0000
  H   H1294     1.0  0.36448  0.01662  0.71480  1.0000
  H   H1295     1.0  0.36802  0.12252  0.66840  1.0000
  H   H1296     1.0  0.66372  0.21573  0.61009  1.0000
  C   C754      1.0  0.38173  0.01113  0.77342  1.0000
  C   C755      1.0  0.35586  0.19328  0.91647  1.0000
  S   S222      1.0  0.65993  0.09226  0.68421  1.0000
  H   H1297     1.0  0.35360  0.13384  0.79813  1.0000
  C   C756      1.0  0.36155  0.18974  0.89079  1.0000
  H   H1298     1.0  0.63412  0.22157  0.78892  1.0000
  H   H1299     1.0  0.51019  0.22098  0.96466  1.0000
  C   C757      1.0  0.62981  0.02686  0.72602  1.0000
  C   C758      1.0  0.59201  0.19997  0.68286  1.0000
  H   H1300     1.0  0.62542  0.12534  0.83242  1.0000
  H   H1301     1.0  0.44537  0.00520  0.61247  1.0000
  C   C759      1.0  0.38090  0.22852  0.81872  1.0000
  C   C760      1.0  0.61590  0.15105  0.63868  1.0000
  H   H1302     1.0  0.34569  0.02911  0.80038  1.0000
  H   H1303     1.0  0.60298  0.15728  0.65049  1.0000
  H   H1304     1.0  0.61958  0.17177  0.60813  1.0000
  C   C761      1.0  0.36218  0.12415  0.55397  1.0000
  H   H1305     1.0  0.48456  0.00813  0.61435  1.0000
  C   C762      1.0  0.59113  0.13172  0.60877  1.0000
  Fe  Fe109     1.0  0.65162  0.07445  0.72220  1.0000
  H   H1306     1.0  0.57524  0.16386  0.59571  1.0000
  H   H1307     1.0  0.34842  0.00899  0.66580  1.0000
  H   H1308     1.0  0.37756  0.14243  0.62702  1.0000
  H   H1309     1.0  0.48579  0.22591  0.93636  1.0000
  S   S223      1.0  0.36930  0.20005  0.77823  1.0000
  Fe  Fe110     1.0  0.33549  0.20702  0.78762  1.0000
  H   H1310     1.0  0.42174  0.12101  0.71489  1.0000
  H   H1311     1.0  0.49008  0.20648  0.87867  1.0000
  S   S224      1.0  0.38742  0.09009  0.68728  1.0000
  C   C763      1.0  0.47638  0.18865  0.95953  1.0000
  C   C764      1.0  0.57027  0.15009  0.54299  1.0000
  N   N53       1.0  0.56163  0.16378  0.72170  1.0000
  C   C765      1.0  0.54909  0.18008  0.72376  1.0000
  C   C766      1.0  0.56811  0.16349  0.69231  1.0000
  C   C767      1.0  0.58000  0.16164  0.73376  1.0000
  C   C768      1.0  0.54871  0.15160  0.73706  1.0000
  C   C769      1.0  0.54399  0.18410  0.75180  1.0000
  C   C770      1.0  0.55090  0.16616  0.67696  1.0000
  C   C771      1.0  0.59824  0.14867  0.72624  1.0000
  C   C772      1.0  0.55627  0.13432  0.73305  1.0000
  H   H1312     1.0  0.55676  0.18957  0.70970  1.0000
  H   H1313     1.0  0.53435  0.18174  0.71761  1.0000
  H   H1314     1.0  0.57826  0.15222  0.68889  1.0000
  H   H1315     1.0  0.57744  0.17268  0.68185  1.0000
  H   H1316     1.0  0.58602  0.17286  0.72799  1.0000
  H   H1317     1.0  0.57585  0.15917  0.75599  1.0000
  H   H1318     1.0  0.54639  0.15085  0.75902  1.0000
  H   H1319     1.0  0.53302  0.15541  0.73311  1.0000
  H   H1320     1.0  0.55768  0.18504  0.75816  1.0000
  H   H1321     1.0  0.53386  0.19594  0.75099  1.0000
  H   H1322     1.0  0.53596  0.17541  0.76732  1.0000
  H   H1323     1.0  0.54050  0.15767  0.68647  1.0000
  H   H1324     1.0  0.54234  0.17858  0.67478  1.0000
  H   H1325     1.0  0.55764  0.16431  0.65630  1.0000
  H   H1326     1.0  0.59414  0.13696  0.72943  1.0000
  H   H1327     1.0  0.60935  0.14713  0.73917  1.0000
  H   H1328     1.0  0.60615  0.15219  0.70516  1.0000
  H   H1329     1.0  0.56567  0.12708  0.74779  1.0000
  H   H1330     1.0  0.56467  0.13316  0.71273  1.0000
  H   H1331     1.0  0.54298  0.12870  0.73604  1.0000
  N   N54       1.0  0.45575  0.03015  0.64568  1.0000
  C   C773      1.0  0.44754  0.03394  0.67319  1.0000
  C   C774      1.0  0.45338  0.04572  0.62548  1.0000
  C   C775      1.0  0.47794  0.02297  0.64417  1.0000
  C   C776      1.0  0.44426  0.01859  0.64229  1.0000
  C   C777      1.0  0.45022  0.01993  0.69742  1.0000
  C   C778      1.0  0.43143  0.05504  0.62592  1.0000
  C   C779      1.0  0.48972  0.01824  0.61768  1.0000
  C   C780      1.0  0.44414  0.01780  0.61325  1.0000
  H   H1332     1.0  0.45458  0.04341  0.67561  1.0000
  H   H1333     1.0  0.43098  0.03876  0.67590  1.0000
  H   H1334     1.0  0.45969  0.04422  0.60465  1.0000
  H   H1335     1.0  0.46234  0.05376  0.62855  1.0000
  H   H1336     1.0  0.48600  0.03119  0.64855  1.0000
  H   H1337     1.0  0.48014  0.01181  0.65964  1.0000
  H   H1338     1.0  0.45012  0.00636  0.65285  1.0000
  H   H1339     1.0  0.42803  0.02149  0.65198  1.0000
  H   H1340     1.0  0.36831  0.08408  0.78995  1.0000
  H   H1341     1.0  0.44147  0.02380  0.71608  1.0000
  H   H1342     1.0  0.44450  0.00957  0.69614  1.0000
  H   H1343     1.0  0.43112  0.06493  0.60793  1.0000
  H   H1344     1.0  0.42088  0.04755  0.62549  1.0000
  H   H1345     1.0  0.42566  0.06058  0.64364  1.0000
  H   H1346     1.0  0.40623  0.09956  0.78802  1.0000
  H   H1347     1.0  0.43097  0.12013  0.76777  1.0000
  S   S225      1.0  0.39732  0.20327  0.48687  1.0000
  C   C781      1.0  0.50862  0.21078  0.95723  1.0000
  H   H1348     1.0  0.55066  0.23027  0.95562  1.0000
  S   S226      1.0  0.55132  0.22202  0.86719  1.0000
  H   H1349     1.0  0.51804  0.18588  0.93545  1.0000
  N   N55       1.0  0.64786  0.01447  0.64121  1.0000
  H   H1350     1.0  0.37944  0.04815  0.64679  1.0000
  C   C782      1.0  0.57151  0.22427  0.66293  1.0000
  C   C783      1.0  0.36875  0.09485  0.60808  1.0000
  C   C784      1.0  0.37608  0.01348  0.72749  1.0000
  H   H1351     1.0  0.61872  0.19012  0.86658  1.0000
  S   S227      1.0  0.65291  0.04831  0.72468  1.0000
  C   C785      1.0  0.55762  0.21598  0.89919  1.0000
  C   C786      1.0  0.55989  0.17856  0.56456  1.0000
  H   H1352     1.0  0.55333  0.15762  0.59371  1.0000
  S   S228      1.0  0.38153  0.21144  0.61802  1.0000
  H   H1353     1.0  0.37109  0.11281  0.54870  1.0000
  C   C787      1.0  0.63696  0.21789  0.70598  1.0000
  S   S229      1.0  0.63484  0.19983  0.59644  1.0000
  C   C788      1.0  0.36444  0.13269  0.77903  1.0000
  N   N56       1.0  0.49639  0.20561  0.91761  1.0000
  C   C789      1.0  0.50001  0.21739  0.93128  1.0000
  H   H1354     1.0  0.35868  0.21472  0.84248  1.0000
  C   C790      1.0  0.38321  0.08113  0.77674  1.0000
  H   H1355     1.0  0.62514  0.17682  0.89636  1.0000
  N   N57       1.0  0.36620  0.01446  0.75604  1.0000
  H   H1356     1.0  0.61463  0.13015  0.54502  1.0000
  S   S230      1.0  0.36295  0.16387  0.80964  1.0000
  H   H1357     1.0  0.49972  0.17393  0.91110  1.0000
  C   C791      1.0  0.51453  0.19229  0.91560  1.0000
  H   H1358     1.0  0.33912  0.22002  0.51459  1.0000
  H   H1359     1.0  0.52833  0.19721  0.90468  1.0000
  H   H1360     1.0  0.56558  0.13116  0.59273  1.0000
  C   C792      1.0  0.58425  0.20551  0.49240  1.0000
  H   H1361     1.0  0.46431  0.20989  0.93401  1.0000
  C   C793      1.0  0.33737  0.21793  0.49546  1.0000
  C   C794      1.0  0.61858  0.14156  0.54437  1.0000
  H   H1362     1.0  0.47212  0.19372  0.91855  1.0000
  H   H1363     1.0  0.60602  0.15769  0.57084  1.0000
  C   C795      1.0  0.56741  0.20708  0.95054  1.0000
  C   C796      1.0  0.45468  0.16278  0.50933  1.0000
  S   S231      1.0  0.33469  0.11510  0.71957  1.0000
  H   H1364     1.0  0.41176  0.19025  0.87941  1.0000
  H   H1365     1.0  0.51328  0.18424  0.87974  1.0000
  S   S232      1.0  0.36689  0.17546  0.60564  1.0000
  N   N58       1.0  0.58038  0.14975  0.56555  1.0000
  C   C797      1.0  0.51314  0.17949  0.90147  1.0000
  C   C798      1.0  0.33346  0.02848  0.68542  1.0000
  S   S233      1.0  0.40726  0.18531  0.56125  1.0000
  Fe  Fe111     1.0  0.63617  0.22134  0.56318  1.0000
  H   H1366     1.0  0.39514  0.17010  0.49522  1.0000
  S   S234      1.0  0.62298  0.09006  0.73819  1.0000
  H   H1367     1.0  0.40163  0.19661  0.92457  1.0000
  C   C799      1.0  0.38708  0.13086  0.63068  1.0000
  C   C800      1.0  0.56723  0.16192  0.58122  1.0000
  H   H1368     1.0  0.34079  0.99792  0.73491  1.0000
  H   H1369     1.0  0.43031  0.10886  0.60212  1.0000
  H   H1370     1.0  0.37738  0.13779  0.77912  1.0000
  H   H1371     1.0  0.64180  0.14711  0.81775  1.0000
  C   C801      1.0  0.39044  0.19460  0.91539  1.0000
  C   C802      1.0  0.62320  0.13493  0.64769  1.0000
  C   C803      1.0  0.47850  0.22981  0.88625  1.0000
  C   C804      1.0  0.60097  0.15422  0.55501  1.0000
  S   S235      1.0  0.34327  0.07599  0.73800  1.0000
  C   C805      1.0  0.57383  0.19648  0.93319  1.0000
  C   C806      1.0  0.56892  0.20090  0.90757  1.0000
  C   C807      1.0  0.62535  0.15933  0.61435  1.0000
  C   C808      1.0  0.40766  0.10749  0.76772  1.0000
  H   H1372     1.0  0.37287  0.21888  0.67009  1.0000
  S   S236      1.0  0.41949  0.19721  0.96863  1.0000
  C   C809      1.0  0.66503  0.13948  0.77220  1.0000
  Fe  Fe112     1.0  0.63259  0.10839  0.70179  1.0000
  C   C810      1.0  0.33819  0.19994  0.49850  1.0000
  Fe  Fe113     1.0  0.60654  0.21405  0.53652  1.0000
  C   C811      1.0  0.37026  0.19580  0.92880  1.0000
  Fe  Fe114     1.0  0.38700  0.19331  0.53101  1.0000
  H   H1373     1.0  0.63848  0.19781  0.90743  1.0000
  H   H1374     1.0  0.63960  0.22494  0.90461  1.0000
  C   C812      1.0  0.62659  0.22873  0.89400  1.0000
  H   H1375     1.0  0.56950  0.16184  0.52874  1.0000
  C   C813      1.0  0.65289  0.23132  0.83718  1.0000
  H   H1376     1.0  0.46621  0.01627  0.69999  1.0000
  H   H1377     1.0  0.46298  0.22797  0.89632  1.0000
  C   C814      1.0  0.61347  0.12736  0.82147  1.0000
  H   H1378     1.0  0.34697  0.18505  0.66217  1.0000
  C   C815      1.0  0.58012  0.13793  0.52514  1.0000
  H   H1379     1.0  0.59143  0.11942  0.62101  1.0000
  S   S237      1.0  0.58043  0.19978  0.63691  1.0000
  C   C816      1.0  0.58122  0.14214  0.81084  1.0000
  C   C817      1.0  0.59723  0.14016  0.82388  1.0000
  C   C818      1.0  0.61450  0.11735  0.80439  1.0000
  H   H1380     1.0  0.59689  0.14829  0.83620  1.0000
  H   H1381     1.0  0.60064  0.18817  0.68186  1.0000
  H   H1382     1.0  0.42076  0.10080  0.75554  1.0000
  C   C819      1.0  0.58985  0.20602  0.70575  1.0000
  Fe  Fe115     1.0  0.56851  0.20827  0.83539  1.0000
  S   S238      1.0  0.64944  0.11884  0.72216  1.0000
  S   S239      1.0  0.56139  0.15858  0.81221  1.0000
  C   C820      1.0  0.58227  0.20889  0.66182  1.0000
  C   C821      1.0  0.58147  0.13130  0.79561  1.0000
  C   C822      1.0  0.59844  0.11926  0.79149  1.0000
  Fe  Fe116     1.0  0.57947  0.21161  0.77438  1.0000
  C   C823      1.0  0.37754  0.20614  0.67258  1.0000
  H   H1383     1.0  0.62417  0.99992  0.61962  1.0000
  C   C824      1.0  0.64010  0.12708  0.63213  1.0000
  H   H1384     1.0  0.35725  0.14984  0.71250  1.0000
  Fe  Fe117     1.0  0.64276  0.09875  0.75694  1.0000
  H   H1385     1.0  0.63499  0.02827  0.60653  1.0000
  H   H1386     1.0  0.37186  0.20155  0.71597  1.0000
  S   S240      1.0  0.59271  0.21846  0.80345  1.0000
  H   H1387     1.0  0.63572  0.19729  0.69046  1.0000
  H   H1388     1.0  0.58263  0.18482  0.93959  1.0000
  H   H1389     1.0  0.57381  0.19261  0.89442  1.0000
  H   H1390     1.0  0.44550  0.15375  0.52149  1.0000
  Fe  Fe118     1.0  0.57360  0.17999  0.81093  1.0000
  H   H1391     1.0  0.33888  0.19905  0.68218  1.0000
  H   H1392     1.0  0.37156  0.10806  0.79783  1.0000
  Fe  Fe119     1.0  0.58018  0.00101  0.69889  1.0000
  H   H1393     1.0  0.55430  0.14850  0.55116  1.0000
  Fe  Fe120     1.0  0.60153  0.20586  0.59760  1.0000
  C   C825      1.0  0.55582  0.22205  0.94233  1.0000
  C   C826      1.0  0.64187  0.15153  0.59834  1.0000
  H   H1394     1.0  0.58264  0.13983  0.62231  1.0000
  H   H1395     1.0  0.45239  0.17175  0.52159  1.0000
  H   H1396     1.0  0.35240  0.06160  0.67833  1.0000
  S   S241      1.0  0.58684  0.18359  0.84324  1.0000
  S   S242      1.0  0.59878  0.18728  0.77736  1.0000
  H   H1397     1.0  0.56875  0.13251  0.78646  1.0000
  C   C827      1.0  0.64872  0.21672  0.77828  1.0000
  C   C828      1.0  0.62680  0.20125  0.89464  1.0000
  H   H1398     1.0  0.37468  0.08191  0.60955  1.0000
  Fe  Fe121     1.0  0.39153  0.16444  0.57591  1.0000
  S   S243      1.0  0.56106  0.99566  0.67455  1.0000
  H   H1399     1.0  0.60520  0.16749  0.48595  1.0000
  Fe  Fe122     1.0  0.61004  0.19349  0.80905  1.0000
  Fe  Fe123     1.0  0.63594  0.18732  0.56409  1.0000
  N   N59       1.0  0.34992  0.23746  0.85434  1.0000
  H   H1400     1.0  0.36442  0.03962  0.75301  1.0000
  C   C829      1.0  0.38171  0.18872  0.87728  1.0000
  H   H1401     1.0  0.39543  0.16055  0.68109  1.0000
  H   H1402     1.0  0.39587  0.17771  0.63562  1.0000
  H   H1403     1.0  0.40603  0.99437  0.75302  1.0000
  S   S244      1.0  0.63628  0.10293  0.79872  1.0000
  C   C830      1.0  0.55102  0.22650  0.91668  1.0000
  C   C831      1.0  0.39034  0.17327  0.67880  1.0000
  N   N60       1.0  0.38861  0.11017  0.75693  1.0000
  H   H1404     1.0  0.59698  0.19897  0.72215  1.0000
  H   H1405     1.0  0.59895  0.11130  0.77878  1.0000
  H   H1406     1.0  0.35679  0.13999  0.76242  1.0000
  H   H1407     1.0  0.38351  0.00106  0.72595  1.0000
  Fe  Fe124     1.0  0.36359  0.17876  0.76794  1.0000
  S   S245      1.0  0.38103  0.16730  0.73351  1.0000
  H   H1408     1.0  0.60543  0.01743  0.61302  1.0000
  H   H1409     1.0  0.39545  0.07788  0.78840  1.0000
  C   C832      1.0  0.39046  0.18296  0.65304  1.0000
  H   H1410     1.0  0.40075  0.08973  0.73834  1.0000
  H   H1411     1.0  0.40775  0.12477  0.79106  1.0000
  H   H1412     1.0  0.63968  0.01840  0.73837  1.0000
  H   H1413     1.0  0.61531  0.21610  0.84345  1.0000
  C   C833      1.0  0.37009  0.11507  0.77726  1.0000
  H   H1414     1.0  0.51079  0.22476  0.91731  1.0000
  C   C834      1.0  0.38312  0.17991  0.70153  1.0000
  C   C835      1.0  0.38690  0.09461  0.75176  1.0000
  H   H1415     1.0  0.41117  0.10773  0.70365  1.0000
  C   C836      1.0  0.40823  0.11947  0.70888  1.0000
  H   H1416     1.0  0.37576  0.12245  0.72181  1.0000
  H   H1417     1.0  0.62531  0.14640  0.52320  1.0000
  H   H1418     1.0  0.55421  0.18718  0.57796  1.0000
  H   H1419     1.0  0.57204  0.18311  0.54853  1.0000
  H   H1420     1.0  0.40820  0.99471  0.78587  1.0000
  H   H1421     1.0  0.64561  0.11453  0.63878  1.0000
  C   C837      1.0  0.33264  0.23272  0.70855  1.0000
  C   C838      1.0  0.36459  0.23401  0.87310  1.0000
  H   H1422     1.0  0.64214  0.04887  0.62357  1.0000
  C   C839      1.0  0.64934  0.13536  0.60727  1.0000
  C   C840      1.0  0.35124  0.05031  0.67532  1.0000
  C   C841      1.0  0.39716  0.99536  0.77333  1.0000
  H   H1423     1.0  0.50907  0.21717  0.87724  1.0000
  C   C842      1.0  0.61605  0.01086  0.62667  1.0000
  H   H1424     1.0  0.59738  0.21749  0.87349  1.0000
  Fe  Fe125     1.0  0.34988  0.18502  0.57202  1.0000
  H   H1425     1.0  0.65988  0.19641  0.69885  1.0000
  H   H1426     1.0  0.61392  0.22863  0.67088  1.0000
  H   H1427     1.0  0.64009  0.02999  0.66919  1.0000
  C   C843      1.0  0.59756  0.19085  0.49491  1.0000
  H   H1428     1.0  0.38543  0.22090  0.80370  1.0000
  H   H1429     1.0  0.35710  0.16075  0.67912  1.0000
  C   C844      1.0  0.64324  0.20016  0.70443  1.0000
  H   H1430     1.0  0.61951  0.03118  0.63784  1.0000
  H   H1431     1.0  0.65211  0.16430  0.77611  1.0000
  Fe  Fe126     1.0  0.35404  0.09438  0.70301  1.0000
  S   S246      1.0  0.57542  0.22907  0.73564  1.0000
  C   C845      1.0  0.35285  0.00220  0.76686  1.0000
  H   H1432     1.0  0.37187  0.22124  0.87647  1.0000
  H   H1433     1.0  0.64971  0.15964  0.74625  1.0000
  H   H1434     1.0  0.34835  0.22635  0.70964  1.0000
  C   C846      1.0  0.66010  0.15750  0.76041  1.0000
  C   C847      1.0  0.35420  0.03105  0.75641  1.0000
  H   H1435     1.0  0.65796  0.05099  0.64390  1.0000
  C   C848      1.0  0.33443  0.04339  0.68896  1.0000
  N   N61       1.0  0.33660  0.11602  0.59795  1.0000
  H   H1436     1.0  0.34023  0.19413  0.92680  1.0000
  H   H1437     1.0  0.65006  0.17212  0.64779  1.0000
  H   H1438     1.0  0.36187  0.13350  0.53525  1.0000
  C   C849      1.0  0.34360  0.12561  0.61256  1.0000
  H   H1439     1.0  0.64274  0.23518  0.82243  1.0000
  H   H1440     1.0  0.65451  0.99884  0.59614  1.0000
  H   H1441     1.0  0.56381  0.23116  0.64683  1.0000
  H   H1442     1.0  0.60655  0.00738  0.64673  1.0000
  H   H1443     1.0  0.63840  0.19284  0.72464  1.0000
  C   C850      1.0  0.65984  0.22684  0.75801  1.0000
  C   C851      1.0  0.33377  0.16519  0.50645  1.0000
  C   C852      1.0  0.33552  0.00413  0.75191  1.0000
  C   C853      1.0  0.33867  0.03316  0.78240  1.0000
  H   H1444     1.0  0.64401  0.21939  0.72176  1.0000
  H   H1445     1.0  0.66064  0.21163  0.86927  1.0000
  H   H1446     1.0  0.33710  0.19432  0.52022  1.0000
  H   H1447     1.0  0.60744  0.22006  0.93286  1.0000
  H   H1448     1.0  0.66209  0.12923  0.59496  1.0000
  H   H1449     1.0  0.36188  0.99012  0.76583  1.0000
  H   H1450     1.0  0.33481  0.16935  0.64756  1.0000
  C   C854      1.0  0.60710  0.23044  0.91566  1.0000
  C   C855      1.0  0.35890  0.22751  0.83339  1.0000
  H   H1451     1.0  0.34150  0.16803  0.52017  1.0000
  H   H1452     1.0  0.63932  0.99129  0.65753  1.0000
  S   S247      1.0  0.65633  0.23818  0.56075  1.0000
  H   H1453     1.0  0.47071  0.15662  0.50617  1.0000
  C   C856      1.0  0.65825  0.99340  0.68246  1.0000
  H   H1454     1.0  0.39177  0.22378  0.83253  1.0000
  C   C857      1.0  0.33542  0.14366  0.60641  1.0000
  H   H1455     1.0  0.33295  0.21947  0.87870  1.0000
  H   H1456     1.0  0.66393  0.11581  0.81522  1.0000
  H   H1457     1.0  0.65961  0.00165  0.69432  1.0000
  H   H1458     1.0  0.35379  0.19512  0.48881  1.0000
  H   H1459     1.0  0.33480  0.21096  0.63607  1.0000
  H   H1460     1.0  0.33294  0.22916  0.66999  1.0000
  H   H1461     1.0  0.46491  0.19208  0.49309  1.0000
  H   H1462     1.0  0.34596  0.09246  0.58882  1.0000
  Fe  Fe127     1.0  0.39676  0.99247  0.64888  1.0000
  S   S248      1.0  0.41592  0.99039  0.67858  1.0000
  C   C858      1.0  0.35608  0.23730  0.90153  1.0000
  H   H1463     1.0  0.66222  0.15278  0.64328  1.0000
  C   C859      1.0  0.66517  0.16427  0.64458  1.0000
  N   N62       1.0  0.64221  0.22971  0.68011  1.0000
  C   C860      1.0  0.66467  0.22531  0.66945  1.0000
  H   H1464     1.0  0.47822  0.23464  0.86461  1.0000
  S   S249      1.0  0.56273  0.99020  0.73872  1.0000
  C   C861      1.0  0.33305  0.19207  0.67195  1.0000
  S   S250      1.0  0.57443  0.20162  0.98206  1.0000
  H   H1465     1.0  0.43106  0.17564  0.48769  1.0000
  S   S251      1.0  0.33243  0.19455  0.83088  1.0000
  S   S252      1.0  0.33228  0.09344  0.67876  1.0000
  H   H1466     1.0  0.48240  0.23911  0.89364  1.0000
  H   H1467     1.0  0.54220  0.23816  0.91037  1.0000
  H   H1468     1.0  0.44041  0.19963  0.48537  1.0000
  C   C862      1.0  0.65745  0.33265  0.19360  1.0000
  H   H1469     1.0  0.54597  0.30208  0.11986  1.0000
  C   C863      1.0  0.49811  0.30701  0.08763  1.0000
  H   H1470     1.0  0.36438  0.37861  0.17512  1.0000
  H   H1471     1.0  0.37207  0.32652  0.06173  1.0000
  C   C864      1.0  0.35519  0.33510  0.22804  1.0000
  Fe  Fe128     1.0  0.54747  0.30703  0.19073  1.0000
  S   S253      1.0  0.57445  0.29694  0.16260  1.0000
  S   S254      1.0  0.52505  0.32762  0.17311  1.0000
  Fe  Fe129     1.0  0.59244  0.29768  0.19261  1.0000
  S   S255      1.0  0.56568  0.30949  0.21895  1.0000
  Fe  Fe130     1.0  0.38603  0.29588  0.16944  1.0000
  S   S256      1.0  0.39414  0.27152  0.16011  1.0000
  S   S257      1.0  0.35424  0.30534  0.18969  1.0000
  Fe  Fe131     1.0  0.42906  0.30207  0.14800  1.0000
  S   S258      1.0  0.44062  0.27860  0.13609  1.0000
  S   S259      1.0  0.44655  0.32196  0.13743  1.0000
  Fe  Fe132     1.0  0.41166  0.28309  0.12126  1.0000
  S   S260      1.0  0.41160  0.27950  0.08047  1.0000
  Fe  Fe133     1.0  0.42229  0.26888  0.17600  1.0000
  H   H1472     1.0  0.41837  0.32378  0.22609  1.0000
  S   S261      1.0  0.40158  0.30765  0.12933  1.0000
  S   S262      1.0  0.41268  0.29218  0.18911  1.0000
  H   H1473     1.0  0.60432  0.25005  0.34199  1.0000
  H   H1474     1.0  0.34012  0.26572  0.10494  1.0000
  C   C865      1.0  0.40220  0.26149  0.05205  1.0000
  C   C866      1.0  0.40046  0.26435  0.07755  1.0000
  C   C867      1.0  0.39033  0.25495  0.10009  1.0000
  C   C868      1.0  0.33787  0.27331  0.08525  1.0000
  H   H1475     1.0  0.35003  0.36422  0.19758  1.0000
  H   H1476     1.0  0.35781  0.37810  0.20993  1.0000
  C   C869      1.0  0.50304  0.32498  0.16491  1.0000
  C   C870      1.0  0.49210  0.33814  0.14987  1.0000
  C   C871      1.0  0.47473  0.33690  0.14221  1.0000
  C   C872      1.0  0.46779  0.32253  0.14974  1.0000
  C   C873      1.0  0.47846  0.30925  0.16517  1.0000
  C   C874      1.0  0.49621  0.31046  0.17263  1.0000
  H   H1477     1.0  0.49721  0.34938  0.14383  1.0000
  H   H1478     1.0  0.46668  0.34717  0.13017  1.0000
  H   H1479     1.0  0.47320  0.29809  0.17109  1.0000
  H   H1480     1.0  0.50453  0.30024  0.18440  1.0000
  H   H1481     1.0  0.65850  0.31974  0.16352  1.0000
  H   H1482     1.0  0.51054  0.28041  0.06199  1.0000
  C   C875      1.0  0.33228  0.34403  0.13628  1.0000
  N   N63       1.0  0.50962  0.29040  0.09620  1.0000
  H   H1483     1.0  0.49005  0.25737  0.13832  1.0000
  C   C876      1.0  0.46552  0.24896  0.06379  1.0000
  H   H1484     1.0  0.51200  0.25598  0.11240  1.0000
  C   C877      1.0  0.35152  0.29223  0.12147  1.0000
  H   H1485     1.0  0.48387  0.28631  0.12839  1.0000
  S   S263      1.0  0.52349  0.24382  0.05903  1.0000
  H   H1486     1.0  0.53086  0.30520  0.04665  1.0000
  H   H1487     1.0  0.51550  0.29008  0.13507  1.0000
  C   C878      1.0  0.58428  0.25183  0.28642  1.0000
  S   S264      1.0  0.54074  0.28351  0.21447  1.0000
  C   C879      1.0  0.64643  0.33729  0.21729  1.0000
  Fe  Fe134     1.0  0.55656  0.24165  0.04172  1.0000
  H   H1488     1.0  0.52529  0.25172  0.23460  1.0000
  C   C880      1.0  0.64995  0.32314  0.18199  1.0000
  H   H1489     1.0  0.35076  0.32495  0.24421  1.0000
  C   C881      1.0  0.55674  0.24523  0.13238  1.0000
  C   C882      1.0  0.34690  0.31481  0.08380  1.0000
  H   H1490     1.0  0.34510  0.27956  0.16315  1.0000
  H   H1491     1.0  0.35398  0.26671  0.13978  1.0000
  H   H1492     1.0  0.38924  0.25688  0.11983  1.0000
  H   H1493     1.0  0.59049  0.27261  0.08035  1.0000
  C   C883      1.0  0.52095  0.28311  0.07259  1.0000
  H   H1494     1.0  0.36011  0.32685  0.13716  1.0000
  H   H1495     1.0  0.39566  0.24695  0.02930  1.0000
  C   C884      1.0  0.58093  0.26506  0.09486  1.0000
  S   S265      1.0  0.55214  0.27701  0.28497  1.0000
  C   C885      1.0  0.34503  0.33050  0.14798  1.0000
  H   H1496     1.0  0.46928  0.30310  0.08204  1.0000
  H   H1497     1.0  0.39436  0.24817  0.20772  1.0000
  C   C886      1.0  0.55669  0.25030  0.32473  1.0000
  H   H1498     1.0  0.54237  0.25567  0.33545  1.0000
  C   C887      1.0  0.39976  0.23926  0.22396  1.0000
  Fe  Fe135     1.0  0.56170  0.28458  0.24003  1.0000
  H   H1499     1.0  0.37945  0.30900  0.08556  1.0000
  H   H1500     1.0  0.61936  0.33563  0.24773  1.0000
  H   H1501     1.0  0.51381  0.25085  0.32194  1.0000
  C   C888      1.0  0.66183  0.30727  0.26976  1.0000
  S   S266      1.0  0.57466  0.25642  0.05171  1.0000
  C   C889      1.0  0.57876  0.26428  0.12239  1.0000
  H   H1502     1.0  0.38901  0.36441  0.14402  1.0000
  H   H1503     1.0  0.58677  0.27111  0.12908  1.0000
  H   H1504     1.0  0.49000  0.31192  0.10559  1.0000
  H   H1505     1.0  0.53570  0.27940  0.11489  1.0000
  C   C890      1.0  0.53618  0.29221  0.05148  1.0000
  C   C891      1.0  0.57111  0.25586  0.08610  1.0000
  H   H1506     1.0  0.56682  0.24410  0.39780  1.0000
  H   H1507     1.0  0.37852  0.35363  0.12799  1.0000
  C   C892      1.0  0.49427  0.28033  0.11258  1.0000
  H   H1508     1.0  0.60645  0.31860  0.22750  1.0000
  C   C893      1.0  0.63147  0.31806  0.19399  1.0000
  C   C894      1.0  0.34416  0.27818  0.14309  1.0000
  H   H1509     1.0  0.41024  0.26860  0.03454  1.0000
  S   S267      1.0  0.65509  0.34920  0.23293  1.0000
  C   C895      1.0  0.56696  0.25413  0.14117  1.0000
  H   H1510     1.0  0.35136  0.30159  0.13209  1.0000
  H   H1511     1.0  0.55105  0.28944  0.05768  1.0000
  H   H1512     1.0  0.43770  0.33246  0.20195  1.0000
  S   S268      1.0  0.56548  0.25176  0.17569  1.0000
  Fe  Fe136     1.0  0.56894  0.27330  0.18831  1.0000
  C   C896      1.0  0.50288  0.26334  0.12684  1.0000
  C   C897      1.0  0.48235  0.30869  0.07037  1.0000
  H   H1513     1.0  0.51194  0.26331  0.14154  1.0000
  H   H1514     1.0  0.65888  0.29657  0.28543  1.0000
  S   S269      1.0  0.43734  0.24680  0.20173  1.0000
  H   H1515     1.0  0.54291  0.30683  0.08582  1.0000
  H   H1516     1.0  0.37427  0.30766  0.05417  1.0000
  S   S270      1.0  0.58967  0.27274  0.21543  1.0000
  C   C898      1.0  0.53346  0.24063  0.27402  1.0000
  C   C899      1.0  0.48012  0.25491  0.98654  1.0000
  H   H1517     1.0  0.52996  0.27123  0.07958  1.0000
  C   C900      1.0  0.53467  0.30460  0.10683  1.0000
  C   C901      1.0  0.62059  0.32253  0.21788  1.0000
  C   C902      1.0  0.62797  0.33218  0.22933  1.0000
  H   H1518     1.0  0.53848  0.28846  0.03219  1.0000
  C   C903      1.0  0.52379  0.29036  0.11398  1.0000
  H   H1519     1.0  0.48450  0.27883  0.09986  1.0000
  N   N64       1.0  0.58446  0.35321  0.15604  1.0000
  C   C904      1.0  0.57934  0.33921  0.14943  1.0000
  C   C905      1.0  0.57859  0.35137  0.18612  1.0000
  C   C906      1.0  0.60703  0.35246  0.14682  1.0000
  C   C907      1.0  0.57282  0.36817  0.14129  1.0000
  C   C908      1.0  0.58697  0.33714  0.12015  1.0000
  C   C909      1.0  0.55573  0.35288  0.19799  1.0000
  C   C910      1.0  0.61729  0.36131  0.15983  1.0000
  C   C911      1.0  0.57362  0.38401  0.14761  1.0000
  H   H1520     1.0  0.58555  0.32788  0.16240  1.0000
  H   H1521     1.0  0.56271  0.33983  0.15361  1.0000
  H   H1522     1.0  0.58371  0.36013  0.19329  1.0000
  H   H1523     1.0  0.58635  0.33962  0.19620  1.0000
  H   H1524     1.0  0.61525  0.33990  0.15058  1.0000
  H   H1525     1.0  0.61089  0.35693  0.12471  1.0000
  H   H1526     1.0  0.57832  0.36957  0.11925  1.0000
  H   H1527     1.0  0.55660  0.36742  0.14399  1.0000
  H   H1528     1.0  0.58090  0.34757  0.10552  1.0000
  H   H1529     1.0  0.60374  0.33440  0.11486  1.0000
  H   H1530     1.0  0.58159  0.32682  0.11793  1.0000
  H   H1531     1.0  0.55341  0.35121  0.22014  1.0000
  H   H1532     1.0  0.54711  0.36480  0.19043  1.0000
  H   H1533     1.0  0.54917  0.34362  0.19432  1.0000
  H   H1534     1.0  0.61044  0.37403  0.15812  1.0000
  H   H1535     1.0  0.63341  0.36062  0.14959  1.0000
  H   H1536     1.0  0.61747  0.35552  0.18119  1.0000
  H   H1537     1.0  0.58627  0.38933  0.13372  1.0000
  H   H1538     1.0  0.57482  0.38306  0.16854  1.0000
  H   H1539     1.0  0.55921  0.39249  0.14504  1.0000
  N   N65       1.0  0.38702  0.34298  0.19387  1.0000
  C   C912      1.0  0.40960  0.33699  0.18761  1.0000
  C   C913      1.0  0.37879  0.34265  0.17006  1.0000
  C   C914      1.0  0.37825  0.33145  0.21806  1.0000
  C   C915      1.0  0.38320  0.35942  0.19942  1.0000
  C   C916      1.0  0.42117  0.33454  0.21039  1.0000
  C   C917      1.0  0.38810  0.35233  0.14283  1.0000
  H   H1540     1.0  0.49470  0.24130  0.28238  1.0000
  C   C918      1.0  0.36949  0.31420  0.07070  1.0000
  H   H1541     1.0  0.41294  0.32547  0.18125  1.0000
  H   H1542     1.0  0.41708  0.34528  0.17035  1.0000
  H   H1543     1.0  0.36223  0.34686  0.17282  1.0000
  H   H1544     1.0  0.38111  0.33018  0.16774  1.0000
  H   H1545     1.0  0.38217  0.31921  0.21405  1.0000
  H   H1546     1.0  0.38479  0.33071  0.23571  1.0000
  H   H1547     1.0  0.38468  0.35866  0.22034  1.0000
  H   H1548     1.0  0.39500  0.36605  0.18612  1.0000
  H   H1549     1.0  0.59443  0.24775  0.41794  1.0000
  C   C919      1.0  0.38170  0.24288  0.09705  1.0000
  H   H1550     1.0  0.41765  0.34508  0.21947  1.0000
  H   H1551     1.0  0.65798  0.30580  0.25135  1.0000
  C   C920      1.0  0.33831  0.32193  0.17371  1.0000
  H   H1552     1.0  0.43559  0.24594  0.08485  1.0000
  H   H1553     1.0  0.46893  0.25307  0.08009  1.0000
  H   H1554     1.0  0.34652  0.33632  0.21233  1.0000
  S   S271      1.0  0.55288  0.24410  0.99959  1.0000
  C   C921      1.0  0.47596  0.23954  0.99688  1.0000
  H   H1555     1.0  0.40338  0.34601  0.13480  1.0000
  H   H1556     1.0  0.47609  0.32152  0.06378  1.0000
  H   H1557     1.0  0.48908  0.30390  0.05201  1.0000
  C   C922      1.0  0.60643  0.24782  0.36303  1.0000
  S   S272      1.0  0.62222  0.30678  0.17779  1.0000
  C   C923      1.0  0.55866  0.24621  0.10486  1.0000
  C   C924      1.0  0.56547  0.25863  0.29976  1.0000
  H   H1558     1.0  0.50828  0.31540  0.07626  1.0000
  H   H1559     1.0  0.59156  0.25838  0.26778  1.0000
  C   C925      1.0  0.36266  0.37035  0.19509  1.0000
  H   H1560     1.0  0.52382  0.25196  0.27854  1.0000
  H   H1561     1.0  0.52390  0.31556  0.11104  1.0000
  H   H1562     1.0  0.33807  0.32095  0.06769  1.0000
  C   C926      1.0  0.39394  0.24924  0.04905  1.0000
  H   H1563     1.0  0.35055  0.34574  0.23701  1.0000
  H   H1564     1.0  0.47962  0.24270  0.05292  1.0000
  H   H1565     1.0  0.36388  0.28423  0.07445  1.0000
  H   H1566     1.0  0.59428  0.25624  0.37297  1.0000
  H   H1567     1.0  0.55869  0.24490  0.43239  1.0000
  H   H1568     1.0  0.54769  0.24018  0.28057  1.0000
  H   H1569     1.0  0.34551  0.26597  0.07010  1.0000
  C   C927      1.0  0.53779  0.24307  0.24314  1.0000
  H   H1570     1.0  0.46002  0.25983  0.04933  1.0000
  H   H1571     1.0  0.49187  0.24210  0.32644  1.0000
  H   H1572     1.0  0.44631  0.24733  0.12151  1.0000
  C   C928      1.0  0.38360  0.23995  0.07153  1.0000
  H   H1573     1.0  0.62139  0.25054  0.36206  1.0000
  H   H1574     1.0  0.36794  0.28807  0.11421  1.0000
  C   C929      1.0  0.34720  0.28834  0.07814  1.0000
  C   C930      1.0  0.50747  0.23984  0.33006  1.0000
  H   H1575     1.0  0.65139  0.31802  0.27538  1.0000
  S   S273      1.0  0.49624  0.26216  0.99953  1.0000
  H   H1576     1.0  0.55207  0.24772  0.23479  1.0000
  N   N66       1.0  0.34079  0.29903  0.09807  1.0000
  H   H1577     1.0  0.34340  0.32300  0.09779  1.0000
  H   H1578     1.0  0.34358  0.29504  0.05825  1.0000
  H   H1579     1.0  0.33764  0.35070  0.11646  1.0000
  Fe  Fe137     1.0  0.52017  0.24383  0.01784  1.0000
  H   H1580     1.0  0.66435  0.32268  0.30863  1.0000
  H   H1581     1.0  0.62897  0.23940  0.40299  1.0000
  H   H1582     1.0  0.55077  0.23933  0.09811  1.0000
  H   H1583     1.0  0.59984  0.24172  0.83012  1.0000
  C   C931      1.0  0.34704  0.25467  0.83994  1.0000
  H   H1584     1.0  0.34691  0.27094  0.86517  1.0000
  H   H1585     1.0  0.56121  0.24231  0.68644  1.0000
  H   H1586     1.0  0.65365  0.23941  0.75286  1.0000
  H   H1587     1.0  0.61982  0.23933  0.62319  1.0000
  H   H1588     1.0  0.38259  0.24072  0.80760  1.0000
  H   H1589     1.0  0.36195  0.25809  0.83016  1.0000
  H   H1590     1.0  0.61455  0.24772  0.84746  1.0000
  H   H1591     1.0  0.47431  0.27672  0.95748  1.0000
  H   H1592     1.0  0.64075  0.25527  0.66840  1.0000
  H   H1593     1.0  0.64704  0.24640  0.70032  1.0000
  C   C932      1.0  0.63727  0.24595  0.68664  1.0000
  H   H1594     1.0  0.61281  0.26418  0.70075  1.0000
  C   C933      1.0  0.61516  0.25145  0.70006  1.0000
  C   C934      1.0  0.45846  0.25938  0.95440  1.0000
  C   C935      1.0  0.62960  0.24168  0.63505  1.0000
  H   H1595     1.0  0.45192  0.26704  0.93776  1.0000
  H   H1596     1.0  0.61174  0.24486  0.72118  1.0000
  H   H1597     1.0  0.64466  0.24165  0.62192  1.0000
  H   H1598     1.0  0.62293  0.25364  0.63933  1.0000
  C   C936      1.0  0.33601  0.26711  0.85697  1.0000
  C   C937      1.0  0.45405  0.24416  0.96488  1.0000
  H   H1599     1.0  0.34454  0.24510  0.66910  1.0000
  C   C938      1.0  0.47115  0.26485  0.96552  1.0000
  H   H1600     1.0  0.60409  0.25040  0.68889  1.0000
  H   H1601     1.0  0.37723  0.24063  0.86395  1.0000
  H   H1602     1.0  0.58913  0.24440  0.86301  1.0000
  H   H1603     1.0  0.34196  0.24542  0.62529  1.0000
  H   H1604     1.0  0.34793  0.24962  0.90154  1.0000
  H   H1605     1.0  0.33936  0.25677  0.82271  1.0000
  H   H1606     1.0  0.65249  0.24113  0.84681  1.0000
  H   H1607     1.0  0.62802  0.24085  0.88230  1.0000
  C   C939      1.0  0.60360  0.23999  0.85015  1.0000
  H   H1608     1.0  0.60584  0.24104  0.92391  1.0000
  H   H1609     1.0  0.64280  0.65905  0.76508  1.0000
  H   H1610     1.0  0.42174  0.72001  0.60764  1.0000
  H   H1611     1.0  0.65624  0.68075  0.69538  1.0000
  C   C940      1.0  0.40894  0.70409  0.66703  1.0000
  C   C941      1.0  0.66007  0.73529  0.74326  1.0000
  C   C942      1.0  0.39857  0.72044  0.65271  1.0000
  N   N67       1.0  0.41181  0.73273  0.63983  1.0000
  C   C943      1.0  0.63475  0.72910  0.72516  1.0000
  C   C944      1.0  0.34245  0.72916  0.68923  1.0000
  C   C945      1.0  0.42805  0.72669  0.61791  1.0000
  H   H1612     1.0  0.65521  0.65152  0.79332  1.0000
  C   C946      1.0  0.65449  0.72565  0.73013  1.0000
  H   H1613     1.0  0.38565  0.72493  0.66776  1.0000
  H   H1614     1.0  0.64470  0.63869  0.78185  1.0000
  C   C947      1.0  0.65292  0.64878  0.77501  1.0000
  H   H1615     1.0  0.44049  0.71803  0.62668  1.0000
  H   H1616     1.0  0.42975  0.72381  0.67104  1.0000
  H   H1617     1.0  0.42308  0.69908  0.65438  1.0000
  H   H1618     1.0  0.41191  0.70466  0.68653  1.0000
  H   H1619     1.0  0.39168  0.71794  0.63761  1.0000
  H   H1620     1.0  0.39848  0.69559  0.67184  1.0000
  H   H1621     1.0  0.63034  0.72170  0.71500  1.0000
  C   C948      1.0  0.65757  0.67342  0.71574  1.0000
  C   C949      1.0  0.42086  0.73513  0.66149  1.0000
  H   H1622     1.0  0.64740  0.66476  0.72029  1.0000
  H   H1623     1.0  0.34750  0.71989  0.70546  1.0000
  H   H1624     1.0  0.45400  0.73423  0.58864  1.0000
  H   H1625     1.0  0.65222  0.68173  0.72956  1.0000
  H   H1626     1.0  0.40864  0.73911  0.67791  1.0000
  C   C950      1.0  0.37495  0.89209  0.15438  1.0000
  Fe  Fe138     1.0  0.61171  0.90014  0.10810  1.0000
  S   S274      1.0  0.64556  0.89384  0.09784  1.0000
  S   S275      1.0  0.59774  0.91235  0.14256  1.0000
  Fe  Fe139     1.0  0.60583  0.89055  0.05893  1.0000
  S   S276      1.0  0.63917  0.88369  0.04470  1.0000
  S   S277      1.0  0.58219  0.88781  0.03813  1.0000
  Fe  Fe140     1.0  0.64016  0.87235  0.08789  1.0000
  S   S278      1.0  0.33379  0.86555  0.31404  1.0000
  Fe  Fe141     1.0  0.64140  0.90575  0.05604  1.0000
  H   H1627     1.0  0.53158  0.91340  0.43585  1.0000
  S   S279      1.0  0.60646  0.87753  0.10172  1.0000
  S   S280      1.0  0.60791  0.91379  0.06666  1.0000
  Fe  Fe142     1.0  0.60907  0.88194  0.28920  1.0000
  S   S281      1.0  0.63686  0.89257  0.28037  1.0000
  S   S282      1.0  0.60307  0.87057  0.25907  1.0000
  Fe  Fe143     1.0  0.59715  0.88598  0.34710  1.0000
  S   S283      1.0  0.62389  0.89687  0.34294  1.0000
  S   S284      1.0  0.57583  0.88035  0.38686  1.0000
  Fe  Fe144     1.0  0.61651  0.91045  0.30325  1.0000
  S   S285      1.0  0.61999  0.93585  0.29334  1.0000
  Fe  Fe145     1.0  0.64168  0.87804  0.32075  1.0000
  H   H1628     1.0  0.33748  0.94945  0.98984  1.0000
  S   S286      1.0  0.58806  0.90112  0.30884  1.0000
  S   S287      1.0  0.61557  0.86584  0.32806  1.0000
  C   C951      1.0  0.65023  0.95517  0.07371  1.0000
  C   C952      1.0  0.58926  0.84178  0.05875  1.0000
  H   H1629     1.0  0.63942  0.86431  0.48388  1.0000
  H   H1630     1.0  0.64574  0.84984  0.00848  1.0000
  C   C953      1.0  0.38075  0.93834  0.98544  1.0000
  H   H1631     1.0  0.64080  0.86899  0.38534  1.0000
  H   H1632     1.0  0.56357  0.98190  0.08350  1.0000
  S   S288      1.0  0.59341  0.97840  0.18707  1.0000
  H   H1633     1.0  0.66313  0.84534  0.39823  1.0000
  C   C954      1.0  0.36455  0.87971  0.15871  1.0000
  C   C955      1.0  0.35058  0.96053  0.20241  1.0000
  H   H1634     1.0  0.64238  0.85481  0.20205  1.0000
  H   H1635     1.0  0.56950  0.84926  0.09386  1.0000
  C   C956      1.0  0.56727  0.88460  0.43846  1.0000
  H   H1636     1.0  0.34411  0.91511  0.16453  1.0000
  Fe  Fe146     1.0  0.33704  0.91218  0.05533  1.0000
  C   C957      1.0  0.42821  0.82698  0.30241  1.0000
  H   H1637     1.0  0.61045  0.96013  0.07476  1.0000
  H   H1638     1.0  0.54808  0.97569  0.14236  1.0000
  H   H1639     1.0  0.64482  0.88175  0.19683  1.0000
  S   S289      1.0  0.66156  0.92194  0.02871  1.0000
  H   H1640     1.0  0.51564  0.90601  0.34401  1.0000
  H   H1641     1.0  0.64646  0.95567  0.09468  1.0000
  H   H1642     1.0  0.39781  0.84196  0.02110  1.0000
  H   H1643     1.0  0.61965  0.88590  0.99800  1.0000
  H   H1644     1.0  0.61936  0.82271  0.09935  1.0000
  H   H1645     1.0  0.50372  0.87047  0.42757  1.0000
  H   H1646     1.0  0.37163  0.89352  0.21959  1.0000
  C   C958      1.0  0.47985  0.92391  0.41143  1.0000
  H   H1647     1.0  0.36796  0.93723  0.19917  1.0000
  H   H1648     1.0  0.60343  0.85689  0.42108  1.0000
  H   H1649     1.0  0.62725  0.84331  0.42219  1.0000
  C   C959      1.0  0.62971  0.86868  0.40469  1.0000
  C   C960      1.0  0.57545  0.89059  0.41158  1.0000
  H   H1650     1.0  0.36192  0.87842  0.46385  1.0000
  H   H1651     1.0  0.46490  0.83036  0.00216  1.0000
  H   H1652     1.0  0.35397  0.92457  0.24586  1.0000
  C   C961      1.0  0.58231  0.91272  0.42485  1.0000
  C   C962      1.0  0.58276  0.90477  0.40477  1.0000
  Fe  Fe147     1.0  0.34550  0.87687  0.07853  1.0000
  H   H1653     1.0  0.41765  0.96645  0.18518  1.0000
  H   H1654     1.0  0.58815  0.92363  0.41950  1.0000
  H   H1655     1.0  0.58868  0.90969  0.38402  1.0000
  C   C963      1.0  0.61238  0.94722  0.26375  1.0000
  C   C964      1.0  0.61907  0.96157  0.25222  1.0000
  C   C965      1.0  0.61338  0.97097  0.22850  1.0000
  C   C966      1.0  0.60054  0.96629  0.21658  1.0000
  C   C967      1.0  0.59372  0.95193  0.22811  1.0000
  C   C968      1.0  0.59990  0.94224  0.25157  1.0000
  H   H1656     1.0  0.62872  0.96542  0.26163  1.0000
  C   C969      1.0  0.55511  0.96297  0.14747  1.0000
  H   H1657     1.0  0.58393  0.94819  0.21876  1.0000
  H   H1658     1.0  0.59478  0.93110  0.26042  1.0000
  H   H1659     1.0  0.54268  0.95624  0.15720  1.0000
  H   H1660     1.0  0.64425  0.91018  0.40550  1.0000
  N   N68       1.0  0.61083  0.83582  0.04607  1.0000
  H   H1661     1.0  0.60768  0.84904  0.00590  1.0000
  H   H1662     1.0  0.48389  0.93572  0.40158  1.0000
  H   H1663     1.0  0.61955  0.85127  0.39107  1.0000
  H   H1664     1.0  0.65640  0.84982  0.25813  1.0000
  H   H1665     1.0  0.66502  0.94426  0.26086  1.0000
  C   C970      1.0  0.58515  0.95509  0.06374  1.0000
  H   H1666     1.0  0.41669  0.82175  0.31859  1.0000
  C   C971      1.0  0.58888  0.88240  0.00663  1.0000
  C   C972      1.0  0.52638  0.92207  0.41833  1.0000
  C   C973      1.0  0.65447  0.87277  0.20983  1.0000
  S   S290      1.0  0.35693  0.96876  0.16808  1.0000
  H   H1667     1.0  0.55925  0.87786  0.00915  1.0000
  C   C974      1.0  0.60015  0.90063  0.17464  1.0000
  C   C975      1.0  0.59966  0.90793  0.19554  1.0000
  C   C976      1.0  0.60089  0.89878  0.22147  1.0000
  C   C977      1.0  0.60200  0.88235  0.22674  1.0000
  C   C978      1.0  0.60244  0.87506  0.20588  1.0000
  C   C979      1.0  0.60188  0.88414  0.17978  1.0000
  H   H1668     1.0  0.59832  0.92067  0.19176  1.0000
  H   H1669     1.0  0.60053  0.90448  0.23748  1.0000
  H   H1670     1.0  0.60314  0.86237  0.20993  1.0000
  H   H1671     1.0  0.60211  0.87844  0.16383  1.0000
  C   C980      1.0  0.34954  0.93722  0.23873  1.0000
  C   C981      1.0  0.57598  0.98153  0.09374  1.0000
  H   H1672     1.0  0.53736  0.93026  0.41071  1.0000
  S   S291      1.0  0.40069  0.89210  0.99649  1.0000
  H   H1673     1.0  0.35317  0.90169  0.35948  1.0000
  H   H1674     1.0  0.65099  0.92989  0.08143  1.0000
  S   S292      1.0  0.33469  0.89799  0.09767  1.0000
  C   C982      1.0  0.38712  0.87528  0.39393  1.0000
  H   H1675     1.0  0.33666  0.89691  0.44332  1.0000
  H   H1676     1.0  0.60957  0.88163  0.44566  1.0000
  C   C983      1.0  0.62221  0.87182  0.45105  1.0000
  S   S293      1.0  0.57565  0.91623  0.47666  1.0000
  H   H1677     1.0  0.61199  0.97000  0.11153  1.0000
  C   C984      1.0  0.33811  0.86689  0.43992  1.0000
  H   H1678     1.0  0.37704  0.83232  0.32623  1.0000
  H   H1679     1.0  0.64754  0.84539  0.44669  1.0000
  C   C985      1.0  0.33530  0.94635  0.25537  1.0000
  H   H1680     1.0  0.40574  0.85989  0.20674  1.0000
  H   H1681     1.0  0.42833  0.86207  0.28570  1.0000
  C   C986      1.0  0.62849  0.87461  0.47539  1.0000
  N   N69       1.0  0.40116  0.84642  0.27666  1.0000
  C   C987      1.0  0.35750  0.94440  0.21235  1.0000
  H   H1682     1.0  0.61851  0.98207  0.21991  1.0000
  S   S294      1.0  0.35926  0.89458  0.28526  1.0000
  H   H1683     1.0  0.41068  0.85826  0.00966  1.0000
  C   C988      1.0  0.61121  0.83651  0.01694  1.0000
  S   S295      1.0  0.37188  0.86940  0.35467  1.0000
  C   C989      1.0  0.40317  0.85067  0.22546  1.0000
  H   H1684     1.0  0.54100  0.90357  0.34991  1.0000
  C   C990      1.0  0.63490  0.90080  0.41277  1.0000
  H   H1685     1.0  0.38788  0.86755  0.25044  1.0000
  H   H1686     1.0  0.52421  0.92332  0.37758  1.0000
  C   C991      1.0  0.59668  0.82752  0.01152  1.0000
  H   H1687     1.0  0.39069  0.97152  0.19170  1.0000
  C   C992      1.0  0.65762  0.83967  0.24869  1.0000
  C   C993      1.0  0.37885  0.82687  0.30887  1.0000
  H   H1688     1.0  0.49631  0.87499  0.46002  1.0000
  H   H1689     1.0  0.34255  0.92681  0.11615  1.0000
  H   H1690     1.0  0.38504  0.83137  0.26627  1.0000
  H   H1691     1.0  0.39840  0.84830  0.31797  1.0000
  H   H1692     1.0  0.61679  0.85953  0.03924  1.0000
  H   H1693     1.0  0.43349  0.83984  0.26182  1.0000
  C   C994      1.0  0.49713  0.88033  0.43827  1.0000
  H   H1694     1.0  0.38889  0.84704  0.22576  1.0000
  H   H1695     1.0  0.57923  0.96710  0.05272  1.0000
  H   H1696     1.0  0.62456  0.90332  0.43152  1.0000
  H   H1697     1.0  0.57277  0.94824  0.07240  1.0000
  H   H1698     1.0  0.42400  0.83880  0.02233  1.0000
  H   H1699     1.0  0.59516  0.84964  0.09241  1.0000
  H   H1700     1.0  0.38215  0.86318  0.29996  1.0000
  H   H1701     1.0  0.59596  0.94894  0.04856  1.0000
  H   H1702     1.0  0.36418  0.82333  0.31066  1.0000
  H   H1703     1.0  0.63107  0.80342  0.09333  1.0000
  H   H1704     1.0  0.39618  0.86345  0.39480  1.0000
  C   C995      1.0  0.61818  0.81883  0.05957  1.0000
  S   S296      1.0  0.34499  0.89104  0.03672  1.0000
  C   C996      1.0  0.37431  0.88140  0.37523  1.0000
  H   H1705     1.0  0.44673  0.85455  0.99222  1.0000
  N   N70       1.0  0.58453  0.96468  0.10633  1.0000
  C   C997      1.0  0.59647  0.95547  0.08533  1.0000
  C   C998      1.0  0.59847  0.96519  0.12388  1.0000
  C   C999      1.0  0.56724  0.95657  0.12239  1.0000
  C   C1000     1.0  0.60659  0.94911  0.14133  1.0000
  C   C1001     1.0  0.64903  0.88440  0.41727  1.0000
  C   C1002     1.0  0.57436  0.87783  0.99721  1.0000
  H   H1706     1.0  0.60183  0.94285  0.09479  1.0000
  H   H1707     1.0  0.59099  0.97355  0.13739  1.0000
  H   H1708     1.0  0.50423  0.90096  0.44466  1.0000
  H   H1709     1.0  0.55611  0.95754  0.10974  1.0000
  H   H1710     1.0  0.57264  0.94357  0.12898  1.0000
  H   H1711     1.0  0.61709  0.94101  0.12895  1.0000
  H   H1712     1.0  0.61518  0.95109  0.15497  1.0000
  H   H1713     1.0  0.59438  0.94314  0.15461  1.0000
  H   H1714     1.0  0.62939  0.81232  0.04508  1.0000
  H   H1715     1.0  0.48192  0.92090  0.43239  1.0000
  H   H1716     1.0  0.35399  0.91735  0.39167  1.0000
  S   S297      1.0  0.37362  0.91025  0.43607  1.0000
  H   H1717     1.0  0.36907  0.87648  0.99421  1.0000
  C   C1003     1.0  0.56687  0.89252  0.45855  1.0000
  H   H1718     1.0  0.44538  0.81831  0.01146  1.0000
  H   H1719     1.0  0.39036  0.81576  0.31004  1.0000
  C   C1004     1.0  0.63661  0.83531  0.25423  1.0000
  H   H1720     1.0  0.49342  0.91777  0.37384  1.0000
  H   H1721     1.0  0.56446  0.96123  0.16270  1.0000
  S   S298      1.0  0.37874  0.87586  0.07497  1.0000
  C   C1005     1.0  0.52653  0.91383  0.39575  1.0000
  C   C1006     1.0  0.62849  0.81627  0.08371  1.0000
  C   C1007     1.0  0.41250  0.84543  0.01024  1.0000
  C   C1008     1.0  0.61937  0.85423  0.41041  1.0000
  C   C1009     1.0  0.35935  0.87719  0.20692  1.0000
  C   C1010     1.0  0.36277  0.89672  0.37412  1.0000
  C   C1011     1.0  0.62392  0.84700  0.04669  1.0000
  H   H1722     1.0  0.63785  0.82245  0.25532  1.0000
  H   H1723     1.0  0.46336  0.92480  0.41305  1.0000
  C   C1012     1.0  0.37545  0.89930  0.41174  1.0000
  S   S299      1.0  0.36912  0.91446  0.05069  1.0000
  H   H1724     1.0  0.39710  0.87924  0.42714  1.0000
  C   C1013     1.0  0.39774  0.85599  0.29776  1.0000
  H   H1725     1.0  0.54240  0.90748  0.39095  1.0000
  S   S300      1.0  0.38204  0.90305  0.12178  1.0000
  C   C1014     1.0  0.36985  0.88952  0.20270  1.0000
  Fe  Fe148     1.0  0.37710  0.89221  0.03468  1.0000
  S   S301      1.0  0.64509  0.97026  0.14031  1.0000
  C   C1015     1.0  0.57468  0.90650  0.45186  1.0000
  H   H1726     1.0  0.36208  0.87609  0.14183  1.0000
  H   H1727     1.0  0.36704  0.94107  0.00063  1.0000
  H   H1728     1.0  0.62607  0.90218  0.39716  1.0000
  H   H1729     1.0  0.37035  0.84971  0.46037  1.0000
  H   H1730     1.0  0.57904  0.83404  0.05807  1.0000
  Fe  Fe149     1.0  0.34953  0.88076  0.32706  1.0000
  Fe  Fe150     1.0  0.39037  0.90054  0.47045  1.0000
  H   H1731     1.0  0.51153  0.92930  0.42497  1.0000
  H   H1732     1.0  0.33368  0.93003  0.19728  1.0000
  H   H1733     1.0  0.64105  0.93938  0.20580  1.0000
  H   H1734     1.0  0.58628  0.83086  0.10176  1.0000
  H   H1735     1.0  0.61777  0.87922  0.40000  1.0000
  H   H1736     1.0  0.61526  0.86101  0.45842  1.0000
  H   H1737     1.0  0.37034  0.98075  0.23032  1.0000
  H   H1738     1.0  0.62727  0.84240  0.23944  1.0000
  S   S302      1.0  0.34890  0.86779  0.23934  1.0000
  C   C1016     1.0  0.65798  0.93987  0.03897  1.0000
  H   H1739     1.0  0.56137  0.87372  0.44383  1.0000
  H   H1740     1.0  0.65859  0.97898  0.01150  1.0000
  C   C1017     1.0  0.38763  0.88419  0.41228  1.0000
  H   H1741     1.0  0.64357  0.81974  0.07734  1.0000
  H   H1742     1.0  0.58350  0.85379  0.04723  1.0000
  H   H1743     1.0  0.60548  0.81217  0.06658  1.0000
  Fe  Fe151     1.0  0.34109  0.88082  0.27295  1.0000
  C   C1018     1.0  0.52789  0.89769  0.35339  1.0000
  N   N71       1.0  0.63887  0.87012  0.42690  1.0000
  C   C1019     1.0  0.45840  0.82193  0.99603  1.0000
  H   H1744     1.0  0.44144  0.81726  0.29915  1.0000
  H   H1745     1.0  0.53324  0.88779  0.34254  1.0000
  C   C1020     1.0  0.42079  0.83445  0.27567  1.0000
  H   H1746     1.0  0.62527  0.84662  0.06743  1.0000
  S   S303      1.0  0.41872  0.88204  0.47158  1.0000
  H   H1747     1.0  0.52567  0.88714  0.43415  1.0000
  H   H1748     1.0  0.41469  0.86404  0.24459  1.0000
  C   C1021     1.0  0.36332  0.90561  0.39232  1.0000
  C   C1022     1.0  0.58526  0.84283  0.08838  1.0000
  C   C1023     1.0  0.37804  0.89673  0.17641  1.0000
  C   C1024     1.0  0.38330  0.83841  0.28162  1.0000
  C   C1025     1.0  0.40157  0.85793  0.24977  1.0000
  C   C1026     1.0  0.51035  0.89317  0.43008  1.0000
  C   C1027     1.0  0.65280  0.94058  0.06620  1.0000
  C   C1028     1.0  0.35710  0.87209  0.18495  1.0000
  H   H1749     1.0  0.36924  0.84750  0.27977  1.0000
  H   H1750     1.0  0.41597  0.84048  0.22397  1.0000
  H   H1751     1.0  0.41986  0.82449  0.26705  1.0000
  H   H1752     1.0  0.40798  0.87853  0.27785  1.0000
  H   H1753     1.0  0.56044  0.88784  0.47915  1.0000
  H   H1754     1.0  0.50933  0.88348  0.38432  1.0000
  H   H1755     1.0  0.43346  0.83573  0.30954  1.0000
  Fe  Fe152     1.0  0.36794  0.89808  0.09129  1.0000
  Fe  Fe153     1.0  0.62096  0.98718  0.16105  1.0000
  H   H1756     1.0  0.48161  0.90299  0.39643  1.0000
  H   H1757     1.0  0.34903  0.86251  0.18819  1.0000
  H   H1758     1.0  0.41147  0.87123  0.31167  1.0000
  N   N72       1.0  0.51204  0.90251  0.40147  1.0000
  C   C1029     1.0  0.52063  0.89070  0.38348  1.0000
  C   C1030     1.0  0.49172  0.91129  0.39515  1.0000
  H   H1759     1.0  0.53379  0.88202  0.39052  1.0000
  H   H1760     1.0  0.38587  0.90646  0.17306  1.0000
  H   H1761     1.0  0.62790  0.83817  0.27368  1.0000
  H   H1762     1.0  0.65549  0.83479  0.17569  1.0000
  C   C1031     1.0  0.41241  0.86753  0.29270  1.0000
  C   C1032     1.0  0.64562  0.84427  0.03002  1.0000
  H   H1763     1.0  0.33903  0.85377  0.44477  1.0000
  H   H1764     1.0  0.62659  0.83158  0.00664  1.0000
  H   H1765     1.0  0.59774  0.81521  0.02370  1.0000
  C   C1033     1.0  0.65759  0.85650  0.20244  1.0000
  H   H1766     1.0  0.64075  0.82681  0.20778  1.0000
  H   H1767     1.0  0.65971  0.88377  0.39780  1.0000
  H   H1768     1.0  0.60067  0.82680  0.99001  1.0000
  H   H1769     1.0  0.59889  0.98560  0.05608  1.0000
  H   H1770     1.0  0.66289  0.92931  0.18670  1.0000
  H   H1771     1.0  0.40497  0.97478  0.15769  1.0000
  S   S304      1.0  0.64725  0.98786  0.06177  1.0000
  C   C1034     1.0  0.66231  0.92397  0.23024  1.0000
  H   H1772     1.0  0.48135  0.88537  0.43554  1.0000
  H   H1773     1.0  0.65255  0.83149  0.03204  1.0000
  C   C1035     1.0  0.33726  0.96977  0.21958  1.0000
  H   H1774     1.0  0.65538  0.84999  0.03695  1.0000
  C   C1036     1.0  0.65463  0.85563  0.43441  1.0000
  H   H1775     1.0  0.35345  0.86881  0.42891  1.0000
  H   H1776     1.0  0.65201  0.92905  0.24683  1.0000
  C   C1037     1.0  0.66054  0.95368  0.01942  1.0000
  C   C1038     1.0  0.35148  0.87040  0.47656  1.0000
  S   S305      1.0  0.45987  0.90363  0.47889  1.0000
  H   H1777     1.0  0.47029  0.81105  0.99518  1.0000
  H   H1778     1.0  0.65888  0.91752  0.28667  1.0000
  H   H1779     1.0  0.65850  0.88462  0.43140  1.0000
  N   N73       1.0  0.33256  0.87332  0.46524  1.0000
  C   C1039     1.0  0.40456  0.97535  0.17864  1.0000
  C   C1040     1.0  0.36403  0.85332  0.47987  1.0000
  S   S306      1.0  0.65745  0.84734  0.09721  1.0000
  H   H1780     1.0  0.64651  0.87268  0.23086  1.0000
  C   C1041     1.0  0.65192  0.96909  0.05392  1.0000
  H   H1781     1.0  0.33883  0.94116  0.13565  1.0000
  H   H1782     1.0  0.58080  0.83408  0.01488  1.0000
  C   C1042     1.0  0.60838  0.88228  0.99109  1.0000
  C   C1043     1.0  0.65718  0.96827  0.02685  1.0000
  C   C1044     1.0  0.65599  0.82591  0.19493  1.0000
  H   H1783     1.0  0.34978  0.92210  0.99655  1.0000
  H   H1784     1.0  0.38952  0.92668  0.99405  1.0000
  H   H1785     1.0  0.66005  0.81403  0.18973  1.0000
  H   H1786     1.0  0.66347  0.85783  0.44769  1.0000
  H   H1787     1.0  0.63473  0.88561  0.47059  1.0000
  C   C1045     1.0  0.65770  0.93537  0.20383  1.0000
  H   H1788     1.0  0.65703  0.91284  0.23157  1.0000
  H   H1789     1.0  0.66440  0.94615  0.19894  1.0000
  H   H1790     1.0  0.56883  0.98858  0.10943  1.0000
  H   H1791     1.0  0.33254  0.98235  0.21245  1.0000
  H   H1792     1.0  0.66458  0.95317  0.99840  1.0000
  S   S307      1.0  0.40021  0.80634  0.69151  1.0000
  H   H1793     1.0  0.53293  0.78243  0.63556  1.0000
  H   H1794     1.0  0.54382  0.92188  0.72698  1.0000
  Fe  Fe154     1.0  0.58287  0.97244  0.67479  1.0000
  S   S308      1.0  0.56552  0.95943  0.71235  1.0000
  S   S309      1.0  0.59722  0.96063  0.63986  1.0000
  Fe  Fe155     1.0  0.58439  0.96750  0.73322  1.0000
  S   S310      1.0  0.59955  0.94972  0.76458  1.0000
  H   H1795     1.0  0.65128  0.80042  0.68787  1.0000
  Fe  Fe156     1.0  0.55264  0.88844  0.87027  1.0000
  S   S311      1.0  0.54393  0.86893  0.85804  1.0000
  S   S312      1.0  0.53876  0.91416  0.85703  1.0000
  Fe  Fe157     1.0  0.58251  0.86619  0.90296  1.0000
  S   S313      1.0  0.57719  0.84455  0.89299  1.0000
  S   S314      1.0  0.60588  0.86658  0.92628  1.0000
  Fe  Fe158     1.0  0.57716  0.85892  0.85092  1.0000
  S   S315      1.0  0.59389  0.84874  0.81452  1.0000
  Fe  Fe159     1.0  0.54432  0.85600  0.90067  1.0000
  S   S316      1.0  0.52242  0.84024  0.92525  1.0000
  S   S317      1.0  0.58598  0.87941  0.85989  1.0000
  S   S318      1.0  0.54958  0.87654  0.91387  1.0000
  Fe  Fe160     1.0  0.44035  0.85059  0.84773  1.0000
  S   S319      1.0  0.43358  0.87303  0.86293  1.0000
  S   S320      1.0  0.46142  0.82871  0.86413  1.0000
  S   S321      1.0  0.44374  0.86281  0.80437  1.0000
  S   S322      1.0  0.56897  0.87748  0.53184  1.0000
  Fe  Fe161     1.0  0.55552  0.90756  0.57882  1.0000
  S   S323      1.0  0.55536  0.88148  0.59462  1.0000
  S   S324      1.0  0.54194  0.92382  0.60814  1.0000
  Fe  Fe162     1.0  0.58418  0.87805  0.56441  1.0000
  S   S325      1.0  0.61158  0.85914  0.57076  1.0000
  Fe  Fe163     1.0  0.54017  0.88366  0.56055  1.0000
  S   S326      1.0  0.51343  0.87212  0.56694  1.0000
  S   S327      1.0  0.58575  0.90400  0.55088  1.0000
  C   C1046     1.0  0.42778  0.83986  0.60779  1.0000
  H   H1796     1.0  0.62959  0.79658  0.71298  1.0000
  S   S328      1.0  0.41557  0.88676  0.53316  1.0000
  Fe  Fe164     1.0  0.58232  0.77990  0.73654  1.0000
  S   S329      1.0  0.58610  0.80320  0.70820  1.0000
  C   C1047     1.0  0.37439  0.84947  0.56983  1.0000
  Fe  Fe165     1.0  0.53954  0.78268  0.72695  1.0000
  S   S330      1.0  0.54035  0.80607  0.69778  1.0000
  S   S331      1.0  0.51176  0.98478  0.72715  1.0000
  Fe  Fe166     1.0  0.57206  0.79464  0.68198  1.0000
  S   S332      1.0  0.58659  0.79466  0.63904  1.0000
  Fe  Fe167     1.0  0.55432  0.81228  0.72717  1.0000
  S   S333      1.0  0.54352  0.83600  0.73935  1.0000
  H   H1797     1.0  0.40725  0.91770  0.81450  1.0000
  S   S334      1.0  0.55127  0.78964  0.75777  1.0000
  Fe  Fe168     1.0  0.41654  0.78333  0.68013  1.0000
  C   C1048     1.0  0.40179  0.91953  0.57680  1.0000
  H   H1798     1.0  0.35932  0.87082  0.95587  1.0000
  C   C1049     1.0  0.49885  0.78295  0.69115  1.0000
  C   C1050     1.0  0.48499  0.78525  0.67426  1.0000
  C   C1051     1.0  0.48424  0.93598  0.61033  1.0000
  C   C1052     1.0  0.54651  0.91278  0.69233  1.0000
  C   C1053     1.0  0.44101  0.93318  0.76138  1.0000
  H   H1799     1.0  0.51275  0.78747  0.68362  1.0000
  H   H1800     1.0  0.48828  0.79155  0.65361  1.0000
  C   C1054     1.0  0.41299  0.92552  0.79619  1.0000
  H   H1801     1.0  0.53970  0.93687  0.69845  1.0000
  C   C1055     1.0  0.60497  0.84130  0.59067  1.0000
  C   C1056     1.0  0.59145  0.84099  0.61534  1.0000
  C   C1057     1.0  0.58651  0.82651  0.63109  1.0000
  C   C1058     1.0  0.59446  0.81250  0.62160  1.0000
  C   C1059     1.0  0.60785  0.81285  0.59689  1.0000
  C   C1060     1.0  0.61340  0.82717  0.58171  1.0000
  H   H1802     1.0  0.58508  0.85189  0.62243  1.0000
  H   H1803     1.0  0.57615  0.82628  0.65021  1.0000
  H   H1804     1.0  0.61386  0.80205  0.58941  1.0000
  H   H1805     1.0  0.62383  0.82740  0.56265  1.0000
  C   C1061     1.0  0.49958  0.88008  0.54118  1.0000
  C   C1062     1.0  0.48272  0.87390  0.54171  1.0000
  C   C1063     1.0  0.47064  0.88088  0.52233  1.0000
  C   C1064     1.0  0.47534  0.89413  0.50249  1.0000
  H   H1806     1.0  0.47901  0.86372  0.55713  1.0000
  H   H1807     1.0  0.45784  0.87591  0.52258  1.0000
  C   C1065     1.0  0.58017  0.84641  0.79213  1.0000
  C   C1066     1.0  0.56011  0.85422  0.79205  1.0000
  C   C1067     1.0  0.54925  0.85147  0.77491  1.0000
  C   C1068     1.0  0.55825  0.84065  0.75817  1.0000
  C   C1069     1.0  0.57851  0.83321  0.75763  1.0000
  C   C1070     1.0  0.58951  0.83625  0.77433  1.0000
  H   H1808     1.0  0.55287  0.86227  0.80530  1.0000
  H   H1809     1.0  0.53361  0.85730  0.77533  1.0000
  H   H1810     1.0  0.58562  0.82492  0.74470  1.0000
  H   H1811     1.0  0.60507  0.83024  0.77416  1.0000
  C   C1071     1.0  0.50542  0.83753  0.90784  1.0000
  C   C1072     1.0  0.49776  0.84973  0.88789  1.0000
  C   C1073     1.0  0.48368  0.84731  0.87485  1.0000
  C   C1074     1.0  0.47751  0.83262  0.88157  1.0000
  C   C1075     1.0  0.48517  0.82047  0.90155  1.0000
  C   C1076     1.0  0.49905  0.82294  0.91468  1.0000
  H   H1812     1.0  0.50245  0.86109  0.88276  1.0000
  H   H1813     1.0  0.47800  0.85667  0.85918  1.0000
  H   H1814     1.0  0.48044  0.80911  0.90678  1.0000
  H   H1815     1.0  0.50490  0.81352  0.93015  1.0000
  H   H1816     1.0  0.55759  0.79159  0.86697  1.0000
  C   C1077     1.0  0.59953  0.90999  0.89981  1.0000
  H   H1817     1.0  0.41070  0.91293  0.56188  1.0000
  C   C1078     1.0  0.58223  0.94092  0.79111  1.0000
  C   C1079     1.0  0.56141  0.94506  0.79140  1.0000
  C   C1080     1.0  0.54797  0.93711  0.81214  1.0000
  C   C1081     1.0  0.55541  0.92481  0.83215  1.0000
  C   C1082     1.0  0.57617  0.92093  0.83193  1.0000
  C   C1083     1.0  0.58952  0.92910  0.81170  1.0000
  H   H1818     1.0  0.55566  0.95435  0.77569  1.0000
  H   H1819     1.0  0.53188  0.94027  0.81236  1.0000
  H   H1820     1.0  0.58200  0.91184  0.84760  1.0000
  H   H1821     1.0  0.60558  0.92603  0.81169  1.0000
  C   C1084     1.0  0.58183  0.95038  0.63116  1.0000
  C   C1085     1.0  0.56103  0.95245  0.64154  1.0000
  C   C1086     1.0  0.54893  0.94444  0.63392  1.0000
  C   C1087     1.0  0.55760  0.93403  0.61640  1.0000
  C   C1088     1.0  0.57842  0.93185  0.60618  1.0000
  C   C1089     1.0  0.59048  0.94010  0.61341  1.0000
  H   H1822     1.0  0.55424  0.96047  0.65501  1.0000
  H   H1823     1.0  0.53280  0.94639  0.64142  1.0000
  H   H1824     1.0  0.58523  0.92386  0.59263  1.0000
  H   H1825     1.0  0.60656  0.93848  0.60528  1.0000
  H   H1826     1.0  0.38224  0.92373  0.91402  1.0000
  H   H1827     1.0  0.55361  0.89643  0.79290  1.0000
  H   H1828     1.0  0.50397  0.78239  0.85765  1.0000
  C   C1090     1.0  0.54800  0.80366  0.86325  1.0000
  C   C1091     1.0  0.50064  0.98222  0.70254  1.0000
  C   C1092     1.0  0.55934  0.81602  0.86595  1.0000
  H   H1829     1.0  0.35394  0.90936  0.76257  1.0000
  N   N74       1.0  0.35506  0.93774  0.95748  1.0000
  H   H1830     1.0  0.56782  0.83327  0.54869  1.0000
  C   C1093     1.0  0.53595  0.92510  0.70986  1.0000
  H   H1831     1.0  0.54124  0.91551  0.67312  1.0000
  N   N75       1.0  0.39377  0.90856  0.72652  1.0000
  C   C1094     1.0  0.41238  0.91587  0.71935  1.0000
  C   C1095     1.0  0.37737  0.92015  0.71355  1.0000
  C   C1096     1.0  0.39802  0.89337  0.71661  1.0000
  C   C1097     1.0  0.38739  0.90477  0.75666  1.0000
  C   C1098     1.0  0.43158  0.90492  0.72822  1.0000
  C   C1099     1.0  0.36986  0.93593  0.72322  1.0000
  C   C1100     1.0  0.40641  0.89468  0.68627  1.0000
  C   C1101     1.0  0.53642  0.90895  0.95370  1.0000
  H   H1832     1.0  0.41619  0.92064  0.69736  1.0000
  H   H1833     1.0  0.40956  0.92632  0.72861  1.0000
  S   S335      1.0  0.37408  0.88972  0.51109  1.0000
  H   H1834     1.0  0.38267  0.92360  0.69148  1.0000
  H   H1835     1.0  0.40879  0.88404  0.72743  1.0000
  H   H1836     1.0  0.38406  0.88834  0.72103  1.0000
  H   H1837     1.0  0.39862  0.89493  0.76568  1.0000
  H   H1838     1.0  0.38722  0.91502  0.76527  1.0000
  H   H1839     1.0  0.42938  0.90062  0.75032  1.0000
  H   H1840     1.0  0.43697  0.89469  0.71825  1.0000
  H   H1841     1.0  0.44392  0.91184  0.72241  1.0000
  H   H1842     1.0  0.51207  0.97700  0.63830  1.0000
  C   C1102     1.0  0.36665  0.89966  0.76785  1.0000
  H   H1843     1.0  0.46993  0.87011  0.96146  1.0000
  C   C1103     1.0  0.47112  0.97877  0.68937  1.0000
  H   H1844     1.0  0.45546  0.87942  0.59821  1.0000
  H   H1845     1.0  0.46702  0.82950  0.95345  1.0000
  H   H1846     1.0  0.33746  0.94051  0.92706  1.0000
  H   H1847     1.0  0.62849  0.87729  0.95460  1.0000
  H   H1848     1.0  0.39553  0.74139  0.59284  1.0000
  C   C1104     1.0  0.53139  0.83601  0.62005  1.0000
  C   C1105     1.0  0.51283  0.82749  0.59368  1.0000
  C   C1106     1.0  0.51308  0.83932  0.64273  1.0000
  C   C1107     1.0  0.55505  0.83648  0.56497  1.0000
  H   H1849     1.0  0.54530  0.83340  0.62862  1.0000
  H   H1850     1.0  0.53178  0.84759  0.60552  1.0000
  H   H1851     1.0  0.49926  0.82460  0.60904  1.0000
  H   H1852     1.0  0.50946  0.84056  0.58599  1.0000
  H   H1853     1.0  0.49849  0.84180  0.63600  1.0000
  H   H1854     1.0  0.51322  0.82953  0.66079  1.0000
  H   H1855     1.0  0.51400  0.85009  0.64908  1.0000
  H   H1856     1.0  0.54179  0.84275  0.55572  1.0000
  H   H1857     1.0  0.55984  0.84474  0.57381  1.0000
  C   C1108     1.0  0.50488  0.89278  0.52051  1.0000
  S   S336      1.0  0.53819  0.90993  0.54671  1.0000
  Fe  Fe169     1.0  0.56826  0.90370  0.52020  1.0000
  H   H1858     1.0  0.52389  0.80843  0.56947  1.0000
  H   H1859     1.0  0.55221  0.81204  0.57481  1.0000
  N   N76       1.0  0.53999  0.80719  0.83775  1.0000
  C   C1109     1.0  0.52968  0.79395  0.83823  1.0000
  C   C1110     1.0  0.55679  0.80830  0.81342  1.0000
  C   C1111     1.0  0.52557  0.82295  0.83590  1.0000
  C   C1112     1.0  0.51072  0.79187  0.86043  1.0000
  C   C1113     1.0  0.57524  0.79454  0.81410  1.0000
  C   C1114     1.0  0.51284  0.82735  0.81385  1.0000
  H   H1860     1.0  0.52526  0.79544  0.81860  1.0000
  H   H1861     1.0  0.54026  0.78231  0.84094  1.0000
  H   H1862     1.0  0.56255  0.81940  0.80964  1.0000
  H   H1863     1.0  0.55111  0.80916  0.79500  1.0000
  H   H1864     1.0  0.51498  0.82350  0.85525  1.0000
  H   H1865     1.0  0.53385  0.83284  0.83248  1.0000
  H   H1866     1.0  0.51443  0.78800  0.88075  1.0000
  H   H1867     1.0  0.49885  0.80273  0.85954  1.0000
  H   H1868     1.0  0.58356  0.79411  0.82986  1.0000
  H   H1869     1.0  0.57111  0.78286  0.81653  1.0000
  H   H1870     1.0  0.58601  0.79655  0.79459  1.0000
  H   H1871     1.0  0.50427  0.83972  0.81309  1.0000
  H   H1872     1.0  0.50149  0.81968  0.81813  1.0000
  H   H1873     1.0  0.52232  0.82692  0.79375  1.0000
  H   H1874     1.0  0.57016  0.81014  0.87961  1.0000
  N   N77       1.0  0.51332  0.92652  0.71892  1.0000
  C   C1115     1.0  0.50420  0.93323  0.69404  1.0000
  C   C1116     1.0  0.50512  0.93817  0.73727  1.0000
  C   C1117     1.0  0.50713  0.91070  0.73217  1.0000
  C   C1118     1.0  0.48089  0.93691  0.69854  1.0000
  C   C1119     1.0  0.51758  0.93779  0.75811  1.0000
  C   C1120     1.0  0.51659  0.90080  0.75641  1.0000
  H   H1875     1.0  0.50940  0.94451  0.68279  1.0000
  H   H1876     1.0  0.50919  0.92503  0.67993  1.0000
  H   H1877     1.0  0.50349  0.95058  0.72533  1.0000
  H   H1878     1.0  0.48963  0.93676  0.74861  1.0000
  H   H1879     1.0  0.49050  0.91234  0.73986  1.0000
  H   H1880     1.0  0.50971  0.90306  0.71741  1.0000
  H   H1881     1.0  0.47435  0.92600  0.70678  1.0000
  H   H1882     1.0  0.47409  0.94565  0.71145  1.0000
  H   H1883     1.0  0.47629  0.94232  0.67886  1.0000
  H   H1884     1.0  0.53170  0.94242  0.74835  1.0000
  H   H1885     1.0  0.52107  0.92592  0.77112  1.0000
  H   H1886     1.0  0.50865  0.94593  0.77149  1.0000
  H   H1887     1.0  0.50708  0.90375  0.77545  1.0000
  H   H1888     1.0  0.53225  0.90206  0.75499  1.0000
  H   H1889     1.0  0.51757  0.88797  0.75749  1.0000
  N   N78       1.0  0.53134  0.82305  0.60626  1.0000
  S   S337      1.0  0.36010  0.82619  0.64684  1.0000
  H   H1890     1.0  0.49843  0.81844  0.56989  1.0000
  H   H1891     1.0  0.40515  0.85082  0.97172  1.0000
  C   C1121     1.0  0.41721  0.84231  0.98157  1.0000
  H   H1892     1.0  0.51670  0.80891  0.64279  1.0000
  H   H1893     1.0  0.51790  0.82858  0.55037  1.0000
  H   H1894     1.0  0.56868  0.82121  0.84690  1.0000
  C   C1122     1.0  0.49270  0.89987  0.50132  1.0000
  H   H1895     1.0  0.34909  0.97116  0.93416  1.0000
  C   C1123     1.0  0.55092  0.82129  0.58604  1.0000
  C   C1124     1.0  0.51383  0.82013  0.56964  1.0000
  Fe  Fe170     1.0  0.43376  0.88529  0.81978  1.0000
  S   S338      1.0  0.44992  0.90536  0.79698  1.0000
  C   C1125     1.0  0.53090  0.80791  0.62749  1.0000
  H   H1896     1.0  0.56393  0.81702  0.59648  1.0000
  H   H1897     1.0  0.54348  0.80567  0.63849  1.0000
  H   H1898     1.0  0.53535  0.80317  0.88096  1.0000
  H   H1899     1.0  0.51825  0.89727  0.51936  1.0000
  C   C1126     1.0  0.40734  0.94905  0.76098  1.0000
  H   H1900     1.0  0.60411  0.92169  0.89305  1.0000
  C   C1127     1.0  0.43350  0.92254  0.78429  1.0000
  C   C1128     1.0  0.42796  0.94637  0.74959  1.0000
  H   H1901     1.0  0.45687  0.93099  0.75257  1.0000
  H   H1902     1.0  0.54856  0.82587  0.87420  1.0000
  H   H1903     1.0  0.36004  0.96854  0.96336  1.0000
  H   H1904     1.0  0.39013  0.85054  0.73255  1.0000
  H   H1905     1.0  0.56296  0.91300  0.68673  1.0000
  H   H1906     1.0  0.35537  0.84448  0.49382  1.0000
  H   H1907     1.0  0.43387  0.95450  0.73180  1.0000
  H   H1908     1.0  0.54486  0.90052  0.70327  1.0000
  H   H1909     1.0  0.65016  0.75547  0.76213  1.0000
  Fe  Fe171     1.0  0.37602  0.80432  0.67185  1.0000
  C   C1129     1.0  0.37177  0.83067  0.61289  1.0000
  H   H1910     1.0  0.42698  0.91818  0.59497  1.0000
  C   C1130     1.0  0.53225  0.79261  0.61802  1.0000
  H   H1911     1.0  0.51850  0.79291  0.61061  1.0000
  H   H1912     1.0  0.40791  0.89164  0.90188  1.0000
  H   H1913     1.0  0.39358  0.89039  0.62520  1.0000
  S   S339      1.0  0.40796  0.84883  0.85204  1.0000
  H   H1914     1.0  0.54616  0.78992  0.60301  1.0000
  S   S340      1.0  0.39063  0.96463  0.74499  1.0000
  C   C1131     1.0  0.41100  0.92264  0.59537  1.0000
  H   H1915     1.0  0.47764  0.94487  0.52985  1.0000
  H   H1916     1.0  0.42313  0.83779  0.66004  1.0000
  H   H1917     1.0  0.47275  0.82467  0.71713  1.0000
  H   H1918     1.0  0.44759  0.82428  0.71308  1.0000
  C   C1132     1.0  0.57235  0.92019  0.95319  1.0000
  H   H1919     1.0  0.36866  0.86060  0.55731  1.0000
  S   S341      1.0  0.39348  0.78243  0.65710  1.0000
  H   H1920     1.0  0.34704  0.76702  0.65677  1.0000
  H   H1921     1.0  0.39522  0.90213  0.67403  1.0000
  S   S342      1.0  0.42699  0.95245  0.68036  1.0000
  H   H1922     1.0  0.49747  0.92607  0.61294  1.0000
  C   C1133     1.0  0.45632  0.82917  0.72305  1.0000
  H   H1923     1.0  0.44828  0.79888  0.73588  1.0000
  H   H1924     1.0  0.45371  0.84224  0.71515  1.0000
  H   H1925     1.0  0.45105  0.84914  0.92201  1.0000
  C   C1134     1.0  0.39992  0.93882  0.78460  1.0000
  C   C1135     1.0  0.62070  0.74222  0.73299  1.0000
  H   H1926     1.0  0.52144  0.96545  0.56487  1.0000
  H   H1927     1.0  0.47949  0.80066  0.74245  1.0000
  H   H1928     1.0  0.43000  0.77860  0.75970  1.0000
  H   H1929     1.0  0.48821  0.81942  0.76561  1.0000
  H   H1930     1.0  0.53840  0.92313  0.91371  1.0000
  C   C1136     1.0  0.37351  0.87993  0.61254  1.0000
  C   C1137     1.0  0.56853  0.93993  0.91087  1.0000
  C   C1138     1.0  0.39819  0.74802  0.62953  1.0000
  H   H1931     1.0  0.62527  0.77531  0.69493  1.0000
  H   H1932     1.0  0.44134  0.84100  0.61400  1.0000
  C   C1139     1.0  0.66266  0.76125  0.67620  1.0000
  H   H1933     1.0  0.48633  0.94519  0.61968  1.0000
  C   C1140     1.0  0.51216  0.98059  0.67725  1.0000
  H   H1934     1.0  0.57345  0.93723  0.86936  1.0000
  N   N79       1.0  0.45143  0.80867  0.76821  1.0000
  C   C1141     1.0  0.44000  0.80063  0.75621  1.0000
  C   C1142     1.0  0.44913  0.82591  0.75383  1.0000
  C   C1143     1.0  0.47326  0.80036  0.76410  1.0000
  C   C1144     1.0  0.43555  0.78418  0.77245  1.0000
  C   C1145     1.0  0.48783  0.80671  0.77468  1.0000
  H   H1935     1.0  0.42511  0.80825  0.75318  1.0000
  H   H1936     1.0  0.45729  0.83260  0.76146  1.0000
  H   H1937     1.0  0.43296  0.83181  0.75783  1.0000
  H   H1938     1.0  0.44906  0.77595  0.77886  1.0000
  H   H1939     1.0  0.50342  0.80001  0.76915  1.0000
  H   H1940     1.0  0.38215  0.94807  0.94272  1.0000
  H   H1941     1.0  0.51645  0.93759  0.56899  1.0000
  H   H1942     1.0  0.61980  0.75614  0.64173  1.0000
  H   H1943     1.0  0.65029  0.76819  0.62487  1.0000
  C   C1146     1.0  0.50834  0.96073  0.57873  1.0000
  H   H1944     1.0  0.51303  0.95574  0.59842  1.0000
  C   C1147     1.0  0.63973  0.77127  0.64320  1.0000
  H   H1945     1.0  0.64375  0.80989  0.64235  1.0000
  H   H1946     1.0  0.47471  0.78752  0.77380  1.0000
  H   H1947     1.0  0.42325  0.78522  0.79027  1.0000
  C   C1148     1.0  0.34874  0.74387  0.68306  1.0000
  C   C1149     1.0  0.54343  0.92319  0.93225  1.0000
  H   H1948     1.0  0.45537  0.97779  0.69431  1.0000
  H   H1949     1.0  0.56930  0.91133  0.89421  1.0000
  Fe  Fe172     1.0  0.38448  0.79124  0.72799  1.0000
  C   C1150     1.0  0.39375  0.88759  0.96977  1.0000
  N   N80       1.0  0.48374  0.94235  0.58091  1.0000
  C   C1151     1.0  0.50353  0.94782  0.56765  1.0000
  H   H1950     1.0  0.57404  0.90730  0.96254  1.0000
  C   C1152     1.0  0.44233  0.80723  0.79781  1.0000
  H   H1951     1.0  0.42591  0.80712  0.80164  1.0000
  H   H1952     1.0  0.48425  0.80468  0.79686  1.0000
  C   C1153     1.0  0.34649  0.96791  0.95636  1.0000
  H   H1953     1.0  0.50174  0.93150  0.52833  1.0000
  C   C1154     1.0  0.37739  0.88002  0.97412  1.0000
  N   N81       1.0  0.56581  0.92349  0.92658  1.0000
  C   C1155     1.0  0.57669  0.91076  0.91107  1.0000
  N   N82       1.0  0.43794  0.84406  0.96466  1.0000
  H   H1954     1.0  0.42565  0.87957  0.63599  1.0000
  C   C1156     1.0  0.39957  0.93139  0.61451  1.0000
  Fe  Fe173     1.0  0.41062  0.86311  0.80980  1.0000
  Fe  Fe174     1.0  0.43846  0.97399  0.65500  1.0000
  C   C1157     1.0  0.61334  0.87745  0.96647  1.0000
  H   H1955     1.0  0.46356  0.96325  0.59272  1.0000
  Fe  Fe175     1.0  0.38774  0.90510  0.52686  1.0000
  C   C1158     1.0  0.59884  0.87285  0.95705  1.0000
  H   H1956     1.0  0.50409  0.95281  0.54582  1.0000
  C   C1159     1.0  0.57930  0.87308  0.97250  1.0000
  H   H1957     1.0  0.45856  0.82338  0.80728  1.0000
  H   H1958     1.0  0.44910  0.79568  0.80974  1.0000
  H   H1959     1.0  0.41741  0.89764  0.94017  1.0000
  Fe  Fe176     1.0  0.54540  0.98316  0.71424  1.0000
  Fe  Fe177     1.0  0.40126  0.87228  0.86430  1.0000
  H   H1960     1.0  0.38400  0.94097  0.79363  1.0000
  C   C1160     1.0  0.37891  0.93706  0.61503  1.0000
  C   C1161     1.0  0.48280  0.92893  0.56884  1.0000
  H   H1961     1.0  0.60372  0.93553  0.69963  1.0000
  S   S343      1.0  0.40247  0.76810  0.71799  1.0000
  H   H1962     1.0  0.43829  0.81700  0.83307  1.0000
  C   C1162     1.0  0.44329  0.82061  0.81099  1.0000
  H   H1963     1.0  0.54717  0.94413  0.88334  1.0000
  C   C1163     1.0  0.64586  0.74818  0.75165  1.0000
  C   C1164     1.0  0.36395  0.84476  0.59618  1.0000
  H   H1964     1.0  0.38698  0.75225  0.64652  1.0000
  H   H1965     1.0  0.46550  0.86565  0.93262  1.0000
  N   N83       1.0  0.65047  0.77569  0.66112  1.0000
  H   H1966     1.0  0.60488  0.91082  0.77540  1.0000
  H   H1967     1.0  0.42720  0.86119  0.93106  1.0000
  C   C1165     1.0  0.46653  0.95635  0.57678  1.0000
  H   H1968     1.0  0.44038  0.94404  0.59355  1.0000
  S   S344      1.0  0.41083  0.93297  0.63994  1.0000
  C   C1166     1.0  0.36957  0.93344  0.59707  1.0000
  H   H1969     1.0  0.43265  0.83165  0.80415  1.0000
  S   S345      1.0  0.37616  0.87621  0.89966  1.0000
  H   H1970     1.0  0.57490  0.90193  0.79859  1.0000
  C   C1167     1.0  0.61781  0.88592  0.78662  1.0000
  C   C1168     1.0  0.38093  0.92449  0.57816  1.0000
  H   H1971     1.0  0.57529  0.89879  0.92375  1.0000
  H   H1972     1.0  0.40652  0.75788  0.62016  1.0000
  N   N84       1.0  0.40910  0.86626  0.62270  1.0000
  H   H1973     1.0  0.47060  0.96494  0.55762  1.0000
  H   H1974     1.0  0.63181  0.87810  0.77857  1.0000
  S   S346      1.0  0.57039  0.77064  0.70886  1.0000
  C   C1169     1.0  0.39510  0.88148  0.61293  1.0000
  H   H1975     1.0  0.55936  0.94901  0.92243  1.0000
  H   H1976     1.0  0.41348  0.81790  0.56855  1.0000
  C   C1170     1.0  0.58026  0.89335  0.76142  1.0000
  C   C1171     1.0  0.34970  0.92246  0.97528  1.0000
  C   C1172     1.0  0.36571  0.92492  0.91595  1.0000
  H   H1977     1.0  0.56808  0.86939  0.96558  1.0000
  C   C1173     1.0  0.38317  0.88063  0.92638  1.0000
  C   C1174     1.0  0.43556  0.74687  0.65283  1.0000
  H   H1978     1.0  0.65301  0.98304  0.69732  1.0000
  S   S347      1.0  0.38116  0.97219  0.67275  1.0000
  C   C1175     1.0  0.38914  0.84105  0.75024  1.0000
  C   C1176     1.0  0.39247  0.84313  0.77422  1.0000
  C   C1177     1.0  0.38485  0.82664  0.74892  1.0000
  H   H1979     1.0  0.38227  0.82515  0.73040  1.0000
  C   C1178     1.0  0.38385  0.81422  0.77159  1.0000
  C   C1179     1.0  0.39079  0.83094  0.79717  1.0000
  C   C1180     1.0  0.38637  0.81654  0.79587  1.0000
  H   H1980     1.0  0.38539  0.80701  0.81355  1.0000
  H   H1981     1.0  0.39310  0.83253  0.81584  1.0000
  H   H1982     1.0  0.43292  0.88962  0.58639  1.0000
  H   H1983     1.0  0.36995  0.94365  0.62997  1.0000
  S   S348      1.0  0.39992  0.86073  0.77407  1.0000
  C   C1181     1.0  0.46528  0.93003  0.62818  1.0000
  Fe  Fe178     1.0  0.40707  0.95672  0.65053  1.0000
  H   H1984     1.0  0.45252  0.94014  0.63068  1.0000
  H   H1985     1.0  0.65183  0.78176  0.71265  1.0000
  C   C1182     1.0  0.44607  0.95271  0.57576  1.0000
  S   S349      1.0  0.36850  0.91872  0.55788  1.0000
  H   H1986     1.0  0.36584  0.88897  0.76129  1.0000
  H   H1987     1.0  0.60565  0.87901  0.79552  1.0000
  S   S350      1.0  0.40074  0.88652  0.82237  1.0000
  C   C1183     1.0  0.56671  0.90236  0.78275  1.0000
  S   S351      1.0  0.51162  0.77149  0.73982  1.0000
  C   C1184     1.0  0.49485  0.77448  0.71770  1.0000
  H   H1988     1.0  0.40971  0.88262  0.68203  1.0000
  H   H1989     1.0  0.39572  0.81012  0.61548  1.0000
  C   C1185     1.0  0.61156  0.88909  0.72723  1.0000
  H   H1990     1.0  0.43521  0.82611  0.92622  1.0000
  C   C1186     1.0  0.46683  0.77943  0.68397  1.0000
  H   H1991     1.0  0.56490  0.95714  0.87362  1.0000
  H   H1992     1.0  0.56048  0.92634  0.96760  1.0000
  H   H1993     1.0  0.43410  0.86839  0.96810  1.0000
  H   H1994     1.0  0.40126  0.88711  0.59199  1.0000
  H   H1995     1.0  0.61675  0.86617  0.75677  1.0000
  S   S352      1.0  0.38101  0.79539  0.76961  1.0000
  C   C1187     1.0  0.40478  0.89171  0.94367  1.0000
  Fe  Fe179     1.0  0.40226  0.96920  0.70059  1.0000
  H   H1996     1.0  0.44900  0.76638  0.71819  1.0000
  H   H1997     1.0  0.42076  0.89924  0.67953  1.0000
  C   C1188     1.0  0.47685  0.76850  0.72726  1.0000
  C   C1189     1.0  0.46276  0.77113  0.71061  1.0000
  S   S353      1.0  0.44998  0.78208  0.66212  1.0000
  C   C1190     1.0  0.39236  0.83985  0.55995  1.0000
  H   H1998     1.0  0.60375  0.90488  0.88159  1.0000
  H   H1999     1.0  0.62409  0.86477  0.72237  1.0000
  C   C1191     1.0  0.39950  0.88824  0.92200  1.0000
  H   H2000     1.0  0.46843  0.92433  0.64857  1.0000
  H   H2001     1.0  0.56046  0.91484  0.77404  1.0000
  H   H2002     1.0  0.36427  0.89203  0.60770  1.0000
  C   C1192     1.0  0.42597  0.83822  0.92579  1.0000
  Fe  Fe180     1.0  0.40333  0.87246  0.51355  1.0000
  C   C1193     1.0  0.61253  0.87097  0.73687  1.0000
  S   S354      1.0  0.36524  0.74662  0.70177  1.0000
  N   N85       1.0  0.59936  0.89946  0.74657  1.0000
  H   H2003     1.0  0.58229  0.91591  0.71786  1.0000
  H   H2004     1.0  0.62748  0.89100  0.72094  1.0000
  C   C1194     1.0  0.44536  0.85711  0.97088  1.0000
  H   H2005     1.0  0.57092  0.89333  0.74697  1.0000
  H   H2006     1.0  0.60544  0.89240  0.70838  1.0000
  H   H2007     1.0  0.36430  0.89646  0.79011  1.0000
  H   H2008     1.0  0.44994  0.74214  0.64024  1.0000
  C   C1195     1.0  0.38949  0.82091  0.60274  1.0000
  H   H2009     1.0  0.59789  0.86777  0.73737  1.0000
  C   C1196     1.0  0.41300  0.84745  0.66920  1.0000
  H   H2010     1.0  0.58347  0.88077  0.77217  1.0000
  C   C1197     1.0  0.59307  0.91597  0.73036  1.0000
  H   H2011     1.0  0.62858  0.78165  0.63530  1.0000
  H   H2012     1.0  0.62661  0.90419  0.75352  1.0000
  C   C1198     1.0  0.61202  0.90080  0.76514  1.0000
  C   C1199     1.0  0.61037  0.92388  0.71125  1.0000
  H   H2013     1.0  0.58495  0.92438  0.74366  1.0000
  H   H2014     1.0  0.62038  0.92646  0.72246  1.0000
  H   H2015     1.0  0.61941  0.91684  0.69630  1.0000
  H   H2016     1.0  0.62044  0.88969  0.80385  1.0000
  C   C1200     1.0  0.39960  0.82538  0.57618  1.0000
  C   C1201     1.0  0.48548  0.93275  0.53795  1.0000
  H   H2017     1.0  0.38191  0.94308  0.71746  1.0000
  Fe  Fe181     1.0  0.37770  0.76916  0.69614  1.0000
  H   H2018     1.0  0.35343  0.93735  0.59811  1.0000
  H   H2019     1.0  0.38982  0.98488  0.78237  1.0000
  S   S355      1.0  0.40656  0.84598  0.52793  1.0000
  H   H2020     1.0  0.41032  0.83755  0.93698  1.0000
  S   S356      1.0  0.47137  0.97460  0.63967  1.0000
  H   H2021     1.0  0.46078  0.92100  0.62088  1.0000
  H   H2022     1.0  0.58432  0.94163  0.90767  1.0000
  H   H2023     1.0  0.36137  0.91211  0.97039  1.0000
  H   H2024     1.0  0.36403  0.93425  0.74513  1.0000
  H   H2025     1.0  0.52803  0.98117  0.67259  1.0000
  C   C1202     1.0  0.56305  0.94467  0.88282  1.0000
  H   H2026     1.0  0.46833  0.92460  0.57711  1.0000
  S   S357      1.0  0.60877  0.76802  0.75726  1.0000
  C   C1203     1.0  0.37199  0.87670  0.95242  1.0000
  H   H2027     1.0  0.39038  0.86821  0.66189  1.0000
  H   H2028     1.0  0.47129  0.98227  0.72835  1.0000
  C   C1204     1.0  0.39912  0.85885  0.65066  1.0000
  H   H2029     1.0  0.47383  0.76170  0.74762  1.0000
  H   H2030     1.0  0.42478  0.84343  0.90451  1.0000
  H   H2031     1.0  0.59588  0.92042  0.97362  1.0000
  H   H2032     1.0  0.49464  0.91835  0.57437  1.0000
  H   H2033     1.0  0.36106  0.91349  0.92687  1.0000
  H   H2034     1.0  0.37364  0.87395  0.59644  1.0000
  H   H2035     1.0  0.36564  0.87377  0.63205  1.0000
  S   S358      1.0  0.35862  0.79110  0.70948  1.0000
  C   C1205     1.0  0.62617  0.75173  0.74645  1.0000
  H   H2036     1.0  0.33397  0.97706  0.96404  1.0000
  C   C1206     1.0  0.34227  0.75568  0.66185  1.0000
  H   H2037     1.0  0.35873  0.94981  0.91561  1.0000
  H   H2038     1.0  0.60858  0.90213  0.91460  1.0000
  C   C1207     1.0  0.42864  0.87075  0.62315  1.0000
  H   H2039     1.0  0.47839  0.85031  0.95649  1.0000
  H   H2040     1.0  0.62378  0.79339  0.67092  1.0000
  H   H2041     1.0  0.41528  0.86167  0.58238  1.0000
  C   C1208     1.0  0.50312  0.97821  0.65791  1.0000
  H   H2042     1.0  0.36405  0.91461  0.71611  1.0000
  H   H2043     1.0  0.42081  0.83017  0.62236  1.0000
  Fe  Fe182     1.0  0.42864  0.89784  0.49096  1.0000
  S   S359      1.0  0.60350  0.97879  0.69549  1.0000
  H   H2044     1.0  0.44424  0.86973  0.58141  1.0000
  C   C1209     1.0  0.43601  0.84889  0.93551  1.0000
  C   C1210     1.0  0.41203  0.85540  0.60378  1.0000
  H   H2045     1.0  0.37720  0.85289  0.48873  1.0000
  H   H2046     1.0  0.61634  0.76016  0.67415  1.0000
  H   H2047     1.0  0.59016  0.93837  0.94970  1.0000
  H   H2048     1.0  0.49551  0.97087  0.58050  1.0000
  H   H2049     1.0  0.43360  0.83617  0.58824  1.0000
  C   C1211     1.0  0.64268  0.79097  0.69939  1.0000
  C   C1212     1.0  0.62796  0.75759  0.65639  1.0000
  C   C1213     1.0  0.48260  0.97733  0.66398  1.0000
  H   H2050     1.0  0.53424  0.93412  0.93900  1.0000
  H   H2051     1.0  0.44684  0.81897  0.96403  1.0000
  H   H2052     1.0  0.44675  0.94836  0.55758  1.0000
  H   H2053     1.0  0.38997  0.94748  0.98272  1.0000
  H   H2054     1.0  0.47921  0.92414  0.53182  1.0000
  H   H2055     1.0  0.43452  0.96383  0.57486  1.0000
  H   H2056     1.0  0.54546  0.89739  0.94993  1.0000
  H   H2057     1.0  0.35020  0.85232  0.60395  1.0000
  H   H2058     1.0  0.42203  0.85396  0.67580  1.0000
  H   H2059     1.0  0.43959  0.74844  0.67105  1.0000
  C   C1214     1.0  0.44075  0.87776  0.59558  1.0000
  H   H2060     1.0  0.60553  0.74476  0.72909  1.0000
  H   H2061     1.0  0.52046  0.90893  0.95344  1.0000
  C   C1215     1.0  0.48013  0.98127  0.70861  1.0000
  S   S360      1.0  0.42041  0.97737  0.62367  1.0000
  S   S361      1.0  0.40165  0.91743  0.48603  1.0000
  C   C1216     1.0  0.63468  0.78378  0.68116  1.0000
  H   H2062     1.0  0.43923  0.86049  0.63237  1.0000
  C   C1217     1.0  0.37659  0.93797  0.95804  1.0000
  H   H2063     1.0  0.39762  0.85165  0.60541  1.0000
  H   H2064     1.0  0.60520  0.92058  0.93897  1.0000
  H   H2065     1.0  0.53682  0.90982  0.97423  1.0000
  H   H2066     1.0  0.40342  0.84169  0.68764  1.0000
  C   C1218     1.0  0.59208  0.92524  0.95333  1.0000
  C   C1219     1.0  0.35350  0.93898  0.92887  1.0000
  C   C1220     1.0  0.46597  0.86078  0.95417  1.0000
  H   H2067     1.0  0.38774  0.85208  0.64975  1.0000
  H   H2068     1.0  0.36291  0.92706  0.89528  1.0000
  C   C1221     1.0  0.38602  0.74718  0.60916  1.0000
  H   H2069     1.0  0.38696  0.92722  0.95206  1.0000
  C   C1222     1.0  0.45270  0.82849  0.96824  1.0000
  H   H2070     1.0  0.43093  0.74185  0.57722  1.0000
  H   H2071     1.0  0.35725  0.94313  0.71318  1.0000
  H   H2072     1.0  0.63819  0.74609  0.66204  1.0000
  H   H2073     1.0  0.65274  0.75360  0.69094  1.0000
  C   C1223     1.0  0.34039  0.95149  0.96758  1.0000
  C   C1224     1.0  0.65447  0.80263  0.62875  1.0000
  H   H2074     1.0  0.42894  0.75885  0.64252  1.0000
  H   H2075     1.0  0.61484  0.87607  0.49150  1.0000
  H   H2076     1.0  0.64659  0.80108  0.61392  1.0000
  H   H2077     1.0  0.34776  0.87322  0.49681  1.0000
  H   H2078     1.0  0.37923  0.75945  0.59984  1.0000
  H   H2079     1.0  0.33354  0.89917  0.49020  1.0000
  C   C1225     1.0  0.66463  0.78651  0.64405  1.0000
  H   H2080     1.0  0.43746  0.75055  0.60072  1.0000
  C   C1226     1.0  0.43779  0.73928  0.59524  1.0000
  H   H2081     1.0  0.41417  0.83029  0.98328  1.0000
  H   H2082     1.0  0.37319  0.74095  0.61923  1.0000
  H   H2083     1.0  0.66329  0.98439  0.62450  1.0000
  H   H2084     1.0  0.49650  0.91005  0.48593  1.0000
  S   S362      1.0  0.66790  0.00081  0.11246  1.0000
  C   C1227     1.0  0.69924  0.00396  0.03645  1.0000
  H   H2085     1.0  0.70581  0.99829  0.07539  1.0000
  H   H2086     1.0  0.69828  0.01694  0.03377  1.0000
  H   H2087     1.0  0.72735  0.00034  0.04974  1.0000
  H   H2088     1.0  0.68365  0.00168  0.04496  1.0000
  H   H2089     1.0  0.70421  0.00109  0.01635  1.0000
  H   H2090     1.0  0.73615  0.99033  0.00393  1.0000
  C   C1228     1.0  0.71361  0.99486  0.05598  1.0000
  H   H2091     1.0  0.73491  0.98922  0.09425  1.0000
  C   C1229     1.0  0.71087  0.16285  0.63247  1.0000
  C   C1230     1.0  0.69852  0.17855  0.56152  1.0000
  H   H2092     1.0  0.67374  0.16235  0.74898  1.0000
  H   H2093     1.0  0.74217  0.16453  0.61170  1.0000
  H   H2094     1.0  0.78250  0.15423  0.74312  1.0000
  H   H2095     1.0  0.80705  0.14653  0.78636  1.0000
  H   H2096     1.0  0.73964  0.15354  0.64556  1.0000
  H   H2097     1.0  0.77751  0.16540  0.78595  1.0000
  C   C1231     1.0  0.69881  0.13351  0.62986  1.0000
  H   H2098     1.0  0.76430  0.18367  0.76784  1.0000
  H   H2099     1.0  0.81245  0.16597  0.78318  1.0000
  H   H2100     1.0  0.71985  0.11738  0.79925  1.0000
  C   C1232     1.0  0.78178  0.16705  0.74210  1.0000
  C   C1233     1.0  0.76937  0.17067  0.76919  1.0000
  H   H2101     1.0  0.71129  0.18511  0.58943  1.0000
  C   C1234     1.0  0.81717  0.15504  0.77512  1.0000
  S   S363      1.0  0.70724  0.10758  0.69070  1.0000
  H   H2102     1.0  0.82097  0.20379  0.73763  1.0000
  C   C1235     1.0  0.67872  0.22061  0.74392  1.0000
  H   H2103     1.0  0.75540  0.16560  0.77421  1.0000
  C   C1236     1.0  0.70051  0.14761  0.60535  1.0000
  H   H2104     1.0  0.70924  0.17493  0.63628  1.0000
  Fe  Fe183     1.0  0.76493  0.21111  0.68024  1.0000
  S   S364      1.0  0.74040  0.22737  0.65960  1.0000
  S   S365      1.0  0.79635  0.21678  0.67472  1.0000
  Fe  Fe184     1.0  0.74041  0.18395  0.70022  1.0000
  S   S366      1.0  0.71429  0.19804  0.68131  1.0000
  S   S367      1.0  0.74131  0.15860  0.72351  1.0000
  Fe  Fe185     1.0  0.73793  0.20599  0.64615  1.0000
  S   S368      1.0  0.73723  0.20606  0.60370  1.0000
  Fe  Fe186     1.0  0.71909  0.21790  0.69683  1.0000
  H   H2105     1.0  0.79141  0.19651  0.72873  1.0000
  S   S369      1.0  0.76399  0.19028  0.66378  1.0000
  S   S370      1.0  0.74366  0.20323  0.71871  1.0000
  C   C1237     1.0  0.71854  0.13009  0.78906  1.0000
  H   H2106     1.0  0.83386  0.15941  0.73415  1.0000
  C   C1238     1.0  0.80801  0.17316  0.70265  1.0000
  H   H2107     1.0  0.83259  0.14991  0.77943  1.0000
  H   H2108     1.0  0.81048  0.16223  0.66923  1.0000
  C   C1239     1.0  0.71554  0.12223  0.70028  1.0000
  C   C1240     1.0  0.70361  0.13732  0.70178  1.0000
  C   C1241     1.0  0.71182  0.14912  0.70692  1.0000
  C   C1242     1.0  0.73157  0.14551  0.71196  1.0000
  C   C1243     1.0  0.74315  0.13035  0.71099  1.0000
  C   C1244     1.0  0.73539  0.11896  0.70450  1.0000
  H   H2109     1.0  0.67737  0.15660  0.80260  1.0000
  H   H2110     1.0  0.70265  0.16074  0.70805  1.0000
  H   H2111     1.0  0.75829  0.12738  0.71514  1.0000
  H   H2112     1.0  0.74474  0.10740  0.70315  1.0000
  H   H2113     1.0  0.71391  0.12591  0.63146  1.0000
  C   C1245     1.0  0.80244  0.18696  0.73892  1.0000
  H   H2114     1.0  0.73698  0.14451  0.62022  1.0000
  H   H2115     1.0  0.67053  0.13366  0.75471  1.0000
  C   C1246     1.0  0.67798  0.21860  0.59838  1.0000
  H   H2116     1.0  0.79072  0.15680  0.69644  1.0000
  H   H2117     1.0  0.73284  0.13124  0.77417  1.0000
  H   H2118     1.0  0.77211  0.17363  0.72720  1.0000
  H   H2119     1.0  0.68570  0.13962  0.82569  1.0000
  H   H2120     1.0  0.70367  0.10372  0.77833  1.0000
  C   C1247     1.0  0.73371  0.15590  0.62681  1.0000
  H   H2121     1.0  0.71509  0.14399  0.59187  1.0000
  H   H2122     1.0  0.67883  0.10764  0.77021  1.0000
  C   C1248     1.0  0.70072  0.13602  0.77404  1.0000
  H   H2123     1.0  0.79696  0.18708  0.76049  1.0000
  H   H2124     1.0  0.70447  0.15583  0.65193  1.0000
  C   C1249     1.0  0.67586  0.19437  0.77144  1.0000
  H   H2125     1.0  0.68223  0.18186  0.77658  1.0000
  H   H2126     1.0  0.70116  0.14871  0.76439  1.0000
  C   C1250     1.0  0.68670  0.20437  0.75069  1.0000
  C   C1251     1.0  0.70946  0.17387  0.58547  1.0000
  H   H2127     1.0  0.67748  0.18440  0.61937  1.0000
  C   C1252     1.0  0.82296  0.19246  0.73111  1.0000
  H   H2128     1.0  0.70127  0.19947  0.74002  1.0000
  N   N86       1.0  0.69962  0.16367  0.61083  1.0000
  C   C1253     1.0  0.81818  0.15797  0.74466  1.0000
  N   N87       1.0  0.80262  0.17120  0.73282  1.0000
  C   C1254     1.0  0.80638  0.15911  0.69149  1.0000
  H   H2129     1.0  0.83463  0.18381  0.74122  1.0000
  H   H2130     1.0  0.70433  0.12973  0.75727  1.0000
  H   H2131     1.0  0.82375  0.17526  0.69464  1.0000
  C   C1255     1.0  0.71441  0.21559  0.59306  1.0000
  C   C1256     1.0  0.69588  0.21212  0.60852  1.0000
  H   H2132     1.0  0.79813  0.18382  0.69289  1.0000
  H   H2133     1.0  0.81700  0.14809  0.69823  1.0000
  H   H2134     1.0  0.71766  0.13745  0.80354  1.0000
  H   H2135     1.0  0.81701  0.14644  0.74106  1.0000
  H   H2136     1.0  0.69552  0.20405  0.62786  1.0000
  H   H2137     1.0  0.66981  0.01903  0.60432  1.0000
  H   H2138     1.0  0.69512  0.16810  0.55685  1.0000
  C   C1257     1.0  0.80398  0.22816  0.69234  1.0000
  C   C1258     1.0  0.67962  0.11719  0.80481  1.0000
  H   H2139     1.0  0.67168  0.16291  0.66244  1.0000
  H   H2140     1.0  0.68828  0.13995  0.69843  1.0000
  H   H2141     1.0  0.82849  0.19504  0.70909  1.0000
  H   H2142     1.0  0.72509  0.16783  0.57801  1.0000
  C   C1259     1.0  0.67855  0.22910  0.57329  1.0000
  H   H2143     1.0  0.68963  0.12571  0.62676  1.0000
  H   H2144     1.0  0.68853  0.14827  0.59416  1.0000
  H   H2145     1.0  0.70846  0.18425  0.54341  1.0000
  H   H2146     1.0  0.69159  0.13668  0.64937  1.0000
  H   H2147     1.0  0.66778  0.21595  0.65772  1.0000
  C   C1260     1.0  0.68723  0.10490  0.78675  1.0000
  C   C1261     1.0  0.79076  0.23462  0.71319  1.0000
  C   C1262     1.0  0.67800  0.17195  0.61825  1.0000
  C   C1263     1.0  0.69704  0.23283  0.55822  1.0000
  H   H2148     1.0  0.68844  0.11340  0.82116  1.0000
  H   H2149     1.0  0.94856  0.23271  0.81922  1.0000
  H   H2150     1.0  0.69172  0.23349  0.64431  1.0000
  Fe  Fe187     1.0  0.67620  0.10130  0.70768  1.0000
  H   H2151     1.0  0.68444  0.18751  0.56491  1.0000
  C   C1264     1.0  0.71497  0.22579  0.56779  1.0000
  H   H2152     1.0  0.77530  0.23274  0.71897  1.0000
  C   C1265     1.0  0.82404  0.23067  0.68520  1.0000
  S   S371      1.0  0.69194  0.23296  0.71721  1.0000
  N   N88       1.0  0.68007  0.13425  0.79068  1.0000
  H   H2153     1.0  0.83443  0.22559  0.66926  1.0000
  H   H2154     1.0  0.72930  0.22837  0.55567  1.0000
  H   H2155     1.0  0.68464  0.09304  0.79899  1.0000
  S   S372      1.0  0.67087  0.08174  0.74402  1.0000
  H   H2156     1.0  0.68079  0.99218  0.59609  1.0000
  H   H2157     1.0  0.67294  0.21995  0.68632  1.0000
  H   H2158     1.0  0.66847  0.22867  0.82537  1.0000
  C   C1266     1.0  0.67505  0.14419  0.81151  1.0000
  H   H2159     1.0  0.68000  0.00543  0.63111  1.0000
  C   C1267     1.0  0.66587  0.99532  0.60917  1.0000
  C   C1268     1.0  0.66648  0.00907  0.62156  1.0000
  H   H2160     1.0  0.66923  0.04126  0.61669  1.0000
  H   H2161     1.0  0.66636  0.02248  0.66123  1.0000
  H   H2162     1.0  0.66944  0.17279  0.60253  1.0000
  C   C1269     1.0  0.67588  0.23878  0.65233  1.0000
  Fe  Fe188     1.0  0.80878  0.36803  0.32987  1.0000
  S   S373      1.0  0.82674  0.34369  0.34257  1.0000
  S   S374      1.0  0.77516  0.37428  0.33101  1.0000
  Fe  Fe189     1.0  0.84619  0.38294  0.31148  1.0000
  S   S375      1.0  0.86758  0.35998  0.32121  1.0000
  S   S376      1.0  0.85748  0.40574  0.29423  1.0000
  Fe  Fe190     1.0  0.84814  0.35012  0.30364  1.0000
  S   S377      1.0  0.85857  0.33323  0.27571  1.0000
  Fe  Fe191     1.0  0.84448  0.35575  0.35921  1.0000
  S   S378      1.0  0.85307  0.34625  0.39992  1.0000
  S   S379      1.0  0.82909  0.37367  0.28987  1.0000
  S   S380      1.0  0.82421  0.37948  0.35059  1.0000
  Fe  Fe192     1.0  0.87853  0.36888  0.12789  1.0000
  S   S381      1.0  0.84490  0.37243  0.13915  1.0000
  S   S382      1.0  0.89554  0.36841  0.15952  1.0000
  Fe  Fe193     1.0  0.87878  0.36899  0.06995  1.0000
  S   S383      1.0  0.84495  0.37275  0.07650  1.0000
  S   S384      1.0  0.90009  0.36582  0.03073  1.0000
  Fe  Fe194     1.0  0.84495  0.39028  0.10042  1.0000
  S   S385      1.0  0.82035  0.41199  0.10175  1.0000
  Fe  Fe195     1.0  0.84754  0.35466  0.11472  1.0000
  S   S386      1.0  0.82822  0.33605  0.13169  1.0000
  S   S387      1.0  0.87871  0.38830  0.09061  1.0000
  S   S388      1.0  0.88145  0.34932  0.10666  1.0000
  Fe  Fe196     1.0  0.78406  0.47050  0.23940  1.0000
  H   H2163     1.0  0.89424  0.32058  0.07488  1.0000
  S   S389      1.0  0.78064  0.45970  0.28317  1.0000
  Fe  Fe197     1.0  0.80953  0.46951  0.18424  1.0000
  C   C1270     1.0  0.72881  0.30046  0.26392  1.0000
  S   S390      1.0  0.83867  0.45947  0.15969  1.0000
  H   H2164     1.0  0.72854  0.47021  0.30433  1.0000
  Fe  Fe198     1.0  0.76403  0.47545  0.19268  1.0000
  S   S391      1.0  0.73751  0.47145  0.17925  1.0000
  H   H2165     1.0  0.84339  0.28729  0.07620  1.0000
  S   S392      1.0  0.78648  0.45527  0.21034  1.0000
  Fe  Fe199     1.0  0.72100  0.36780  0.17764  1.0000
  S   S393      1.0  0.68950  0.38135  0.18875  1.0000
  S   S394      1.0  0.73715  0.37048  0.13472  1.0000
  Fe  Fe200     1.0  0.72559  0.35428  0.23506  1.0000
  S   S395      1.0  0.69453  0.36659  0.25103  1.0000
  S   S396      1.0  0.74746  0.33850  0.26072  1.0000
  Fe  Fe201     1.0  0.68448  0.35891  0.21944  1.0000
  H   H2166     1.0  0.74048  0.45170  0.32331  1.0000
  Fe  Fe202     1.0  0.70239  0.38771  0.21896  1.0000
  S   S397      1.0  0.69379  0.41230  0.22780  1.0000
  S   S398      1.0  0.71522  0.34487  0.20588  1.0000
  S   S399      1.0  0.73422  0.37594  0.20541  1.0000
  C   C1271     1.0  0.71391  0.44976  0.30908  1.0000
  H   H2167     1.0  0.89311  0.40254  0.13878  1.0000
  S   S400      1.0  0.90277  0.38693  0.43346  1.0000
  H   H2168     1.0  0.87270  0.43911  0.17374  1.0000
  H   H2169     1.0  0.83218  0.38080  0.41626  1.0000
  H   H2170     1.0  0.83339  0.42188  0.23434  1.0000
  H   H2171     1.0  0.88284  0.41280  0.37798  1.0000
  C   C1272     1.0  0.86590  0.41476  0.22159  1.0000
  H   H2172     1.0  0.89186  0.31791  0.04359  1.0000
  C   C1273     1.0  0.70144  0.29468  0.33207  1.0000
  H   H2173     1.0  0.69503  0.44540  0.27380  1.0000
  C   C1274     1.0  0.81588  0.44092  0.35281  1.0000
  H   H2174     1.0  0.82397  0.39877  0.42826  1.0000
  H   H2175     1.0  0.88081  0.40213  0.35401  1.0000
  H   H2176     1.0  0.80760  0.42117  0.38346  1.0000
  H   H2177     1.0  0.91922  0.29523  0.34712  1.0000
  H   H2178     1.0  0.89623  0.40154  0.25132  1.0000
  H   H2179     1.0  0.83931  0.39280  0.19677  1.0000
  H   H2180     1.0  0.82843  0.36268  0.23660  1.0000
  C   C1275     1.0  0.85732  0.42353  0.35626  1.0000
  H   H2181     1.0  0.89911  0.28097  0.32130  1.0000
  C   C1276     1.0  0.89757  0.40806  0.15263  1.0000
  C   C1277     1.0  0.74334  0.43274  0.28755  1.0000
  C   C1278     1.0  0.72663  0.45432  0.19264  1.0000
  C   C1279     1.0  0.70558  0.45637  0.19695  1.0000
  C   C1280     1.0  0.69595  0.44328  0.20698  1.0000
  C   C1281     1.0  0.70722  0.42785  0.21185  1.0000
  C   C1282     1.0  0.72845  0.42558  0.20684  1.0000
  C   C1283     1.0  0.73817  0.43886  0.19759  1.0000
  H   H2182     1.0  0.69658  0.46821  0.19290  1.0000
  H   H2183     1.0  0.87587  0.31439  0.99859  1.0000
  H   H2184     1.0  0.73721  0.41370  0.21087  1.0000
  H   H2185     1.0  0.75450  0.43719  0.19379  1.0000
  C   C1284     1.0  0.70357  0.42173  0.29525  1.0000
  H   H2186     1.0  0.70513  0.47793  0.27253  1.0000
  H   H2187     1.0  0.91641  0.41139  0.19213  1.0000
  H   H2188     1.0  0.99131  0.37012  0.46589  1.0000
  H   H2189     1.0  0.86364  0.30071  0.04029  1.0000
  C   C1285     1.0  0.82573  0.42559  0.11673  1.0000
  C   C1286     1.0  0.84566  0.42570  0.11765  1.0000
  C   C1287     1.0  0.84966  0.43661  0.12989  1.0000
  C   C1288     1.0  0.83369  0.44690  0.14229  1.0000
  C   C1289     1.0  0.81376  0.44681  0.14135  1.0000
  C   C1290     1.0  0.80982  0.43637  0.12814  1.0000
  H   H2190     1.0  0.85802  0.41761  0.10847  1.0000
  H   H2191     1.0  0.86510  0.43693  0.12995  1.0000
  H   H2192     1.0  0.80135  0.45489  0.15051  1.0000
  H   H2193     1.0  0.79442  0.43643  0.12722  1.0000
  C   C1291     1.0  0.76215  0.36004  0.13299  1.0000
  C   C1292     1.0  0.77704  0.36464  0.11088  1.0000
  C   C1293     1.0  0.79734  0.35727  0.11039  1.0000
  C   C1294     1.0  0.80271  0.34476  0.13141  1.0000
  C   C1295     1.0  0.78764  0.33948  0.15269  1.0000
  C   C1296     1.0  0.76745  0.34741  0.15389  1.0000
  H   H2194     1.0  0.77298  0.37414  0.09437  1.0000
  H   H2195     1.0  0.80873  0.36121  0.09358  1.0000
  H   H2196     1.0  0.79164  0.32958  0.16869  1.0000
  H   H2197     1.0  0.75600  0.34365  0.17088  1.0000
  C   C1297     1.0  0.86800  0.35678  0.40905  1.0000
  C   C1298     1.0  0.86708  0.35602  0.43629  1.0000
  C   C1299     1.0  0.87806  0.36492  0.44404  1.0000
  C   C1300     1.0  0.89035  0.37443  0.42456  1.0000
  C   C1301     1.0  0.89199  0.37461  0.39736  1.0000
  C   C1302     1.0  0.88063  0.36602  0.38957  1.0000
  H   H2198     1.0  0.89222  0.30563  0.28713  1.0000
  H   H2199     1.0  0.89892  0.43434  0.17008  1.0000
  H   H2200     1.0  0.90184  0.38165  0.38227  1.0000
  H   H2201     1.0  0.88168  0.36654  0.36853  1.0000
  C   C1303     1.0  0.86941  0.34254  0.24342  1.0000
  C   C1304     1.0  0.86578  0.33893  0.22082  1.0000
  C   C1305     1.0  0.87369  0.34687  0.19491  1.0000
  C   C1306     1.0  0.88586  0.35798  0.19160  1.0000
  C   C1307     1.0  0.89010  0.36110  0.21422  1.0000
  C   C1308     1.0  0.88152  0.35368  0.24011  1.0000
  H   H2202     1.0  0.85649  0.33025  0.22334  1.0000
  H   H2203     1.0  0.87053  0.34427  0.17751  1.0000
  H   H2204     1.0  0.89988  0.36938  0.21171  1.0000
  H   H2205     1.0  0.88452  0.35640  0.25749  1.0000
  C   C1309     1.0  0.83627  0.42084  0.29094  1.0000
  C   C1310     1.0  0.83856  0.43652  0.27914  1.0000
  C   C1311     1.0  0.82141  0.44854  0.27656  1.0000
  C   C1312     1.0  0.80206  0.44491  0.28668  1.0000
  C   C1313     1.0  0.79983  0.42928  0.29875  1.0000
  C   C1314     1.0  0.81691  0.41722  0.30030  1.0000
  H   H2206     1.0  0.85352  0.43936  0.27189  1.0000
  H   H2207     1.0  0.82312  0.46066  0.26719  1.0000
  H   H2208     1.0  0.78494  0.42638  0.30646  1.0000
  H   H2209     1.0  0.81497  0.40513  0.30884  1.0000
  C   C1315     1.0  0.76675  0.36323  0.31392  1.0000
  C   C1316     1.0  0.77987  0.35044  0.30416  1.0000
  C   C1317     1.0  0.77342  0.34240  0.28900  1.0000
  C   C1318     1.0  0.75402  0.34737  0.28288  1.0000
  C   C1319     1.0  0.74067  0.35989  0.29321  1.0000
  C   C1320     1.0  0.74699  0.36771  0.30892  1.0000
  H   H2210     1.0  0.79510  0.34686  0.30801  1.0000
  H   H2211     1.0  0.78375  0.33266  0.28120  1.0000
  H   H2212     1.0  0.72566  0.36378  0.28862  1.0000
  H   H2213     1.0  0.73677  0.37756  0.31649  1.0000
  H   H2214     1.0  0.85107  0.38041  0.22320  1.0000
  H   H2215     1.0  0.82780  0.39324  0.23186  1.0000
  H   H2216     1.0  0.80161  0.44278  0.34545  1.0000
  H   H2217     1.0  0.75837  0.43170  0.24572  1.0000
  H   H2218     1.0  0.89001  0.42030  0.34275  1.0000
  C   C1321     1.0  0.88993  0.36345  0.00469  1.0000
  H   H2219     1.0  0.90292  0.42095  0.23756  1.0000
  N   N89       1.0  0.73846  0.41901  0.11526  1.0000
  C   C1322     1.0  0.73064  0.41426  0.09467  1.0000
  C   C1323     1.0  0.72482  0.41463  0.14212  1.0000
  C   C1324     1.0  0.75988  0.40979  0.11570  1.0000
  C   C1325     1.0  0.73822  0.43665  0.10678  1.0000
  C   C1326     1.0  0.74365  0.41645  0.06602  1.0000
  C   C1327     1.0  0.70227  0.42250  0.14422  1.0000
  C   C1328     1.0  0.76709  0.40510  0.14263  1.0000
  C   C1329     1.0  0.74184  0.44459  0.12746  1.0000
  H   H2220     1.0  0.72902  0.40154  0.10119  1.0000
  H   H2221     1.0  0.71527  0.42118  0.09253  1.0000
  H   H2222     1.0  0.72993  0.41753  0.15835  1.0000
  H   H2223     1.0  0.72553  0.40153  0.14784  1.0000
  H   H2224     1.0  0.76194  0.39821  0.10991  1.0000
  H   H2225     1.0  0.77115  0.41621  0.10058  1.0000
  H   H2226     1.0  0.74991  0.43940  0.08843  1.0000
  H   H2227     1.0  0.72351  0.44317  0.10113  1.0000
  H   H2228     1.0  0.73684  0.41188  0.05318  1.0000
  C   C1330     1.0  0.86124  0.36353  0.98589  1.0000
  H   H2229     1.0  0.75936  0.40965  0.06541  1.0000
  H   H2230     1.0  0.69466  0.41779  0.13256  1.0000
  H   H2231     1.0  0.69445  0.41954  0.16552  1.0000
  H   H2232     1.0  0.70000  0.43564  0.13823  1.0000
  H   H2233     1.0  0.78357  0.40009  0.13888  1.0000
  H   H2234     1.0  0.75952  0.39560  0.15668  1.0000
  H   H2235     1.0  0.76481  0.41520  0.15234  1.0000
  H   H2236     1.0  0.72975  0.44384  0.14563  1.0000
  H   H2237     1.0  0.74142  0.45747  0.11866  1.0000
  H   H2238     1.0  0.75688  0.43975  0.13280  1.0000
  C   C1331     1.0  0.90318  0.40753  0.20716  1.0000
  H   H2239     1.0  0.84505  0.36565  0.98725  1.0000
  S   S401      1.0  0.80984  0.48229  0.21551  1.0000
  C   C1332     1.0  0.71178  0.47220  0.25517  1.0000
  H   H2240     1.0  0.91194  0.40055  0.15777  1.0000
  C   C1333     1.0  0.89925  0.31747  0.31520  1.0000
  H   H2241     1.0  0.84795  0.42564  0.43740  1.0000
  C   C1334     1.0  0.85430  0.42277  0.41730  1.0000
  C   C1335     1.0  0.72583  0.45902  0.31885  1.0000
  C   C1336     1.0  0.83719  0.42694  0.40122  1.0000
  H   H2242     1.0  0.82206  0.33755  0.02496  1.0000
  H   H2243     1.0  0.98572  0.41842  0.41528  1.0000
  N   N90       1.0  0.72402  0.44438  0.28331  1.0000
  H   H2244     1.0  0.91786  0.29900  0.29382  1.0000
  H   H2245     1.0  0.87549  0.44167  0.22431  1.0000
  H   H2246     1.0  0.80703  0.34062  0.05735  1.0000
  H   H2247     1.0  0.76162  0.39027  0.26311  1.0000
  H   H2248     1.0  0.84031  0.42116  0.19976  1.0000
  H   H2249     1.0  0.79819  0.35250  0.23804  1.0000
  H   H2250     1.0  0.90004  0.42002  0.14110  1.0000
  H   H2251     1.0  0.84012  0.31057  0.03082  1.0000
  H   H2252     1.0  0.89758  0.47686  0.13200  1.0000
  H   H2253     1.0  0.76306  0.39347  0.22759  1.0000
  H   H2254     1.0  0.69962  0.41434  0.28385  1.0000
  H   H2255     1.0  0.86102  0.40998  0.42183  1.0000
  H   H2256     1.0  0.85765  0.43632  0.35384  1.0000
  C   C1337     1.0  0.83614  0.38565  0.21752  1.0000
  C   C1338     1.0  0.82103  0.42334  0.36737  1.0000
  C   C1339     1.0  0.84389  0.40074  0.38814  1.0000
  C   C1340     1.0  0.82708  0.39385  0.41003  1.0000
  H   H2257     1.0  0.82171  0.41594  0.35286  1.0000
  C   C1341     1.0  0.93858  0.38660  0.99452  1.0000
  H   H2258     1.0  0.85787  0.39626  0.39630  1.0000
  H   H2259     1.0  0.84660  0.39495  0.37086  1.0000
  H   H2260     1.0  0.85502  0.42241  0.33663  1.0000
  H   H2261     1.0  0.81296  0.39548  0.40253  1.0000
  H   H2262     1.0  0.87730  0.45683  0.19534  1.0000
  N   N91       1.0  0.69220  0.31115  0.28630  1.0000
  H   H2263     1.0  0.86805  0.41853  0.23895  1.0000
  H   H2264     1.0  0.71688  0.46237  0.33784  1.0000
  H   H2265     1.0  0.92184  0.40334  0.23696  1.0000
  H   H2266     1.0  0.72964  0.28905  0.27888  1.0000
  H   H2267     1.0  0.94196  0.40821  0.00496  1.0000
  H   H2268     1.0  0.81865  0.35609  0.03456  1.0000
  C   C1342     1.0  0.88482  0.43352  0.18549  1.0000
  H   H2269     1.0  0.84474  0.43734  0.21118  1.0000
  C   C1343     1.0  0.86457  0.32253  0.01023  1.0000
  H   H2270     1.0  0.69033  0.42476  0.31109  1.0000
  H   H2271     1.0  0.97368  0.39408  0.46793  1.0000
  H   H2272     1.0  0.87248  0.48714  0.19178  1.0000
  C   C1344     1.0  0.90594  0.40862  0.23481  1.0000
  Fe  Fe203     1.0  0.90501  0.38193  0.47724  1.0000
  N   N92       1.0  0.88358  0.41641  0.19839  1.0000
  H   H2273     1.0  0.90023  0.44474  0.20540  1.0000
  H   H2274     1.0  0.71494  0.30018  0.32694  1.0000
  H   H2275     1.0  0.70037  0.33955  0.29898  1.0000
  C   C1345     1.0  0.96153  0.35315  0.00775  1.0000
  N   N93       1.0  0.88936  0.30838  0.34171  1.0000
  C   C1346     1.0  0.88460  0.31882  0.36189  1.0000
  C   C1347     1.0  0.86942  0.30561  0.33894  1.0000
  C   C1348     1.0  0.90339  0.29322  0.35160  1.0000
  C   C1349     1.0  0.90248  0.32515  0.36531  1.0000
  C   C1350     1.0  0.85633  0.29798  0.36514  1.0000
  C   C1351     1.0  0.90368  0.27846  0.34089  1.0000
  H   H2276     1.0  0.87260  0.32930  0.35683  1.0000
  H   H2277     1.0  0.87824  0.31244  0.38230  1.0000
  H   H2278     1.0  0.87124  0.29823  0.32420  1.0000
  H   H2279     1.0  0.86003  0.31706  0.33061  1.0000
  H   H2280     1.0  0.73574  0.45418  0.24169  1.0000
  H   H2281     1.0  0.89932  0.28959  0.37389  1.0000
  H   H2282     1.0  0.89779  0.33031  0.38351  1.0000
  H   H2283     1.0  0.90655  0.33496  0.34821  1.0000
  H   H2284     1.0  0.86506  0.28741  0.37669  1.0000
  H   H2285     1.0  0.84906  0.30674  0.37802  1.0000
  H   H2286     1.0  0.84385  0.29414  0.36014  1.0000
  H   H2287     1.0  0.91933  0.27141  0.33836  1.0000
  H   H2288     1.0  0.85890  0.37171  0.02183  1.0000
  H   H2289     1.0  0.89430  0.27043  0.35592  1.0000
  H   H2290     1.0  0.86466  0.40203  0.22940  1.0000
  H   H2291     1.0  0.69296  0.29821  0.25603  1.0000
  H   H2292     1.0  0.71516  0.43446  0.25526  1.0000
  H   H2293     1.0  0.67169  0.33645  0.18413  1.0000
  H   H2294     1.0  0.71595  0.41393  0.30493  1.0000
  C   C1352     1.0  0.67892  0.32558  0.29594  1.0000
  H   H2295     1.0  0.86648  0.41479  0.16996  1.0000
  H   H2296     1.0  0.82132  0.28988  0.10188  1.0000
  H   H2297     1.0  0.88011  0.33644  0.05471  1.0000
  C   C1353     1.0  0.84508  0.42436  0.21593  1.0000
  H   H2298     1.0  0.67472  0.33510  0.27857  1.0000
  H   H2299     1.0  0.90515  0.39459  0.20807  1.0000
  H   H2300     1.0  0.74393  0.42916  0.05673  1.0000
  C   C1354     1.0  0.85372  0.31261  0.03617  1.0000
  H   H2301     1.0  0.71336  0.32491  0.25882  1.0000
  H   H2302     1.0  0.93770  0.38026  0.01592  1.0000
  H   H2303     1.0  0.74411  0.30357  0.25861  1.0000
  C   C1355     1.0  0.83039  0.31223  0.07967  1.0000
  C   C1356     1.0  0.83558  0.29426  0.09172  1.0000
  H   H2304     1.0  0.87833  0.39619  0.18676  1.0000
  H   H2305     1.0  0.79574  0.39345  0.24255  1.0000
  H   H2306     1.0  0.79578  0.37361  0.26026  1.0000
  H   H2307     1.0  0.79653  0.41242  0.17010  1.0000
  H   H2308     1.0  0.91059  0.31784  0.27288  1.0000
  C   C1357     1.0  0.82581  0.37201  0.21827  1.0000
  H   H2309     1.0  0.75477  0.43896  0.28953  1.0000
  H   H2310     1.0  0.91593  0.31566  0.36811  1.0000
  C   C1358     1.0  0.88047  0.40866  0.17766  1.0000
  H   H2311     1.0  0.67585  0.34334  0.31910  1.0000
  H   H2312     1.0  0.82271  0.42553  0.41567  1.0000
  C   C1359     1.0  0.79183  0.38219  0.24181  1.0000
  H   H2313     1.0  0.83483  0.36687  0.20093  1.0000
  H   H2314     1.0  0.84476  0.29189  0.10739  1.0000
  C   C1360     1.0  0.97501  0.38557  0.98911  1.0000
  H   H2315     1.0  0.82759  0.44419  0.33488  1.0000
  N   N94       1.0  0.84019  0.41856  0.37863  1.0000
  C   C1361     1.0  0.87887  0.41408  0.35832  1.0000
  C   C1362     1.0  0.68422  0.30900  0.26344  1.0000
  N   N95       1.0  0.80360  0.37613  0.21717  1.0000
  H   H2316     1.0  0.86645  0.42968  0.40697  1.0000
  C   C1363     1.0  0.76863  0.38524  0.24508  1.0000
  C   C1364     1.0  0.79715  0.40568  0.19092  1.0000
  H   H2317     1.0  0.85147  0.34382  0.04121  1.0000
  H   H2318     1.0  0.87675  0.36462  0.46508  1.0000
  H   H2319     1.0  0.69868  0.45722  0.30753  1.0000
  C   C1365     1.0  0.79713  0.36082  0.21828  1.0000
  H   H2320     1.0  0.74115  0.42390  0.30686  1.0000
  H   H2321     1.0  0.72564  0.29901  0.24512  1.0000
  C   C1366     1.0  0.79964  0.38777  0.19157  1.0000
  H   H2322     1.0  0.81188  0.38509  0.17444  1.0000
  H   H2323     1.0  0.80128  0.34155  0.19818  1.0000
  H   H2324     1.0  0.76300  0.37414  0.24856  1.0000
  H   H2325     1.0  0.80976  0.40881  0.19648  1.0000
  H   H2326     1.0  0.76760  0.41551  0.27061  1.0000
  C   C1367     1.0  0.86475  0.31605  0.07563  1.0000
  H   H2327     1.0  0.97594  0.42918  0.45806  1.0000
  C   C1368     1.0  0.71348  0.31404  0.27514  1.0000
  C   C1369     1.0  0.80886  0.35155  0.19639  1.0000
  H   H2328     1.0  0.78286  0.41034  0.20363  1.0000
  C   C1370     1.0  0.75365  0.42362  0.26505  1.0000
  H   H2329     1.0  0.74382  0.41622  0.26238  1.0000
  H   H2330     1.0  0.88923  0.32908  0.30909  1.0000
  H   H2331     1.0  0.85745  0.34882  0.45148  1.0000
  H   H2332     1.0  0.91356  0.32037  0.31684  1.0000
  H   H2333     1.0  0.74160  0.46298  0.26444  1.0000
  H   H2334     1.0  0.78563  0.38641  0.18639  1.0000
  H   H2335     1.0  0.78104  0.36301  0.21632  1.0000
  H   H2336     1.0  0.82454  0.34597  0.19907  1.0000
  H   H2337     1.0  0.80886  0.35900  0.17590  1.0000
  H   H2338     1.0  0.81322  0.44922  0.36635  1.0000
  C   C1371     1.0  0.72934  0.45816  0.26089  1.0000
  H   H2339     1.0  0.83529  0.44001  0.39340  1.0000
  C   C1372     1.0  0.88357  0.32331  0.06091  1.0000
  C   C1373     1.0  0.70956  0.43692  0.27564  1.0000
  C   C1374     1.0  0.88459  0.44457  0.20393  1.0000
  C   C1375     1.0  0.90515  0.30923  0.29127  1.0000
  C   C1376     1.0  0.82081  0.34299  0.04215  1.0000
  H   H2340     1.0  0.72020  0.31668  0.29013  1.0000
  H   H2341     1.0  0.70705  0.28188  0.33995  1.0000
  C   C1377     1.0  0.86907  0.36680  0.00567  1.0000
  H   H2342     1.0  0.81759  0.31380  0.06938  1.0000
  N   N96       1.0  0.84751  0.31966  0.06087  1.0000
  H   H2343     1.0  0.83639  0.34203  0.07336  1.0000
  H   H2344     1.0  0.82396  0.31827  0.09684  1.0000
  C   C1378     1.0  0.83987  0.33736  0.05473  1.0000
  H   H2345     1.0  0.85940  0.31998  0.09507  1.0000
  H   H2346     1.0  0.69986  0.46869  0.24853  1.0000
  H   H2347     1.0  0.71099  0.43933  0.32567  1.0000
  H   H2348     1.0  0.68601  0.31919  0.24589  1.0000
  H   H2349     1.0  0.87287  0.33088  0.01320  1.0000
  C   C1379     1.0  0.68780  0.33372  0.31187  1.0000
  H   H2350     1.0  0.67958  0.44516  0.21107  1.0000
  H   H2351     1.0  0.85374  0.32908  0.99685  1.0000
  H   H2352     1.0  0.87055  0.30304  0.08083  1.0000
  H   H2353     1.0  0.91653  0.40670  0.00630  1.0000
  C   C1380     1.0  0.69127  0.29635  0.30821  1.0000
  H   H2354     1.0  0.69295  0.32558  0.32969  1.0000
  H   H2355     1.0  0.95642  0.41970  0.45572  1.0000
  H   H2356     1.0  0.96676  0.35787  0.02183  1.0000
  H   H2357     1.0  0.71775  0.48142  0.23828  1.0000
  H   H2358     1.0  0.94587  0.35111  0.01667  1.0000
  H   H2359     1.0  0.86289  0.48372  0.15534  1.0000
  H   H2360     1.0  0.69735  0.28541  0.29994  1.0000
  H   H2361     1.0  0.98296  0.39858  0.42014  1.0000
  C   C1381     1.0  0.98306  0.40267  0.46776  1.0000
  C   C1382     1.0  0.96838  0.41886  0.46699  1.0000
  C   C1383     1.0  0.99414  0.40593  0.41923  1.0000
  H   H2362     1.0  0.97177  0.34153  0.00632  1.0000
  C   C1384     1.0  0.93227  0.40447  0.99473  1.0000
  H   H2363     1.0  0.97222  0.38219  0.01142  1.0000
  S   S402      1.0  0.78732  0.48870  0.16418  1.0000
  H   H2364     1.0  0.67525  0.29538  0.31734  1.0000
  H   H2365     1.0  0.69043  0.29954  0.34857  1.0000
  H   H2366     1.0  0.92663  0.38305  0.98782  1.0000
  H   H2367     1.0  0.97427  0.39865  0.98446  1.0000
  Fe  Fe204     1.0  0.91716  0.44620  0.71520  1.0000
  S   S403      1.0  0.90962  0.44579  0.75899  1.0000
  S   S404      1.0  0.91869  0.40832  0.65776  1.0000
  S   S405      1.0  0.94005  0.42618  0.70091  1.0000
  Fe  Fe205     1.0  0.90420  0.39635  0.52513  1.0000
  S   S406      1.0  0.91032  0.37227  0.55170  1.0000
  S   S407      1.0  0.90119  0.41834  0.54133  1.0000
  Fe  Fe206     1.0  0.88832  0.36606  0.53337  1.0000
  S   S408      1.0  0.86266  0.35524  0.56101  1.0000
  S   S409      1.0  0.88005  0.39068  0.50929  1.0000
  Fe  Fe207     1.0  0.88046  0.28650  0.67666  1.0000
  S   S410      1.0  0.88372  0.26151  0.70078  1.0000
  S   S411      1.0  0.89525  0.28992  0.63324  1.0000
  Fe  Fe208     1.0  0.86304  0.30106  0.72607  1.0000
  S   S412      1.0  0.86511  0.27700  0.75379  1.0000
  S   S413      1.0  0.85207  0.32363  0.74221  1.0000
  Fe  Fe209     1.0  0.89584  0.27123  0.72795  1.0000
  H   H2368     1.0  0.95986  0.38770  0.64961  1.0000
  C   C1385     1.0  0.94117  0.31403  0.66230  1.0000
  S   S414      1.0  0.89427  0.29570  0.70211  1.0000
  S   S415      1.0  0.84868  0.29452  0.69749  1.0000
  Fe  Fe210     1.0  0.89544  0.34342  0.84785  1.0000
  S   S416      1.0  0.86418  0.35347  0.86743  1.0000
  S   S417      1.0  0.90430  0.32340  0.82577  1.0000
  Fe  Fe211     1.0  0.91408  0.36863  0.85783  1.0000
  S   S418      1.0  0.88446  0.38081  0.87846  1.0000
  S   S419      1.0  0.94168  0.37982  0.84420  1.0000
  Fe  Fe212     1.0  0.87955  0.35610  0.89876  1.0000
  S   S420      1.0  0.86403  0.35127  0.94225  1.0000
  Fe  Fe213     1.0  0.87191  0.37718  0.84555  1.0000
  S   S421      1.0  0.85348  0.39610  0.81899  1.0000
  S   S422      1.0  0.91049  0.34397  0.88089  1.0000
  S   S423      1.0  0.90190  0.36689  0.82349  1.0000
  C   C1386     1.0  0.95780  0.37457  0.86718  1.0000
  C   C1387     1.0  0.89520  0.35480  0.96270  1.0000
  H   H2369     1.0  0.88809  0.27012  0.84459  1.0000
  H   H2370     1.0  0.93328  0.44905  0.55227  1.0000
  H   H2371     1.0  0.96772  0.25316  0.74640  1.0000
  H   H2372     1.0  0.84622  0.24166  0.69269  1.0000
  H   H2373     1.0  0.99538  0.31147  0.79593  1.0000
  C   C1388     1.0  0.94191  0.27196  0.74062  1.0000
  H   H2374     1.0  0.96987  0.26572  0.66954  1.0000
  H   H2375     1.0  0.94253  0.35644  0.89447  1.0000
  C   C1389     1.0  0.86626  0.32426  0.76534  1.0000
  C   C1390     1.0  0.85789  0.33278  0.78575  1.0000
  C   C1391     1.0  0.86943  0.33274  0.80444  1.0000
  C   C1392     1.0  0.88940  0.32431  0.80248  1.0000
  C   C1393     1.0  0.89784  0.31634  0.78146  1.0000
  C   C1394     1.0  0.88627  0.31628  0.76312  1.0000
  H   H2376     1.0  0.84235  0.33907  0.78755  1.0000
  H   H2377     1.0  0.86275  0.33900  0.82054  1.0000
  H   H2378     1.0  0.91342  0.31029  0.77918  1.0000
  H   H2379     1.0  0.89274  0.31015  0.74701  1.0000
  C   C1395     1.0  0.87177  0.33719  0.58124  1.0000
  C   C1396     1.0  0.89145  0.32904  0.57380  1.0000
  C   C1397     1.0  0.89856  0.31447  0.58990  1.0000
  C   C1398     1.0  0.88623  0.30832  0.61385  1.0000
  C   C1399     1.0  0.86680  0.31674  0.62180  1.0000
  C   C1400     1.0  0.85942  0.33106  0.60524  1.0000
  H   H2380     1.0  0.90102  0.33377  0.55530  1.0000
  H   H2381     1.0  0.91360  0.30795  0.58373  1.0000
  H   H2382     1.0  0.85729  0.31203  0.64033  1.0000
  H   H2383     1.0  0.84423  0.33742  0.61105  1.0000
  H   H2384     1.0  0.94470  0.38594  0.53682  1.0000
  C   C1401     1.0  0.91589  0.41170  0.62431  1.0000
  C   C1402     1.0  0.92078  0.39884  0.61171  1.0000
  C   C1403     1.0  0.91721  0.40096  0.58579  1.0000
  C   C1404     1.0  0.90837  0.41586  0.57240  1.0000
  C   C1405     1.0  0.90410  0.42886  0.58473  1.0000
  C   C1406     1.0  0.90798  0.42682  0.61058  1.0000
  H   H2385     1.0  0.92721  0.38718  0.62203  1.0000
  H   H2386     1.0  0.92121  0.39098  0.57639  1.0000
  H   H2387     1.0  0.89727  0.44045  0.57457  1.0000
  C   C1407     1.0  0.89323  0.43267  0.77579  1.0000
  C   C1408     1.0  0.89661  0.42270  0.80020  1.0000
  C   C1409     1.0  0.88430  0.41155  0.81340  1.0000
  C   C1410     1.0  0.86810  0.41069  0.80280  1.0000
  C   C1411     1.0  0.86437  0.42096  0.77861  1.0000
  C   C1412     1.0  0.87718  0.43179  0.76481  1.0000
  H   H2388     1.0  0.90906  0.42329  0.80867  1.0000
  H   H2389     1.0  0.88737  0.40369  0.83189  1.0000
  H   H2390     1.0  0.85186  0.42031  0.77033  1.0000
  H   H2391     1.0  0.87450  0.43957  0.74594  1.0000
  C   C1413     1.0  0.86049  0.40545  0.65450  1.0000
  C   C1414     1.0  0.96642  0.29221  0.74400  1.0000
  H   H2392     1.0  0.95027  0.47487  0.58772  1.0000
  H   H2393     1.0  0.90534  0.34994  0.94636  1.0000
  C   C1415     1.0  0.82412  0.30397  0.60197  1.0000
  H   H2394     1.0  0.79470  0.26547  0.61062  1.0000
  C   C1416     1.0  0.95530  0.36231  0.88996  1.0000
  H   H2395     1.0  0.98886  0.39650  0.79347  1.0000
  C   C1417     1.0  0.97361  0.29532  0.66786  1.0000
  C   C1418     1.0  0.87427  0.35740  0.96449  1.0000
  H   H2396     1.0  0.97816  0.40173  0.72028  1.0000
  H   H2397     1.0  0.96623  0.32808  0.61990  1.0000
  H   H2398     1.0  0.84137  0.36776  0.60975  1.0000
  C   C1419     1.0  0.83530  0.26789  0.63003  1.0000
  H   H2399     1.0  0.94852  0.32417  0.66025  1.0000
  C   C1420     1.0  0.94302  0.39037  0.93566  1.0000
  H   H2400     1.0  0.97682  0.35978  0.96635  1.0000
  H   H2401     1.0  0.99325  0.44359  0.56274  1.0000
  C   C1421     1.0  0.96334  0.30305  0.62337  1.0000
  C   C1422     1.0  0.94498  0.28621  0.66139  1.0000
  C   C1423     1.0  0.99501  0.37069  0.52964  1.0000
  S   S424      1.0  0.91233  0.35689  0.50067  1.0000
  H   H2402     1.0  0.94790  0.26096  0.66422  1.0000
  N   N97       1.0  0.95602  0.30001  0.65337  1.0000
  H   H2403     1.0  0.91329  0.33075  0.65623  1.0000
  C   C1424     1.0  0.97976  0.45013  0.57455  1.0000
  H   H2404     1.0  0.87994  0.36101  0.60279  1.0000
  C   C1425     1.0  0.92116  0.26687  0.86101  1.0000
  H   H2405     1.0  0.91934  0.29294  0.73561  1.0000
  C   C1426     1.0  0.91469  0.28190  0.87298  1.0000
  H   H2406     1.0  0.83714  0.29946  0.58705  1.0000
  H   H2407     1.0  0.95560  0.40741  0.54751  1.0000
  H   H2408     1.0  0.84776  0.40038  0.66857  1.0000
  H   H2409     1.0  0.95818  0.46384  0.51891  1.0000
  N   N98       1.0  0.89056  0.37381  0.73995  1.0000
  C   C1427     1.0  0.86866  0.37321  0.74165  1.0000
  C   C1428     1.0  0.90061  0.37606  0.71071  1.0000
  C   C1429     1.0  0.89097  0.38786  0.75086  1.0000
  C   C1430     1.0  0.89978  0.35840  0.75659  1.0000
  C   C1431     1.0  0.85420  0.37501  0.76862  1.0000
  C   C1432     1.0  0.90124  0.36250  0.69699  1.0000
  C   C1433     1.0  0.91086  0.39429  0.74302  1.0000
  C   C1434     1.0  0.92285  0.35494  0.75516  1.0000
  H   H2410     1.0  0.86208  0.38275  0.72594  1.0000
  H   H2411     1.0  0.86724  0.36178  0.73780  1.0000
  H   H2412     1.0  0.91644  0.37769  0.70733  1.0000
  H   H2413     1.0  0.89290  0.38732  0.69912  1.0000
  H   H2414     1.0  0.87929  0.39822  0.74402  1.0000
  H   H2415     1.0  0.88690  0.38515  0.77319  1.0000
  H   H2416     1.0  0.89283  0.35760  0.77817  1.0000
  H   H2417     1.0  0.89597  0.34803  0.75206  1.0000
  H   H2418     1.0  0.83967  0.37165  0.76912  1.0000
  H   H2419     1.0  0.86023  0.36734  0.78627  1.0000
  H   H2420     1.0  0.85054  0.38754  0.77080  1.0000
  H   H2421     1.0  0.88589  0.36109  0.69660  1.0000
  H   H2422     1.0  0.90923  0.36542  0.67577  1.0000
  H   H2423     1.0  0.90972  0.35103  0.70668  1.0000
  H   H2424     1.0  0.90948  0.40335  0.75482  1.0000
  H   H2425     1.0  0.91357  0.40043  0.72156  1.0000
  H   H2426     1.0  0.92415  0.38511  0.74746  1.0000
  H   H2427     1.0  0.92656  0.35931  0.77100  1.0000
  H   H2428     1.0  0.93167  0.35973  0.73544  1.0000
  H   H2429     1.0  0.92839  0.34186  0.75869  1.0000
  C   C1435     1.0  0.94912  0.44296  0.54654  1.0000
  H   H2430     1.0  0.83584  0.25599  0.64381  1.0000
  H   H2431     1.0  0.98650  0.28750  0.65744  1.0000
  C   C1436     1.0  0.97297  0.31789  0.61016  1.0000
  H   H2432     1.0  0.84803  0.41562  0.61909  1.0000
  H   H2433     1.0  0.85885  0.41782  0.65687  1.0000
  C   C1437     1.0  0.92589  0.25396  0.82305  1.0000
  C   C1438     1.0  0.98717  0.39653  0.54154  1.0000
  C   C1439     1.0  0.89337  0.27781  0.80178  1.0000
  H   H2434     1.0  0.96043  0.36377  0.67647  1.0000
  H   H2435     1.0  0.95511  0.28924  0.82970  1.0000
  C   C1440     1.0  0.97445  0.37167  0.53002  1.0000
  H   H2436     1.0  0.83221  0.40723  0.58426  1.0000
  C   C1441     1.0  0.97824  0.47604  0.54164  1.0000
  H   H2437     1.0  0.87848  0.28584  0.80048  1.0000
  H   H2438     1.0  0.80993  0.28624  0.59794  1.0000
  H   H2439     1.0  0.85257  0.41844  0.57348  1.0000
  S   S425      1.0  0.82519  0.25783  0.73657  1.0000
  H   H2440     1.0  0.94681  0.39580  0.91393  1.0000
  H   H2441     1.0  0.99462  0.33699  0.78478  1.0000
  C   C1442     1.0  0.96244  0.36404  0.97945  1.0000
  H   H2442     1.0  0.91121  0.25835  0.87324  1.0000
  H   H2443     1.0  0.92630  0.29340  0.81463  1.0000
  H   H2444     1.0  0.92863  0.39764  0.94402  1.0000
  H   H2445     1.0  0.87310  0.37576  0.65177  1.0000
  C   C1443     1.0  0.97520  0.39073  0.64260  1.0000
  H   H2446     1.0  0.98957  0.31497  0.60940  1.0000
  H   H2447     1.0  0.97472  0.38504  0.93661  1.0000
  C   C1444     1.0  0.95629  0.42464  0.81358  1.0000
  H   H2448     1.0  0.83774  0.38144  0.65429  1.0000
  H   H2449     1.0  0.96640  0.28049  0.80172  1.0000
  H   H2450     1.0  0.81905  0.38308  0.60780  1.0000
  H   H2451     1.0  0.81536  0.31507  0.59155  1.0000
  H   H2452     1.0  0.87512  0.39891  0.66018  1.0000
  C   C1445     1.0  0.98337  0.46359  0.69911  1.0000
  C   C1446     1.0  0.98668  0.43630  0.76751  1.0000
  H   H2453     1.0  0.97932  0.48018  0.72441  1.0000
  C   C1447     1.0  0.97485  0.40313  0.74139  1.0000
  C   C1448     1.0  0.99603  0.35768  0.60171  1.0000
  H   H2454     1.0  0.91798  0.27885  0.89354  1.0000
  H   H2455     1.0  0.94217  0.42073  0.82591  1.0000
  H   H2456     1.0  0.98295  0.39232  0.75323  1.0000
  C   C1449     1.0  0.96053  0.42016  0.78600  1.0000
  H   H2457     1.0  0.94045  0.31082  0.73876  1.0000
  C   C1450     1.0  0.99619  0.40702  0.78392  1.0000
  H   H2458     1.0  0.90416  0.43683  0.62021  1.0000
  H   H2459     1.0  0.89462  0.28923  0.83227  1.0000
  C   C1451     1.0  0.96167  0.33913  0.82352  1.0000
  H   H2460     1.0  0.92296  0.29150  0.86107  1.0000
  H   H2461     1.0  0.84692  0.48098  0.85506  1.0000
  H   H2462     1.0  0.90001  0.48624  0.74522  1.0000
  S   S426      1.0  0.99390  0.41264  0.54842  1.0000
  H   H2463     1.0  0.97737  0.34587  0.68720  1.0000
  Fe  Fe214     1.0  0.91620  0.46606  0.65961  1.0000
  C   C1452     1.0  0.95497  0.27927  0.82067  1.0000
  N   N99       1.0  0.85883  0.39049  0.61895  1.0000
  H   H2464     1.0  0.98822  0.35483  0.58795  1.0000
  C   C1453     1.0  0.87529  0.37760  0.62961  1.0000
  Fe  Fe215     1.0  0.95551  0.44531  0.67348  1.0000
  H   H2465     1.0  0.93469  0.31082  0.68416  1.0000
  H   H2466     1.0  0.87469  0.40982  0.61285  1.0000
  H   H2467     1.0  0.99646  0.44602  0.60649  1.0000
  H   H2468     1.0  0.87828  0.39477  0.57986  1.0000
  H   H2469     1.0  0.89027  0.38117  0.62120  1.0000
  S   S427      1.0  0.92565  0.25924  0.74138  1.0000
  H   H2470     1.0  0.85720  0.27179  0.65063  1.0000
  C   C1454     1.0  0.79743  0.25863  0.63067  1.0000
  H   H2471     1.0  0.91909  0.35493  0.98210  1.0000
  H   H2472     1.0  0.86414  0.35543  0.63570  1.0000
  H   H2473     1.0  0.94936  0.43694  0.53037  1.0000
  C   C1455     1.0  0.96384  0.45477  0.53582  1.0000
  C   C1456     1.0  0.84832  0.40696  0.57457  1.0000
  C   C1457     1.0  0.96976  0.35732  0.90649  1.0000
  H   H2474     1.0  0.92487  0.25572  0.80164  1.0000
  C   C1458     1.0  0.93391  0.28094  0.81399  1.0000
  H   H2475     1.0  0.85650  0.28489  0.61806  1.0000
  C   C1459     1.0  0.87730  0.36098  0.62439  1.0000
  C   C1460     1.0  0.86058  0.40581  0.62498  1.0000
  S   S428      1.0  0.97946  0.30487  0.75097  1.0000
  H   H2476     1.0  0.97029  0.32229  0.58926  1.0000
  H   H2477     1.0  0.97071  0.34939  0.65527  1.0000
  N   N100      1.0  0.99041  0.37701  0.63326  1.0000
  H   H2478     1.0  0.95092  0.36128  0.97092  1.0000
  C   C1461     1.0  0.85521  0.27280  0.62989  1.0000
  H   H2479     1.0  0.92907  0.47726  0.54122  1.0000
  N   N101      1.0  0.81572  0.27894  0.63832  1.0000
  C   C1462     1.0  0.79904  0.26935  0.64869  1.0000
  C   C1463     1.0  0.81723  0.28572  0.66109  1.0000
  Fe  Fe216     1.0  0.85268  0.26988  0.72357  1.0000
  C   C1464     1.0  0.81018  0.29170  0.61461  1.0000
  C   C1465     1.0  0.90298  0.35767  0.98292  1.0000
  C   C1466     1.0  0.79802  0.29669  0.67253  1.0000
  H   H2480     1.0  0.96176  0.40287  0.94652  1.0000
  H   H2481     1.0  0.95377  0.43773  0.81127  1.0000
  C   C1467     1.0  0.83077  0.23980  0.69840  1.0000
  H   H2482     1.0  0.78393  0.27722  0.65210  1.0000
  H   H2483     1.0  0.82953  0.29261  0.65538  1.0000
  H   H2484     1.0  0.82144  0.27591  0.67810  1.0000
  C   C1468     1.0  0.95791  0.26991  0.65731  1.0000
  H   H2485     1.0  0.89180  0.26602  0.79983  1.0000
  S   S429      1.0  0.92827  0.39064  0.49001  1.0000
  H   H2486     1.0  0.79437  0.29830  0.61920  1.0000
  H   H2487     1.0  0.87865  0.48059  0.68643  1.0000
  S   S430      1.0  0.93940  0.44788  0.64019  1.0000
  H   H2488     1.0  0.94052  0.37831  0.93703  1.0000
  H   H2489     1.0  0.78557  0.29011  0.68284  1.0000
  H   H2490     1.0  0.80150  0.30154  0.68802  1.0000
  H   H2491     1.0  0.79291  0.30698  0.65694  1.0000
  H   H2492     1.0  0.86165  0.38224  0.58228  1.0000
  C   C1469     1.0  0.98751  0.45625  0.59441  1.0000
  H   H2493     1.0  0.93759  0.28448  0.68301  1.0000
  H   H2494     1.0  0.99780  0.46471  0.58408  1.0000
  C   C1470     1.0  0.83813  0.38683  0.63258  1.0000
  H   H2495     1.0  0.99636  0.41867  0.72841  1.0000
  H   H2496     1.0  0.91488  0.24620  0.83490  1.0000
  H   H2497     1.0  0.98655  0.31739  0.65326  1.0000
  C   C1471     1.0  0.96192  0.26581  0.74418  1.0000
  H   H2498     1.0  0.82095  0.36832  0.63753  1.0000
  H   H2499     1.0  0.99589  0.36735  0.67373  1.0000
  C   C1472     1.0  0.99601  0.45699  0.67802  1.0000
  Fe  Fe217     1.0  0.93364  0.36628  0.51621  1.0000
  C   C1473     1.0  0.98149  0.41839  0.74212  1.0000
  C   C1474     1.0  0.86254  0.39287  0.58880  1.0000
  H   H2500     1.0  0.96126  0.41552  0.63083  1.0000
  S   S431      1.0  0.93403  0.46510  0.69013  1.0000
  S   S432      1.0  0.89711  0.44855  0.68622  1.0000
  Fe  Fe218     1.0  0.92190  0.43025  0.66914  1.0000
  C   C1475     1.0  0.97427  0.27596  0.74560  1.0000
  H   H2501     1.0  0.95893  0.25022  0.80970  1.0000
  C   C1476     1.0  0.96046  0.38495  0.53657  1.0000
  C   C1477     1.0  0.96055  0.39025  0.94909  1.0000
  H   H2502     1.0  0.97888  0.39334  0.66027  1.0000
  C   C1478     1.0  0.97427  0.38216  0.86149  1.0000
  H   H2503     1.0  0.94914  0.42842  0.77460  1.0000
  S   S433      1.0  0.96601  0.35678  0.52153  1.0000
  H   H2504     1.0  0.89074  0.35310  0.63176  1.0000
  H   H2505     1.0  0.96953  0.45942  0.70922  1.0000
  S   S434      1.0  0.98918  0.44234  0.66695  1.0000
  H   H2506     1.0  0.97115  0.42870  0.73216  1.0000
  H   H2507     1.0  0.80065  0.26153  0.66864  1.0000
  H   H2508     1.0  0.93961  0.45929  0.58499  1.0000
  C   C1479     1.0  0.98648  0.36477  0.90032  1.0000
  H   H2509     1.0  0.97835  0.44801  0.52636  1.0000
  C   C1480     1.0  0.94669  0.29832  0.73972  1.0000
  H   H2510     1.0  0.93262  0.28848  0.65012  1.0000
  H   H2511     1.0  0.97617  0.34990  0.84356  1.0000
  H   H2512     1.0  0.97501  0.29284  0.61762  1.0000
  H   H2513     1.0  0.96716  0.37050  0.61934  1.0000
  C   C1481     1.0  0.93465  0.28825  0.73780  1.0000
  H   H2514     1.0  0.78724  0.24851  0.74276  1.0000
  H   H2515     1.0  0.86821  0.26451  0.62081  1.0000
  H   H2516     1.0  0.83632  0.26578  0.60973  1.0000
  N   N102      1.0  0.92049  0.26965  0.83168  1.0000
  C   C1482     1.0  0.89879  0.27685  0.82895  1.0000
  H   H2517     1.0  0.96730  0.40531  0.60410  1.0000
  H   H2518     1.0  0.98551  0.36445  0.79911  1.0000
  H   H2519     1.0  0.97916  0.30729  0.82885  1.0000
  H   H2520     1.0  0.97935  0.48307  0.55578  1.0000
  C   C1483     1.0  0.82986  0.37592  0.62084  1.0000
  H   H2521     1.0  0.66914  0.24585  0.63498  1.0000
  H   H2522     1.0  0.84756  0.48200  0.77820  1.0000
  C   C1484     1.0  0.92341  0.32093  0.64726  1.0000
  C   C1485     1.0  0.97846  0.33797  0.83908  1.0000
  H   H2523     1.0  0.97624  0.39162  0.84397  1.0000
  H   H2524     1.0  0.96457  0.26992  0.63590  1.0000
  H   H2525     1.0  0.93627  0.28013  0.79272  1.0000
  H   H2526     1.0  0.89818  0.28658  0.87491  1.0000
  H   H2527     1.0  0.96573  0.33205  0.80792  1.0000
  H   H2528     1.0  0.95067  0.24138  0.84509  1.0000
  H   H2529     1.0  0.96818  0.34757  0.92371  1.0000
  H   H2530     1.0  0.94844  0.33494  0.83797  1.0000
  H   H2531     1.0  0.84999  0.40590  0.55352  1.0000
  C   C1486     1.0  0.81753  0.24633  0.71918  1.0000
  C   C1487     1.0  0.93259  0.48151  0.55727  1.0000
  C   C1488     1.0  0.99499  0.30691  0.81769  1.0000
  H   H2532     1.0  0.98693  0.41132  0.61418  1.0000
  C   C1489     1.0  0.98836  0.37747  0.87828  1.0000
  H   H2533     1.0  0.96929  0.28809  0.68840  1.0000
  H   H2534     1.0  0.99623  0.30347  0.68032  1.0000
  H   H2535     1.0  0.91398  0.31213  0.64909  1.0000
  H   H2536     1.0  0.93235  0.41203  0.97433  1.0000
  H   H2537     1.0  0.82665  0.39807  0.63185  1.0000
  H   H2538     1.0  0.82969  0.30779  0.61674  1.0000
  H   H2539     1.0  0.95343  0.43353  0.56375  1.0000
  H   H2540     1.0  0.97513  0.32976  0.85891  1.0000
  H   H2541     1.0  0.97499  0.44599  0.75889  1.0000
  H   H2542     1.0  0.95106  0.30350  0.61274  1.0000
  C   C1490     1.0  0.97279  0.40647  0.62146  1.0000
  H   H2543     1.0  0.92865  0.32596  0.62570  1.0000
  N   N103      1.0  0.96736  0.46252  0.55623  1.0000
  H   H2544     1.0  0.90460  0.28261  0.78459  1.0000
  C   C1491     1.0  0.96672  0.39722  0.54253  1.0000
  H   H2545     1.0  0.95658  0.40818  0.79015  1.0000
  H   H2546     1.0  0.96957  0.48462  0.52698  1.0000
  N   N104      1.0  0.95912  0.38162  0.97810  1.0000
  C   C1492     1.0  0.98903  0.47521  0.70791  1.0000
  H   H2547     1.0  0.98947  0.27111  0.74920  1.0000
  H   H2548     1.0  0.95594  0.35174  0.81457  1.0000
  H   H2549     1.0  0.96109  0.42007  0.48787  1.0000
  H   H2550     1.0  0.93633  0.26106  0.86533  1.0000
  C   C1493     1.0  0.97406  0.35531  0.66939  1.0000
  H   H2551     1.0  0.69754  0.24096  0.53886  1.0000
  H   H2552     1.0  0.97099  0.44088  0.58688  1.0000
  H   H2553     1.0  0.96855  0.41887  0.82494  1.0000
  C   C1494     1.0  0.94763  0.46904  0.57289  1.0000
  C   C1495     1.0  0.79756  0.24357  0.72662  1.0000
  H   H2554     1.0  0.88951  0.47558  0.77730  1.0000
  C   C1496     1.0  0.98305  0.37239  0.61220  1.0000
  C   C1497     1.0  0.99264  0.36336  0.65710  1.0000
  H   H2555     1.0  0.98249  0.38223  0.59424  1.0000
  H   H2556     1.0  0.97512  0.46189  0.60866  1.0000
  N   N105      1.0  0.98176  0.42028  0.76971  1.0000
  H   H2557     1.0  0.95830  0.40390  0.74873  1.0000
  H   H2558     1.0  0.98745  0.39855  0.48764  1.0000
  H   H2559     1.0  0.67687  0.24686  0.66472  1.0000
  H   H2560     1.0  0.96059  0.26792  0.83364  1.0000
  C   C1498     1.0  0.99712  0.37818  0.97854  1.0000
  C   C1499     1.0  0.98226  0.30879  0.67202  1.0000
  H   H2561     1.0  0.91811  0.48423  0.57150  1.0000
  H   H2562     1.0  0.98640  0.43824  0.78767  1.0000
  H   H2563     1.0  0.82257  0.48467  0.81930  1.0000
  H   H2564     1.0  0.78431  0.25263  0.64036  1.0000
  H   H2565     1.0  0.86468  0.47747  0.81426  1.0000
  C   C1500     1.0  0.88558  0.48482  0.75967  1.0000
  H   H2566     1.0  0.97165  0.31507  0.68717  1.0000
  H   H2567     1.0  0.87650  0.48051  0.74937  1.0000
  H   H2568     1.0  0.81089  0.24899  0.62852  1.0000
  C   C1501     1.0  0.94730  0.24424  0.82468  1.0000
  H   H2569     1.0  0.99831  0.34693  0.61785  1.0000
  S   S435      1.0  0.78791  0.52681  0.18815  1.0000
  Fe  Fe219     1.0  0.86900  0.56546  0.21155  1.0000
  S   S436      1.0  0.84789  0.58900  0.21141  1.0000
  S   S437      1.0  0.85860  0.54194  0.22843  1.0000
  Fe  Fe220     1.0  0.90633  0.58063  0.19134  1.0000
  S   S438      1.0  0.88826  0.60527  0.18948  1.0000
  S   S439      1.0  0.94013  0.57783  0.17875  1.0000
  Fe  Fe221     1.0  0.87050  0.59517  0.22926  1.0000
  S   S440      1.0  0.86024  0.60633  0.26552  1.0000
  Fe  Fe222     1.0  0.86762  0.59695  0.17180  1.0000
  S   S441      1.0  0.85522  0.61375  0.13721  1.0000
  S   S442      1.0  0.89018  0.57096  0.23265  1.0000
  S   S443      1.0  0.88709  0.57287  0.17025  1.0000
  H   H2570     1.0  0.77890  0.57405  0.34150  1.0000
  H   H2571     1.0  0.84136  0.57727  0.30420  1.0000
  N   N106      1.0  0.81792  0.57120  0.28988  1.0000
  Fe  Fe223     1.0  0.92220  0.66423  0.02803  1.0000
  S   S444      1.0  0.89303  0.68157  0.02514  1.0000
  S   S445      1.0  0.92876  0.64121  0.05752  1.0000
  H   H2572     1.0  0.92205  0.72320  0.29959  1.0000
  Fe  Fe224     1.0  0.91072  0.70012  0.02330  1.0000
  S   S446      1.0  0.89727  0.71813  0.04969  1.0000
  H   H2573     1.0  0.98010  0.62720  0.25123  1.0000
  S   S447      1.0  0.93896  0.68242  0.02963  1.0000
  Fe  Fe225     1.0  0.88303  0.67790  0.35422  1.0000
  S   S448      1.0  0.90257  0.69580  0.34846  1.0000
  Fe  Fe226     1.0  0.89339  0.67633  0.29485  1.0000
  S   S449      1.0  0.91360  0.69411  0.28480  1.0000
  S   S450      1.0  0.89454  0.66770  0.25766  1.0000
  Fe  Fe227     1.0  0.92482  0.68082  0.32213  1.0000
  S   S451      1.0  0.95773  0.67234  0.32272  1.0000
  Fe  Fe228     1.0  0.88920  0.70737  0.31177  1.0000
  Fe  Fe229     1.0  0.78588  0.50079  0.19740  1.0000
  S   S452      1.0  0.90657  0.66191  0.33045  1.0000
  S   S453      1.0  0.86778  0.69064  0.31920  1.0000
  H   H2574     1.0  0.95141  0.65248  0.43780  1.0000
  H   H2575     1.0  0.92352  0.62626  0.33127  1.0000
  N   N107      1.0  0.95282  0.62751  0.28244  1.0000
  C   C1502     1.0  0.98821  0.70614  0.34424  1.0000
  C   C1503     1.0  0.87217  0.67132  0.46857  1.0000
  H   H2576     1.0  0.95321  0.71702  0.39892  1.0000
  H   H2577     1.0  0.96876  0.66301  0.44160  1.0000
  C   C1504     1.0  0.92288  0.66301  0.40736  1.0000
  H   H2578     1.0  0.98342  0.64597  0.40837  1.0000
  H   H2579     1.0  0.82850  0.52211  0.15576  1.0000
  C   C1505     1.0  0.96898  0.68548  0.33130  1.0000
  C   C1506     1.0  0.95868  0.70088  0.33343  1.0000
  C   C1507     1.0  0.96829  0.71121  0.34001  1.0000
  H   H2580     1.0  0.91949  0.68823  0.40145  1.0000
  H   H2581     1.0  0.91082  0.61265  0.32517  1.0000
  H   H2582     1.0  0.94341  0.70487  0.32989  1.0000
  C   C1508     1.0  0.97295  0.68149  0.07340  1.0000
  H   H2583     1.0  0.84653  0.49684  0.20147  1.0000
  H   H2584     1.0  0.94096  0.71303  0.04220  1.0000
  N   N108      1.0  0.94443  0.67794  0.42242  1.0000
  H   H2585     1.0  0.92286  0.71706  0.21944  1.0000
  N   N109      1.0  0.99503  0.67827  0.07496  1.0000
  C   C1509     1.0  0.98225  0.63521  0.29615  1.0000
  H   H2586     1.0  0.98629  0.64149  0.27510  1.0000
  C   C1510     1.0  0.87543  0.62082  0.11354  1.0000
  C   C1511     1.0  0.89532  0.61334  0.11565  1.0000
  C   C1512     1.0  0.91155  0.61954  0.09793  1.0000
  C   C1513     1.0  0.90800  0.63323  0.07798  1.0000
  C   C1514     1.0  0.88812  0.64063  0.07555  1.0000
  C   C1515     1.0  0.87181  0.63439  0.09332  1.0000
  H   H2587     1.0  0.89827  0.60282  0.13107  1.0000
  H   H2588     1.0  0.92691  0.61380  0.09991  1.0000
  H   H2589     1.0  0.88529  0.65115  0.06012  1.0000
  H   H2590     1.0  0.85643  0.64020  0.09166  1.0000
  C   C1516     1.0  0.87061  0.62292  0.26400  1.0000
  C   C1517     1.0  0.86428  0.63095  0.28522  1.0000
  C   C1518     1.0  0.87186  0.64455  0.28387  1.0000
  C   C1519     1.0  0.88568  0.65018  0.26117  1.0000
  C   C1520     1.0  0.89234  0.64195  0.24029  1.0000
  C   C1521     1.0  0.88493  0.62832  0.24177  1.0000
  H   H2591     1.0  0.85329  0.62679  0.30257  1.0000
  H   H2592     1.0  0.86670  0.65085  0.30010  1.0000
  H   H2593     1.0  0.90337  0.64606  0.22300  1.0000
  H   H2594     1.0  0.89033  0.62205  0.22568  1.0000
  H   H2595     1.0  0.96986  0.69134  0.05591  1.0000
  C   C1522     1.0  0.80620  0.53176  0.20109  1.0000
  C   C1523     1.0  0.81438  0.52136  0.22240  1.0000
  C   C1524     1.0  0.83012  0.52484  0.23099  1.0000
  C   C1525     1.0  0.83782  0.53873  0.21833  1.0000
  C   C1526     1.0  0.82923  0.54944  0.19758  1.0000
  C   C1527     1.0  0.81341  0.54596  0.18903  1.0000
  H   H2596     1.0  0.83655  0.51660  0.24726  1.0000
  H   H2597     1.0  0.83502  0.56024  0.18778  1.0000
  H   H2598     1.0  0.80706  0.55411  0.17261  1.0000
  H   H2599     1.0  0.77827  0.55670  0.33094  1.0000
  C   C1528     1.0  0.98086  0.60321  0.27397  1.0000
  H   H2600     1.0  0.81830  0.59349  0.26067  1.0000
  C   C1529     1.0  0.87904  0.72774  0.16461  1.0000
  H   H2601     1.0  0.96845  0.67124  0.06960  1.0000
  C   C1530     1.0  0.97609  0.70552  0.24628  1.0000
  C   C1531     1.0  0.87028  0.67466  0.42169  1.0000
  H   H2602     1.0  0.97568  0.53352  0.20997  1.0000
  C   C1532     1.0  0.85270  0.55370  0.29797  1.0000
  C   C1533     1.0  0.86486  0.51188  0.16895  1.0000
  H   H2603     1.0  0.96809  0.72973  0.01134  1.0000
  H   H2604     1.0  0.84782  0.57602  0.26999  1.0000
  H   H2605     1.0  0.94521  0.60494  0.30590  1.0000
  C   C1534     1.0  0.87715  0.69599  0.43717  1.0000
  H   H2606     1.0  0.94153  0.67935  0.38161  1.0000
  H   H2607     1.0  0.85397  0.54304  0.13895  1.0000
  H   H2608     1.0  0.93504  0.64033  0.25215  1.0000
  C   C1535     1.0  0.96111  0.63050  0.30433  1.0000
  C   C1536     1.0  0.94297  0.70829  0.40756  1.0000
  C   C1537     1.0  0.80767  0.56416  0.31776  1.0000
  C   C1538     1.0  0.93001  0.67999  0.44840  1.0000
  H   H2609     1.0  0.96688  0.69083  0.42415  1.0000
  H   H2610     1.0  0.81300  0.56801  0.33300  1.0000
  H   H2611     1.0  0.84618  0.54703  0.31788  1.0000
  H   H2612     1.0  0.79963  0.61167  0.29077  1.0000
  C   C1539     1.0  0.86903  0.66539  0.44788  1.0000
  H   H2613     1.0  0.90706  0.70501  0.21569  1.0000
  H   H2614     1.0  0.97015  0.71811  0.23727  1.0000
  H   H2615     1.0  0.79387  0.59025  0.27582  1.0000
  H   H2616     1.0  0.79821  0.59568  0.31951  1.0000
  H   H2617     1.0  0.96333  0.72097  0.06466  1.0000
  C   C1540     1.0  0.95594  0.69139  0.41145  1.0000
  C   C1541     1.0  0.98299  0.54406  0.20466  1.0000
  C   C1542     1.0  0.85438  0.53906  0.12047  1.0000
  H   H2618     1.0  0.97349  0.59308  0.14966  1.0000
  H   H2619     1.0  0.98544  0.61585  0.15538  1.0000
  C   C1543     1.0  0.97277  0.71050  0.99127  1.0000
  H   H2620     1.0  0.92363  0.59918  0.21536  1.0000
  C   C1544     1.0  0.96169  0.62023  0.18908  1.0000
  C   C1545     1.0  0.91348  0.72412  0.06473  1.0000
  H   H2621     1.0  0.88995  0.72493  0.24494  1.0000
  S   S454      1.0  0.86790  0.66659  0.39555  1.0000
  C   C1546     1.0  0.94710  0.72425  0.07043  1.0000
  C   C1547     1.0  0.97914  0.72074  0.00237  1.0000
  H   H2622     1.0  0.95336  0.69192  0.24824  1.0000
  H   H2623     1.0  0.95010  0.67111  0.47805  1.0000
  H   H2624     1.0  0.87428  0.69753  0.39671  1.0000
  H   H2625     1.0  0.98573  0.57292  0.21070  1.0000
  H   H2626     1.0  0.96732  0.65238  0.23896  1.0000
  H   H2627     1.0  0.79902  0.55453  0.24925  1.0000
  H   H2628     1.0  0.93519  0.62237  0.22046  1.0000
  C   C1548     1.0  0.94379  0.61584  0.20530  1.0000
  H   H2629     1.0  0.86602  0.65349  0.45204  1.0000
  C   C1549     1.0  0.81747  0.56178  0.26998  1.0000
  H   H2630     1.0  0.82229  0.60086  0.30151  1.0000
  N   N110      1.0  0.89691  0.66012  0.14155  1.0000
  C   C1550     1.0  0.88795  0.64562  0.15647  1.0000
  C   C1551     1.0  0.91826  0.65440  0.12782  1.0000
  C   C1552     1.0  0.88426  0.66960  0.12089  1.0000
  C   C1553     1.0  0.89630  0.66961  0.16181  1.0000
  C   C1554     1.0  0.86528  0.64876  0.16969  1.0000
  C   C1555     1.0  0.93261  0.64353  0.14610  1.0000
  C   C1556     1.0  0.89507  0.67931  0.09474  1.0000
  C   C1557     1.0  0.90669  0.68411  0.15150  1.0000
  H   H2631     1.0  0.88983  0.63746  0.14279  1.0000
  H   H2632     1.0  0.89597  0.63868  0.17298  1.0000
  H   H2633     1.0  0.92581  0.66445  0.11621  1.0000
  H   H2634     1.0  0.91803  0.64771  0.11275  1.0000
  H   H2635     1.0  0.87748  0.66161  0.11384  1.0000
  H   H2636     1.0  0.87116  0.67792  0.12983  1.0000
  H   H2637     1.0  0.88041  0.67419  0.17088  1.0000
  H   H2638     1.0  0.90319  0.66190  0.17888  1.0000
  H   H2639     1.0  0.86259  0.65463  0.18679  1.0000
  H   H2640     1.0  0.85549  0.65569  0.15522  1.0000
  H   H2641     1.0  0.86023  0.63718  0.17801  1.0000
  H   H2642     1.0  0.93364  0.64897  0.16232  1.0000
  H   H2643     1.0  0.92833  0.63169  0.15463  1.0000
  H   H2644     1.0  0.94810  0.64129  0.13386  1.0000
  H   H2645     1.0  0.90403  0.68713  0.09798  1.0000
  H   H2646     1.0  0.88354  0.68706  0.08324  1.0000
  H   H2647     1.0  0.90506  0.67134  0.08171  1.0000
  H   H2648     1.0  0.92302  0.68076  0.14333  1.0000
  H   H2649     1.0  0.90558  0.68960  0.16866  1.0000
  H   H2650     1.0  0.89911  0.69335  0.13656  1.0000
  H   H2651     1.0  0.80856  0.51064  0.23236  1.0000
  H   H2652     1.0  0.96156  0.70263  0.21549  1.0000
  H   H2653     1.0  0.85532  0.54660  0.28254  1.0000
  H   H2654     1.0  0.88017  0.70790  0.43294  1.0000
  C   C1558     1.0  0.83990  0.57040  0.29008  1.0000
  C   C1559     1.0  0.78423  0.56794  0.32439  1.0000
  H   H2655     1.0  0.93198  0.61371  0.27899  1.0000
  C   C1560     1.0  0.93447  0.71977  0.05765  1.0000
  C   C1561     1.0  0.93711  0.60281  0.20223  1.0000
  H   H2656     1.0  0.93450  0.65222  0.40484  1.0000
  H   H2657     1.0  0.84991  0.71225  0.26308  1.0000
  C   C1562     1.0  0.94805  0.59435  0.18252  1.0000
  C   C1563     1.0  0.95784  0.68551  0.09869  1.0000
  H   H2658     1.0  0.82449  0.54908  0.27622  1.0000
  C   C1564     1.0  0.80909  0.58850  0.28026  1.0000
  H   H2659     1.0  0.77688  0.57537  0.30774  1.0000
  C   C1565     1.0  0.79662  0.56140  0.26505  1.0000
  H   H2660     1.0  0.96544  0.69032  0.39146  1.0000
  H   H2661     1.0  0.78742  0.55499  0.28303  1.0000
  C   C1566     1.0  0.86632  0.52193  0.12077  1.0000
  H   H2662     1.0  0.83870  0.54040  0.11757  1.0000
  H   H2663     1.0  0.81230  0.55097  0.32204  1.0000
  H   H2664     1.0  0.78812  0.57330  0.25728  1.0000
  C   C1567     1.0  0.96552  0.59911  0.16570  1.0000
  H   H2665     1.0  0.82663  0.56625  0.25008  1.0000
  C   C1568     1.0  0.90971  0.71737  0.21066  1.0000
  C   C1569     1.0  0.90522  0.73333  0.08427  1.0000
  S   S455      1.0  0.97036  0.63617  0.19380  1.0000
  H   H2666     1.0  0.91330  0.66490  0.39230  1.0000
  C   C1570     1.0  0.82788  0.50901  0.12650  1.0000
  C   C1571     1.0  0.86529  0.71463  0.22038  1.0000
  H   H2667     1.0  0.90843  0.63223  0.30531  1.0000
  H   H2668     1.0  0.94669  0.69246  0.46484  1.0000
  C   C1572     1.0  0.97457  0.65812  0.40256  1.0000
  C   C1573     1.0  0.86232  0.70571  0.25000  1.0000
  C   C1574     1.0  0.93936  0.68194  0.47084  1.0000
  C   C1575     1.0  0.93783  0.61652  0.29487  1.0000
  H   H2669     1.0  0.85560  0.52301  0.17472  1.0000
  H   H2670     1.0  0.94392  0.66601  0.24251  1.0000
  H   H2671     1.0  0.87637  0.70632  0.20889  1.0000
  H   H2672     1.0  0.85076  0.71618  0.21368  1.0000
  H   H2673     1.0  0.86718  0.72093  0.16611  1.0000
  H   H2674     1.0  0.95686  0.71170  0.99156  1.0000
  H   H2675     1.0  0.97551  0.55275  0.18904  1.0000
  C   C1576     1.0  0.95377  0.65605  0.25379  1.0000
  H   H2676     1.0  0.95781  0.66088  0.26880  1.0000
  H   H2677     1.0  0.98565  0.66620  0.39463  1.0000
  H   H2678     1.0  0.95036  0.63991  0.31394  1.0000
  H   H2679     1.0  0.82781  0.49631  0.12784  1.0000
  H   H2680     1.0  0.85808  0.69415  0.25156  1.0000
  C   C1577     1.0  0.92048  0.73341  0.28321  1.0000
  H   H2681     1.0  0.96027  0.69589  0.10461  1.0000
  H   H2682     1.0  0.81210  0.51584  0.12778  1.0000
  H   H2683     1.0  0.89352  0.71941  0.16625  1.0000
  H   H2684     1.0  0.95827  0.67516  0.11589  1.0000
  H   H2685     1.0  0.96250  0.61959  0.32057  1.0000
  H   H2686     1.0  0.93393  0.71120  0.42678  1.0000
  H   H2687     1.0  0.92223  0.66968  0.45713  1.0000
  C   C1578     1.0  0.93887  0.73298  0.09054  1.0000
  H   H2688     1.0  0.93290  0.71012  0.39316  1.0000
  C   C1579     1.0  0.94167  0.64274  0.26765  1.0000
  C   C1580     1.0  0.93229  0.67788  0.40228  1.0000
  H   H2689     1.0  0.98280  0.64332  0.30875  1.0000
  H   H2690     1.0  0.86793  0.55508  0.29920  1.0000
  H   H2691     1.0  0.92876  0.64828  0.28150  1.0000
  C   C1581     1.0  0.96893  0.61963  0.26245  1.0000
  H   H2692     1.0  0.96918  0.70379  0.26809  1.0000
  H   H2693     1.0  0.86190  0.54733  0.10331  1.0000
  H   H2694     1.0  0.95249  0.73252  0.27003  1.0000
  C   C1582     1.0  0.80732  0.59956  0.29940  1.0000
  H   H2695     1.0  0.87646  0.70296  0.25786  1.0000
  C   C1583     1.0  0.95937  0.66259  0.42754  1.0000
  C   C1584     1.0  0.87637  0.68662  0.46322  1.0000
  H   H2696     1.0  0.97193  0.59377  0.27748  1.0000
  H   H2697     1.0  0.83608  0.51392  0.10636  1.0000
  H   H2698     1.0  0.91765  0.69043  0.44488  1.0000
  C   C1585     1.0  0.87407  0.69006  0.41652  1.0000
  H   H2699     1.0  0.88078  0.51365  0.16461  1.0000
  C   C1586     1.0  0.97234  0.61199  0.16900  1.0000
  H   H2700     1.0  0.86629  0.51896  0.10150  1.0000
  H   H2701     1.0  0.96036  0.72312  0.34162  1.0000
  H   H2702     1.0  0.97697  0.68429  0.22955  1.0000
  C   C1587     1.0  0.91924  0.62248  0.31525  1.0000
  C   C1588     1.0  0.86237  0.49858  0.19444  1.0000
  H   H2703     1.0  0.88241  0.52237  0.11964  1.0000
  H   H2704     1.0  0.99194  0.69800  0.09412  1.0000
  N   N111      1.0  0.85922  0.50943  0.14456  1.0000
  H   H2705     1.0  0.94230  0.68857  0.09441  1.0000
  C   C1589     1.0  0.83662  0.51082  0.14963  1.0000
  C   C1590     1.0  0.96701  0.69541  0.23394  1.0000
  H   H2706     1.0  0.96205  0.61787  0.24672  1.0000
  N   N112      1.0  0.87163  0.73048  0.21462  1.0000
  H   H2707     1.0  0.99430  0.62473  0.30088  1.0000
  H   H2708     1.0  0.96717  0.65797  0.38623  1.0000
  H   H2709     1.0  0.83157  0.50157  0.16714  1.0000
  C   C1591     1.0  0.98874  0.68042  0.33580  1.0000
  H   H2710     1.0  0.91425  0.72154  0.18875  1.0000
  H   H2711     1.0  0.91297  0.66081  0.42740  1.0000
  H   H2712     1.0  0.98294  0.71985  0.28318  1.0000
  H   H2713     1.0  0.97971  0.65050  0.09830  1.0000
  H   H2714     1.0  0.98587  0.67249  0.27021  1.0000
  H   H2715     1.0  0.97980  0.54865  0.22324  1.0000
  C   C1592     1.0  0.89227  0.48929  0.13476  1.0000
  H   H2716     1.0  0.99495  0.70340  0.05862  1.0000
  H   H2717     1.0  0.98556  0.60285  0.29279  1.0000
  H   H2718     1.0  0.98746  0.71794  0.19284  1.0000
  H   H2719     1.0  0.99504  0.56941  0.16556  1.0000
  H   H2720     1.0  0.86654  0.50212  0.21086  1.0000
  H   H2721     1.0  0.99063  0.64500  0.12697  1.0000
  S   S456      1.0  0.87975  0.73363  0.29711  1.0000
  C   C1593     1.0  0.89154  0.72887  0.22280  1.0000
  H   H2722     1.0  0.99253  0.67150  0.11837  1.0000
  H   H2723     1.0  0.98752  0.66835  0.02847  1.0000
  C   C1594     1.0  0.99374  0.65007  0.10503  1.0000
  Fe  Fe230     1.0  0.94650  0.68581  0.98493  1.0000
  H   H2724     1.0  0.99623  0.65117  0.05323  1.0000
  H   H2725     1.0  0.99479  0.60021  0.25903  1.0000
  H   H2726     1.0  0.85693  0.73695  0.25292  1.0000
  C   C1595     1.0  0.86897  0.49320  0.13902  1.0000
  C   C1596     1.0  0.91789  0.73779  0.09712  1.0000
  H   H2727     1.0  0.88897  0.73694  0.08955  1.0000
  S   S457      1.0  0.95525  0.73702  0.10776  1.0000
  C   C1597     1.0  0.93772  0.73860  0.26632  1.0000
  H   H2728     1.0  0.89925  0.49706  0.11636  1.0000
  H   H2729     1.0  0.88094  0.73538  0.14409  1.0000
  C   C1598     1.0  0.87248  0.73850  0.18528  1.0000
  H   H2730     1.0  0.89793  0.49011  0.15221  1.0000
  H   H2731     1.0  0.86502  0.49170  0.12066  1.0000
  H   H2732     1.0  0.99682  0.66854  0.33407  1.0000
  C   C1599     1.0  0.99839  0.69076  0.34196  1.0000
  H   H2733     1.0  0.99816  0.72821  0.23178  1.0000
  S   S458      1.0  0.75985  0.48983  0.22379  1.0000
  C   C1600     1.0  0.99874  0.72098  0.27370  1.0000
  N   N113      1.0  0.99887  0.70273  0.24227  1.0000
  C   C1601     1.0  0.85738  0.59779  0.61174  1.0000
  C   C1602     1.0  0.80373  0.58930  0.58730  1.0000
  H   H2734     1.0  0.88165  0.63776  0.70473  1.0000
  H   H2735     1.0  0.82622  0.63368  0.75547  1.0000
  H   H2736     1.0  0.86682  0.60620  0.59816  1.0000
  H   H2737     1.0  0.85730  0.61523  0.88346  1.0000
  C   C1603     1.0  0.90262  0.62277  0.85750  1.0000
  H   H2738     1.0  0.86811  0.62619  0.69488  1.0000
  H   H2739     1.0  0.94902  0.55482  0.61576  1.0000
  H   H2740     1.0  0.71273  0.64224  0.75563  1.0000
  Fe  Fe231     1.0  0.85527  0.65484  0.81005  1.0000
  S   S459      1.0  0.88889  0.64794  0.79981  1.0000
  S   S460      1.0  0.83610  0.63718  0.83513  1.0000
  Fe  Fe232     1.0  0.88935  0.66941  0.81448  1.0000
  H   H2741     1.0  0.92256  0.67789  0.92283  1.0000
  Fe  Fe233     1.0  0.88568  0.66473  0.76044  1.0000
  H   H2742     1.0  0.82540  0.63133  0.56122  1.0000
  S   S461      1.0  0.85575  0.67518  0.82767  1.0000
  S   S462      1.0  0.85169  0.66992  0.76943  1.0000
  Fe  Fe234     1.0  0.85072  0.66392  0.57828  1.0000
  S   S463      1.0  0.85373  0.68939  0.56292  1.0000
  S   S464      1.0  0.82093  0.65621  0.59640  1.0000
  Fe  Fe235     1.0  0.89597  0.65197  0.57011  1.0000
  S   S465      1.0  0.90286  0.67661  0.55436  1.0000
  S   S466      1.0  0.92094  0.63044  0.57269  1.0000
  Fe  Fe236     1.0  0.87759  0.68332  0.58780  1.0000
  S   S467      1.0  0.87532  0.69888  0.61664  1.0000
  Fe  Fe237     1.0  0.87837  0.68028  0.53091  1.0000
  H   H2743     1.0  0.86497  0.59831  0.94067  1.0000
  S   S468      1.0  0.87289  0.65840  0.60540  1.0000
  S   S469      1.0  0.87332  0.65513  0.54435  1.0000
  Fe  Fe238     1.0  0.84519  0.55306  0.71590  1.0000
  S   S470      1.0  0.87070  0.55533  0.73267  1.0000
  S   S471      1.0  0.84100  0.52845  0.71769  1.0000
  Fe  Fe239     1.0  0.83082  0.58876  0.70158  1.0000
  S   S472      1.0  0.85573  0.59410  0.71635  1.0000
  S   S473      1.0  0.80773  0.60763  0.68177  1.0000
  Fe  Fe240     1.0  0.87557  0.57478  0.69621  1.0000
  S   S474      1.0  0.90742  0.57364  0.67275  1.0000
  Fe  Fe241     1.0  0.84851  0.57425  0.75131  1.0000
  S   S475      1.0  0.84481  0.57398  0.79514  1.0000
  S   S476      1.0  0.85143  0.57125  0.67809  1.0000
  S   S477      1.0  0.82222  0.57016  0.73793  1.0000
  H   H2744     1.0  0.73693  0.66432  0.83809  1.0000
  H   H2745     1.0  0.78695  0.63036  0.83742  1.0000
  H   H2746     1.0  0.69126  0.67867  0.74592  1.0000
  H   H2747     1.0  0.80454  0.64842  0.79835  1.0000
  S   S478      1.0  0.76396  0.69656  0.71152  1.0000
  S   S479      1.0  0.90342  0.65703  0.72280  1.0000
  S   S480      1.0  0.75991  0.71417  0.63698  1.0000
  C   C1604     1.0  0.79118  0.62009  0.70211  1.0000
  C   C1605     1.0  0.79064  0.61698  0.72972  1.0000
  C   C1606     1.0  0.77809  0.62771  0.74513  1.0000
  C   C1607     1.0  0.76646  0.64172  0.73285  1.0000
  C   C1608     1.0  0.78956  0.65622  0.79614  1.0000
  C   C1609     1.0  0.84811  0.51783  0.79179  1.0000
  H   H2748     1.0  0.80003  0.60641  0.73914  1.0000
  H   H2749     1.0  0.77775  0.62528  0.76646  1.0000
  C   C1610     1.0  0.79181  0.66621  0.76716  1.0000
  H   H2750     1.0  0.77954  0.64793  0.79734  1.0000
  C   C1611     1.0  0.86722  0.61169  0.89863  1.0000
  H   H2751     1.0  0.92542  0.54920  0.63269  1.0000
  H   H2752     1.0  0.86476  0.64839  0.91178  1.0000
  C   C1612     1.0  0.94183  0.54448  0.62709  1.0000
  H   H2753     1.0  0.80845  0.60360  0.62764  1.0000
  H   H2754     1.0  0.93809  0.49288  0.54872  1.0000
  C   C1613     1.0  0.84030  0.64406  0.89842  1.0000
  H   H2755     1.0  0.97067  0.51095  0.63046  1.0000
  H   H2756     1.0  0.89746  0.61681  0.84491  1.0000
  C   C1614     1.0  0.87503  0.50096  0.76709  1.0000
  C   C1615     1.0  0.91672  0.61490  0.60078  1.0000
  C   C1616     1.0  0.93284  0.60249  0.60663  1.0000
  C   C1617     1.0  0.92988  0.58996  0.62890  1.0000
  C   C1618     1.0  0.91074  0.58970  0.64536  1.0000
  C   C1619     1.0  0.89454  0.60204  0.63953  1.0000
  C   C1620     1.0  0.89754  0.61461  0.61714  1.0000
  H   H2757     1.0  0.94770  0.60267  0.59403  1.0000
  H   H2758     1.0  0.94247  0.58052  0.63344  1.0000
  H   H2759     1.0  0.87975  0.60182  0.65221  1.0000
  H   H2760     1.0  0.88504  0.62397  0.61217  1.0000
  C   C1621     1.0  0.80315  0.67223  0.60682  1.0000
  C   C1622     1.0  0.79030  0.66978  0.63193  1.0000
  C   C1623     1.0  0.77616  0.69796  0.62523  1.0000
  C   C1624     1.0  0.78853  0.70037  0.59976  1.0000
  C   C1625     1.0  0.80214  0.68752  0.59065  1.0000
  H   H2761     1.0  0.81307  0.66801  0.81462  1.0000
  H   H2762     1.0  0.81155  0.68942  0.57086  1.0000
  C   C1626     1.0  0.90353  0.67231  0.87254  1.0000
  C   C1627     1.0  0.91150  0.67699  0.91220  1.0000
  C   C1628     1.0  0.69185  0.66274  0.78432  1.0000
  C   C1629     1.0  0.87668  0.67890  0.90957  1.0000
  C   C1630     1.0  0.88296  0.67501  0.88419  1.0000
  H   H2763     1.0  0.83783  0.72196  0.65982  1.0000
  H   H2764     1.0  0.87783  0.68808  0.71202  1.0000
  H   H2765     1.0  0.87185  0.67434  0.87356  1.0000
  C   C1631     1.0  0.89687  0.66943  0.69306  1.0000
  C   C1632     1.0  0.87763  0.69334  0.66961  1.0000
  C   C1633     1.0  0.88454  0.68791  0.64560  1.0000
  C   C1634     1.0  0.89807  0.67344  0.64522  1.0000
  C   C1635     1.0  0.90443  0.66433  0.66885  1.0000
  H   H2766     1.0  0.90369  0.66927  0.62669  1.0000
  H   H2767     1.0  0.91484  0.65310  0.66848  1.0000
  C   C1636     1.0  0.83889  0.61995  0.82294  1.0000
  C   C1637     1.0  0.85015  0.61839  0.79741  1.0000
  C   C1638     1.0  0.85163  0.60452  0.78815  1.0000
  C   C1639     1.0  0.84234  0.59205  0.80479  1.0000
  C   C1640     1.0  0.83140  0.59362  0.83042  1.0000
  C   C1641     1.0  0.82946  0.60758  0.83931  1.0000
  H   H2768     1.0  0.85777  0.62782  0.78487  1.0000
  H   H2769     1.0  0.86044  0.60326  0.76852  1.0000
  H   H2770     1.0  0.82431  0.58401  0.84340  1.0000
  H   H2771     1.0  0.82081  0.60868  0.85908  1.0000
  H   H2772     1.0  0.82032  0.69843  0.75368  1.0000
  H   H2773     1.0  0.78573  0.70368  0.74400  1.0000
  C   C1642     1.0  0.88764  0.50150  0.65911  1.0000
  S   S481      1.0  0.83818  0.71477  0.78091  1.0000
  C   C1643     1.0  0.86189  0.50179  0.69971  1.0000
  C   C1644     1.0  0.85895  0.51837  0.69477  1.0000
  C   C1645     1.0  0.87038  0.52656  0.67189  1.0000
  C   C1646     1.0  0.88442  0.51814  0.65379  1.0000
  H   H2774     1.0  0.66739  0.67478  0.76362  1.0000
  H   H2775     1.0  0.70854  0.66165  0.77992  1.0000
  H   H2776     1.0  0.86815  0.53936  0.66783  1.0000
  H   H2777     1.0  0.89288  0.52453  0.63581  1.0000
  H   H2778     1.0  0.79493  0.65813  0.75308  1.0000
  C   C1647     1.0  0.67973  0.66490  0.71526  1.0000
  H   H2779     1.0  0.86653  0.60842  0.55210  1.0000
  H   H2780     1.0  0.74838  0.65894  0.80615  1.0000
  H   H2781     1.0  0.78571  0.63022  0.62389  1.0000
  Fe  Fe242     1.0  0.74176  0.68025  0.72985  1.0000
  H   H2782     1.0  0.87297  0.63695  0.85923  1.0000
  C   C1648     1.0  0.84267  0.59402  0.59762  1.0000
  H   H2783     1.0  0.85843  0.66023  0.69709  1.0000
  H   H2784     1.0  0.88595  0.63667  0.67050  1.0000
  H   H2785     1.0  0.90663  0.70778  0.79201  1.0000
  H   H2786     1.0  0.83527  0.58463  0.61247  1.0000
  N   N114      1.0  0.78217  0.66548  0.81818  1.0000
  H   H2787     1.0  0.88694  0.50544  0.77219  1.0000
  H   H2788     1.0  0.88878  0.64461  0.87167  1.0000
  H   H2789     1.0  0.78264  0.61976  0.60090  1.0000
  H   H2790     1.0  0.97015  0.51558  0.72158  1.0000
  C   C1649     1.0  0.85544  0.60322  0.92522  1.0000
  H   H2791     1.0  0.86073  0.68122  0.91834  1.0000
  S   S482      1.0  0.72411  0.72505  0.70021  1.0000
  H   H2792     1.0  0.82905  0.65244  0.90964  1.0000
  C   C1650     1.0  0.91108  0.51776  0.70819  1.0000
  H   H2793     1.0  0.90095  0.60858  0.91426  1.0000
  H   H2794     1.0  0.77039  0.66032  0.86118  1.0000
  H   H2795     1.0  0.79643  0.63591  0.58926  1.0000
  C   C1651     1.0  0.85876  0.63778  0.91220  1.0000
  C   C1652     1.0  0.88443  0.63326  0.87227  1.0000
  H   H2796     1.0  0.89699  0.72357  0.89902  1.0000
  H   H2797     1.0  0.91151  0.61355  0.87093  1.0000
  C   C1653     1.0  0.77703  0.68265  0.64136  1.0000
  H   H2798     1.0  0.86752  0.70463  0.66987  1.0000
  H   H2799     1.0  0.73284  0.67765  0.80666  1.0000
  C   C1654     1.0  0.78970  0.71151  0.75361  1.0000
  H   H2800     1.0  0.90521  0.72615  0.80113  1.0000
  C   C1655     1.0  0.88996  0.71833  0.86449  1.0000
  C   C1656     1.0  0.80924  0.70847  0.75930  1.0000
  S   S483      1.0  0.75142  0.65522  0.75232  1.0000
  C   C1657     1.0  0.83686  0.62147  0.56980  1.0000
  Fe  Fe243     1.0  0.85561  0.68969  0.78588  1.0000
  S   S484      1.0  0.88942  0.68566  0.77382  1.0000
  H   H2801     1.0  0.76744  0.68070  0.66100  1.0000
  C   C1658     1.0  0.81298  0.61371  0.61139  1.0000
  C   C1659     1.0  0.74421  0.66871  0.81700  1.0000
  C   C1660     1.0  0.77541  0.72464  0.76066  1.0000
  C   C1661     1.0  0.79342  0.62553  0.60562  1.0000
  H   H2802     1.0  0.83374  0.51912  0.80651  1.0000
  C   C1662     1.0  0.89081  0.61986  0.91817  1.0000
  N   N115      1.0  0.94239  0.52276  0.67072  1.0000
  H   H2803     1.0  0.93311  0.50133  0.66984  1.0000
  C   C1663     1.0  0.95147  0.53641  0.65194  1.0000
  C   C1664     1.0  0.95635  0.51385  0.68984  1.0000
  C   C1665     1.0  0.93973  0.51131  0.65570  1.0000
  H   H2804     1.0  0.86842  0.51939  0.81729  1.0000
  C   C1666     1.0  0.92189  0.52956  0.68542  1.0000
  C   C1667     1.0  0.95960  0.52339  0.70861  1.0000
  C   C1668     1.0  0.78819  0.73658  0.68504  1.0000
  H   H2805     1.0  0.85061  0.59305  0.92150  1.0000
  N   N116      1.0  0.68551  0.65657  0.74202  1.0000
  H   H2806     1.0  0.96801  0.53275  0.64478  1.0000
  H   H2807     1.0  0.95025  0.54602  0.66266  1.0000
  H   H2808     1.0  0.88309  0.69912  0.83609  1.0000
  H   H2809     1.0  0.68206  0.63385  0.76929  1.0000
  H   H2810     1.0  0.99454  0.69917  0.87380  1.0000
  H   H2811     1.0  0.92835  0.51681  0.64268  1.0000
  H   H2812     1.0  0.87118  0.50929  0.74840  1.0000
  H   H2813     1.0  0.85820  0.70522  0.87618  1.0000
  H   H2814     1.0  0.68939  0.67389  0.70451  1.0000
  H   H2815     1.0  0.91439  0.62646  0.93147  1.0000
  S   S485      1.0  0.75066  0.72894  0.75454  1.0000
  H   H2816     1.0  0.95545  0.50049  0.62164  1.0000
  H   H2817     1.0  0.68242  0.65643  0.70193  1.0000
  C   C1669     1.0  0.78081  0.73475  0.77301  1.0000
  H   H2818     1.0  0.96678  0.53368  0.69719  1.0000
  C   C1670     1.0  0.82415  0.72415  0.67558  1.0000
  H   H2819     1.0  0.71436  0.64322  0.69661  1.0000
  H   H2820     1.0  0.66989  0.63822  0.74169  1.0000
  H   H2821     1.0  0.92279  0.53948  0.69417  1.0000
  H   H2822     1.0  0.85302  0.63312  0.93385  1.0000
  C   C1671     1.0  0.78096  0.65435  0.84552  1.0000
  H   H2823     1.0  0.76325  0.68632  0.79772  1.0000
  H   H2824     1.0  0.77272  0.63212  0.86999  1.0000
  H   H2825     1.0  0.90417  0.72253  0.85316  1.0000
  H   H2826     1.0  0.78769  0.71217  0.58709  1.0000
  H   H2827     1.0  0.83118  0.71176  0.62921  1.0000
  H   H2828     1.0  0.75776  0.65540  0.69576  1.0000
  H   H2829     1.0  0.79835  0.68436  0.79613  1.0000
  C   C1672     1.0  0.89089  0.68011  0.92350  1.0000
  H   H2830     1.0  0.77774  0.67472  0.76342  1.0000
  N   N117      1.0  0.83630  0.65060  0.68677  1.0000
  C   C1673     1.0  0.82213  0.66634  0.68854  1.0000
  C   C1674     1.0  0.82954  0.63893  0.71206  1.0000
  C   C1675     1.0  0.83316  0.64561  0.66302  1.0000
  C   C1676     1.0  0.82675  0.68068  0.66563  1.0000
  C   C1677     1.0  0.83565  0.64013  0.73765  1.0000
  C   C1678     1.0  0.84698  0.63048  0.65545  1.0000
  H   H2831     1.0  0.80623  0.66532  0.68949  1.0000
  H   H2832     1.0  0.82187  0.66997  0.70731  1.0000
  H   H2833     1.0  0.83490  0.62647  0.70992  1.0000
  H   H2834     1.0  0.81279  0.64031  0.71631  1.0000
  H   H2835     1.0  0.81732  0.64390  0.66620  1.0000
  H   H2836     1.0  0.83539  0.65493  0.64455  1.0000
  H   H2837     1.0  0.81509  0.69116  0.66972  1.0000
  H   H2838     1.0  0.84164  0.68353  0.66465  1.0000
  H   H2839     1.0  0.83363  0.65247  0.73992  1.0000
  H   H2840     1.0  0.85159  0.63428  0.73824  1.0000
  C   C1679     1.0  0.76210  0.67647  0.81585  1.0000
  H   H2841     1.0  0.86294  0.63177  0.64926  1.0000
  C   C1680     1.0  0.88353  0.68400  0.69343  1.0000
  H   H2842     1.0  0.84150  0.61112  0.93314  1.0000
  C   C1681     1.0  0.91779  0.67309  0.88678  1.0000
  H   H2843     1.0  0.94442  0.53639  0.61319  1.0000
  N   N118      1.0  0.87532  0.62563  0.90031  1.0000
  H   H2844     1.0  0.83261  0.63449  0.89834  1.0000
  H   H2845     1.0  0.79091  0.65798  0.64424  1.0000
  S   S486      1.0  0.91181  0.66847  0.83995  1.0000
  H   H2846     1.0  0.80471  0.67250  0.76185  1.0000
  H   H2847     1.0  0.77884  0.63590  0.66900  1.0000
  H   H2848     1.0  0.82574  0.67934  0.64567  1.0000
  C   C1682     1.0  0.79764  0.67550  0.81531  1.0000
  H   H2849     1.0  0.93374  0.67095  0.87794  1.0000
  C   C1683     1.0  0.85775  0.65268  0.68353  1.0000
  H   H2850     1.0  0.84928  0.60248  0.62984  1.0000
  H   H2851     1.0  0.85188  0.58827  0.58096  1.0000
  H   H2852     1.0  0.86295  0.65938  0.66291  1.0000
  H   H2853     1.0  0.84442  0.65087  0.87767  1.0000
  H   H2854     1.0  0.79458  0.58742  0.57418  1.0000
  H   H2855     1.0  0.86796  0.58667  0.61847  1.0000
  C   C1684     1.0  0.87396  0.63738  0.68878  1.0000
  C   C1685     1.0  0.85512  0.71760  0.86438  1.0000
  C   C1686     1.0  0.81435  0.71843  0.77233  1.0000
  H   H2856     1.0  0.71720  0.65812  0.72779  1.0000
  Fe  Fe244     1.0  0.70519  0.70633  0.71884  1.0000
  H   H2857     1.0  0.87979  0.60247  0.89115  1.0000
  C   C1687     1.0  0.98699  0.69896  0.97950  1.0000
  C   C1688     1.0  0.90431  0.63172  0.91667  1.0000
  H   H2858     1.0  0.79310  0.59226  0.60556  1.0000
  S   S487      1.0  0.97901  0.68624  0.96553  1.0000
  H   H2859     1.0  0.82621  0.59785  0.55465  1.0000
  C   C1689     1.0  0.77886  0.63374  0.69016  1.0000
  H   H2860     1.0  0.84528  0.61971  0.67135  1.0000
  H   H2861     1.0  0.84285  0.62863  0.63760  1.0000
  H   H2862     1.0  0.81925  0.73292  0.71299  1.0000
  C   C1690     1.0  0.87647  0.49337  0.68226  1.0000
  H   H2863     1.0  0.75700  0.68292  0.83253  1.0000
  C   C1691     1.0  0.86222  0.52630  0.79934  1.0000
  C   C1692     1.0  0.85348  0.61737  0.54576  1.0000
  C   C1693     1.0  0.81567  0.60258  0.57162  1.0000
  N   N119      1.0  0.82705  0.60793  0.58760  1.0000
  H   H2864     1.0  0.95112  0.50285  0.70244  1.0000
  C   C1694     1.0  0.95924  0.50327  0.63903  1.0000
  H   H2865     1.0  0.84198  0.71108  0.83541  1.0000
  H   H2866     1.0  0.76041  0.63964  0.84190  1.0000
  H   H2867     1.0  0.78059  0.69467  0.83637  1.0000
  H   H2868     1.0  0.81257  0.50525  0.80435  1.0000
  H   H2869     1.0  0.82080  0.61981  0.62068  1.0000
  Fe  Fe245     1.0  0.74133  0.71369  0.73351  1.0000
  H   H2870     1.0  0.84754  0.61347  0.53131  1.0000
  H   H2871     1.0  0.81403  0.57782  0.59289  1.0000
  H   H2872     1.0  0.89634  0.52439  0.71712  1.0000
  H   H2873     1.0  0.89454  0.70527  0.87135  1.0000
  C   C1695     1.0  0.77478  0.63830  0.84851  1.0000
  H   H2874     1.0  0.99668  0.68600  0.90541  1.0000
  S   S488      1.0  0.91953  0.70526  0.97815  1.0000
  H   H2875     1.0  0.80505  0.61281  0.56208  1.0000
  H   H2876     1.0  0.84361  0.62688  0.58158  1.0000
  Fe  Fe246     1.0  0.74524  0.70651  0.67976  1.0000
  S   S489      1.0  0.72024  0.69673  0.75452  1.0000
  H   H2877     1.0  0.79337  0.67747  0.85763  1.0000
  H   H2878     1.0  0.91340  0.63035  0.84434  1.0000
  C   C1696     1.0  0.82089  0.49352  0.80036  1.0000
  H   H2879     1.0  0.70360  0.62823  0.72352  1.0000
  S   S490      1.0  0.67181  0.70938  0.71926  1.0000
  H   H2880     1.0  0.91428  0.63426  0.89667  1.0000
  H   H2881     1.0  0.88331  0.61675  0.93963  1.0000
  C   C1697     1.0  0.68337  0.66885  0.75818  1.0000
  S   S491      1.0  0.72522  0.68843  0.69556  1.0000
  C   C1698     1.0  0.88354  0.72540  0.88987  1.0000
  H   H2882     1.0  0.79584  0.65112  0.85189  1.0000
  C   C1699     1.0  0.76686  0.64473  0.70533  1.0000
  C   C1700     1.0  0.79421  0.68510  0.83718  1.0000
  H   H2883     1.0  0.80727  0.69114  0.83332  1.0000
  H   H2884     1.0  0.85291  0.49539  0.71708  1.0000
  H   H2885     1.0  0.84394  0.52511  0.77251  1.0000
  H   H2886     1.0  0.91969  0.51238  0.72453  1.0000
  H   H2887     1.0  0.79639  0.71610  0.65451  1.0000
  H   H2888     1.0  0.90753  0.50835  0.70076  1.0000
  H   H2889     1.0  0.82011  0.71232  0.68565  1.0000
  H   H2890     1.0  0.87808  0.49173  0.81596  1.0000
  N   N120      1.0  0.85659  0.50077  0.78947  1.0000
  H   H2891     1.0  0.97170  0.50954  0.67861  1.0000
  C   C1701     1.0  0.84884  0.49275  0.84184  1.0000
  H   H2892     1.0  0.82507  0.71408  0.86567  1.0000
  H   H2893     1.0  0.92702  0.68384  0.48837  1.0000
  S   S492      1.0  0.88214  0.68634  0.95417  1.0000
  H   H2894     1.0  0.81463  0.71917  0.60607  1.0000
  Fe  Fe247     1.0  0.90428  0.68509  0.98040  1.0000
  H   H2895     1.0  0.79046  0.73486  0.63314  1.0000
  H   H2896     1.0  0.94537  0.52749  0.72206  1.0000
  C   C1702     1.0  0.84141  0.49436  0.78105  1.0000
  H   H2897     1.0  0.72927  0.63024  0.71946  1.0000
  H   H2898     1.0  0.84286  0.72022  0.70510  1.0000
  H   H2899     1.0  0.96628  0.49205  0.65140  1.0000
  H   H2900     1.0  0.91130  0.53507  0.67127  1.0000
  H   H2901     1.0  0.89534  0.64304  0.92185  1.0000
  H   H2902     1.0  0.85945  0.62828  0.53452  1.0000
  H   H2903     1.0  0.87479  0.52916  0.78238  1.0000
  C   C1703     1.0  0.71371  0.63700  0.71795  1.0000
  H   H2904     1.0  0.83348  0.49967  0.84055  1.0000
  S   S493      1.0  0.88187  0.69417  0.48797  1.0000
  C   C1704     1.0  0.70763  0.64891  0.73663  1.0000
  C   C1705     1.0  0.83769  0.71863  0.85038  1.0000
  C   C1706     1.0  0.88244  0.71189  0.82618  1.0000
  H   H2905     1.0  0.68557  0.67150  0.79738  1.0000
  N   N121      1.0  0.80690  0.73501  0.66333  1.0000
  H   H2906     1.0  0.78504  0.72461  0.69603  1.0000
  H   H2907     1.0  0.85348  0.53786  0.80393  1.0000
  C   C1707     1.0  0.82043  0.72242  0.62140  1.0000
  H   H2908     1.0  0.87245  0.71909  0.90541  1.0000
  H   H2909     1.0  0.83813  0.50155  0.76130  1.0000
  H   H2910     1.0  0.68801  0.65111  0.79573  1.0000
  H   H2911     1.0  0.84871  0.72523  0.87937  1.0000
  N   N122      1.0  0.87448  0.72211  0.84679  1.0000
  H   H2912     1.0  0.85605  0.49841  0.85264  1.0000
  C   C1708     1.0  0.80021  0.73170  0.77874  1.0000
  H   H2913     1.0  0.87228  0.71403  0.81184  1.0000
  C   C1709     1.0  0.80250  0.72705  0.64376  1.0000
  H   H2914     1.0  0.67523  0.73272  0.74721  1.0000
  C   C1710     1.0  0.86285  0.49022  0.81480  1.0000
  H   H2915     1.0  0.91562  0.70730  0.82113  1.0000
  C   C1711     1.0  0.83146  0.72994  0.69610  1.0000
  S   S494      1.0  0.90586  0.49084  0.63722  1.0000
  C   C1712     1.0  0.67325  0.64379  0.75642  1.0000
  H   H2916     1.0  0.87743  0.73834  0.88533  1.0000
  H   H2917     1.0  0.87154  0.66400  0.48852  1.0000
  C   C1713     1.0  0.90368  0.71357  0.80928  1.0000
  H   H2918     1.0  0.68088  0.73826  0.67020  1.0000
  H   H2919     1.0  0.82865  0.73226  0.61090  1.0000
  H   H2920     1.0  0.85399  0.73741  0.80480  1.0000
  H   H2921     1.0  0.83148  0.73108  0.84144  1.0000
  S   S495      1.0  0.93209  0.66607  0.98363  1.0000
  H   H2922     1.0  0.81116  0.48930  0.79081  1.0000
  H   H2923     1.0  0.80812  0.85893  0.26663  1.0000
  Fe  Fe248     1.0  0.94441  0.75733  0.12948  1.0000
  S   S496      1.0  0.92857  0.78186  0.11297  1.0000
  H   H2924     1.0  0.66646  0.82961  0.26118  1.0000
  Fe  Fe249     1.0  0.94634  0.76613  0.18093  1.0000
  S   S497      1.0  0.93045  0.79136  0.16911  1.0000
  S   S498      1.0  0.95719  0.75549  0.21984  1.0000
  Fe  Fe250     1.0  0.90971  0.78089  0.15461  1.0000
  S   S499      1.0  0.87538  0.78531  0.16612  1.0000
  Fe  Fe251     1.0  0.95072  0.79019  0.12879  1.0000
  S   S500      1.0  0.96628  0.81005  0.10254  1.0000
  S   S501      1.0  0.92417  0.75555  0.16989  1.0000
  S   S502      1.0  0.96809  0.76576  0.14185  1.0000
  Fe  Fe252     1.0  0.78506  0.85746  0.15386  1.0000
  S   S503      1.0  0.77167  0.88000  0.16901  1.0000
  S   S504      1.0  0.81890  0.85291  0.13785  1.0000
  H   H2925     1.0  0.73277  0.94505  0.16811  1.0000
  H   H2926     1.0  0.70625  0.93150  0.24023  1.0000
  S   S505      1.0  0.76186  0.86164  0.12840  1.0000
  S   S506      1.0  0.76817  0.84211  0.18879  1.0000
  S   S507      1.0  0.75198  0.86561  0.24492  1.0000
  C   C1714     1.0  0.85994  0.80406  0.15694  1.0000
  C   C1715     1.0  0.83878  0.80552  0.16403  1.0000
  C   C1716     1.0  0.82599  0.82035  0.15772  1.0000
  C   C1717     1.0  0.83430  0.83386  0.14439  1.0000
  C   C1718     1.0  0.85544  0.83236  0.13713  1.0000
  C   C1719     1.0  0.86823  0.81753  0.14340  1.0000
  H   H2927     1.0  0.83227  0.79514  0.17440  1.0000
  H   H2928     1.0  0.80974  0.82134  0.16324  1.0000
  H   H2929     1.0  0.86197  0.84275  0.12681  1.0000
  H   H2930     1.0  0.88449  0.81654  0.13784  1.0000
  H   H2931     1.0  0.98976  0.79676  0.04666  1.0000
  C   C1720     1.0  0.68898  0.84607  0.21907  1.0000
  H   H2932     1.0  0.88435  0.76143  0.25534  1.0000
  H   H2933     1.0  0.70291  0.86017  0.14430  1.0000
  C   C1721     1.0  0.78896  0.82112  0.25153  1.0000
  C   C1722     1.0  0.98560  0.83293  0.10394  1.0000
  H   H2934     1.0  0.94407  0.75810  0.04146  1.0000
  H   H2935     1.0  0.79573  0.85141  0.22378  1.0000
  C   C1723     1.0  0.91647  0.75954  0.24031  1.0000
  H   H2936     1.0  0.97423  0.84097  0.09350  1.0000
  H   H2937     1.0  0.82646  0.82414  0.27228  1.0000
  Fe  Fe253     1.0  0.74701  0.88285  0.14654  1.0000
  Fe  Fe254     1.0  0.74367  0.84836  0.16471  1.0000
  Fe  Fe255     1.0  0.75308  0.86484  0.20225  1.0000
  C   C1724     1.0  0.72912  0.86501  0.26845  1.0000
  H   H2938     1.0  0.68082  0.95085  0.13360  1.0000
  H   H2939     1.0  0.98305  0.80460  0.23190  1.0000
  C   C1725     1.0  0.80532  0.84659  0.27142  1.0000
  H   H2940     1.0  0.99844  0.77072  0.09021  1.0000
  H   H2941     1.0  0.74764  0.92020  0.15113  1.0000
  C   C1726     1.0  0.72912  0.88666  0.02257  1.0000
  N   N123      1.0  0.71934  0.97693  0.05948  1.0000
  H   H2942     1.0  0.81886  0.80791  0.24746  1.0000
  C   C1727     1.0  0.69261  0.86648  0.28044  1.0000
  H   H2943     1.0  0.97781  0.80508  0.18936  1.0000
  C   C1728     1.0  0.73906  0.97228  0.04106  1.0000
  H   H2944     1.0  0.84782  0.76446  0.24048  1.0000
  H   H2945     1.0  0.72219  0.89598  0.22727  1.0000
  H   H2946     1.0  0.70053  0.91494  0.04546  1.0000
  C   C1729     1.0  0.68747  0.82750  0.12097  1.0000
  N   N124      1.0  0.82186  0.83257  0.23129  1.0000
  H   H2947     1.0  0.72656  0.90213  0.19199  1.0000
  H   H2948     1.0  0.70723  0.82155  0.22521  1.0000
  H   H2949     1.0  0.68645  0.95321  0.25474  1.0000
  C   C1730     1.0  0.71062  0.86652  0.26089  1.0000
  H   H2950     1.0  0.66580  0.85779  0.18119  1.0000
  C   C1731     1.0  0.99213  0.77818  0.00818  1.0000
  H   H2951     1.0  0.68184  0.92332  0.28856  1.0000
  C   C1732     1.0  0.72959  0.86333  0.29547  1.0000
  H   H2952     1.0  0.74382  0.86216  0.30144  1.0000
  H   H2953     1.0  0.67828  0.85943  0.39767  1.0000
  H   H2954     1.0  0.75113  0.97760  0.04391  1.0000
  H   H2955     1.0  0.99049  0.76109  0.24466  1.0000
  H   H2956     1.0  0.96290  0.76118  0.01177  1.0000
  C   C1733     1.0  0.71916  0.90635  0.21076  1.0000
  H   H2957     1.0  0.81160  0.87200  0.19575  1.0000
  C   C1734     1.0  0.70128  0.90827  0.06614  1.0000
  C   C1735     1.0  0.70557  0.94966  0.15227  1.0000
  C   C1736     1.0  0.70332  0.93010  0.12886  1.0000
  H   H2958     1.0  0.84859  0.76477  0.20618  1.0000
  H   H2959     1.0  0.71956  0.94876  0.04009  1.0000
  H   H2960     1.0  0.76071  0.85482  0.07448  1.0000
  H   H2961     1.0  0.79044  0.84682  0.26715  1.0000
  H   H2962     1.0  0.89626  0.74055  0.21780  1.0000
  H   H2963     1.0  0.71713  0.88788  0.08934  1.0000
  C   C1737     1.0  0.73286  0.92678  0.14777  1.0000
  S   S508      1.0  0.69550  0.96752  0.16357  1.0000
  C   C1738     1.0  0.95939  0.80088  0.03887  1.0000
  C   C1739     1.0  0.72223  0.92140  0.13354  1.0000
  H   H2964     1.0  0.71105  0.81134  0.13973  1.0000
  C   C1740     1.0  0.69805  0.87865  0.05435  1.0000
  H   H2965     1.0  0.69137  0.87488  0.07590  1.0000
  H   H2966     1.0  0.68332  0.81832  0.11447  1.0000
  C   C1741     1.0  0.70903  0.83531  0.14333  1.0000
  H   H2967     1.0  0.73277  0.85667  0.05241  1.0000
  H   H2968     1.0  0.69536  0.92037  0.19097  1.0000
  C   C1742     1.0  0.70324  0.82356  0.13516  1.0000
  H   H2969     1.0  0.97288  0.78661  0.07134  1.0000
  C   C1743     1.0  0.73785  0.97610  0.09722  1.0000
  H   H2970     1.0  0.70396  0.91654  0.07692  1.0000
  H   H2971     1.0  0.69353  0.94871  0.05367  1.0000
  H   H2972     1.0  0.94515  0.79686  0.05037  1.0000
  H   H2973     1.0  0.72119  0.91225  0.00546  1.0000
  H   H2974     1.0  0.85552  0.81064  0.24910  1.0000
  S   S509      1.0  0.67124  0.86514  0.33272  1.0000
  H   H2975     1.0  0.69807  0.97581  0.03581  1.0000
  H   H2976     1.0  0.85041  0.80176  0.22445  1.0000
  H   H2977     1.0  0.85726  0.74528  0.18182  1.0000
  C   C1744     1.0  0.70403  0.83253  0.23308  1.0000
  C   C1745     1.0  0.69631  0.91221  0.21079  1.0000
  H   H2978     1.0  0.67168  0.95812  0.22972  1.0000
  H   H2979     1.0  0.96219  0.76492  0.06842  1.0000
  H   H2980     1.0  0.69006  0.90177  0.21069  1.0000
  C   C1746     1.0  0.73875  0.97723  0.01085  1.0000
  H   H2981     1.0  0.70747  0.97243  0.10224  1.0000
  H   H2982     1.0  0.75377  0.97247  0.99953  1.0000
  H   H2983     1.0  0.72736  0.97238  0.00547  1.0000
  H   H2984     1.0  0.85220  0.83712  0.21305  1.0000
  H   H2985     1.0  0.78831  0.82082  0.27293  1.0000
  H   H2986     1.0  0.70342  0.86861  0.01829  1.0000
  H   H2987     1.0  0.87155  0.81122  0.21662  1.0000
  C   C1747     1.0  0.67701  0.84317  0.11535  1.0000
  C   C1748     1.0  0.84297  0.82797  0.21563  1.0000
  C   C1749     1.0  0.68632  0.90839  0.25931  1.0000
  H   H2988     1.0  0.87172  0.76131  0.21820  1.0000
  H   H2989     1.0  0.94719  0.77793  0.02536  1.0000
  H   H2990     1.0  0.68640  0.90504  0.07648  1.0000
  C   C1750     1.0  0.81095  0.81901  0.23586  1.0000
  H   H2991     1.0  0.91480  0.76947  0.22348  1.0000
  N   N125      1.0  0.68413  0.92025  0.23332  1.0000
  H   H2992     1.0  0.71872  0.83648  0.22910  1.0000
  H   H2993     1.0  0.69673  0.84969  0.19785  1.0000
  H   H2994     1.0  0.81089  0.81638  0.21627  1.0000
  H   H2995     1.0  0.76291  0.86855  0.04298  1.0000
  H   H2996     1.0  0.74377  0.89006  0.02147  1.0000
  H   H2997     1.0  0.68181  0.83998  0.41864  1.0000
  H   H2998     1.0  0.73367  0.87654  0.01214  1.0000
  S   S510      1.0  0.72705  0.86976  0.18126  1.0000
  C   C1751     1.0  0.85558  0.81195  0.22755  1.0000
  S   S511      1.0  0.73279  0.90462  0.11952  1.0000
  H   H2999     1.0  0.78234  0.81097  0.25123  1.0000
  C   C1752     1.0  0.95548  0.76559  0.03040  1.0000
  H   H3000     1.0  0.71233  0.86187  0.33574  1.0000
  H   H3001     1.0  0.73290  0.89819  0.06173  1.0000
  H   H3002     1.0  0.72427  0.86149  0.08456  1.0000
  H   H3003     1.0  0.69498  0.92600  0.11795  1.0000
  H   H3004     1.0  0.80394  0.84257  0.29352  1.0000
  C   C1753     1.0  0.71751  0.90088  0.00477  1.0000
  H   H3005     1.0  0.83538  0.85937  0.18787  1.0000
  H   H3006     1.0  0.82698  0.86419  0.22082  1.0000
  C   C1754     1.0  0.98969  0.77311  0.24808  1.0000
  H   H3007     1.0  0.71036  0.94490  0.07600  1.0000
  C   C1755     1.0  0.75366  0.86656  0.06355  1.0000
  H   H3008     1.0  0.75469  0.87560  0.07402  1.0000
  C   C1756     1.0  0.73160  0.86608  0.06343  1.0000
  C   C1757     1.0  0.72448  0.94086  0.15723  1.0000
  Fe  Fe256     1.0  0.66665  0.98193  0.15032  1.0000
  H   H3009     1.0  0.70241  0.90457  0.26142  1.0000
  H   H3010     1.0  0.72697  0.95687  0.09182  1.0000
  H   H3011     1.0  0.67482  0.81671  0.22475  1.0000
  C   C1758     1.0  0.69869  0.85107  0.13768  1.0000
  C   C1759     1.0  0.89923  0.75494  0.25818  1.0000
  N   N126      1.0  0.71907  0.88158  0.05146  1.0000
  H   H3012     1.0  0.77912  0.83202  0.24262  1.0000
  C   C1760     1.0  0.69511  0.94419  0.13801  1.0000
  C   C1761     1.0  0.85621  0.75880  0.22342  1.0000
  H   H3013     1.0  0.97880  0.75107  0.05043  1.0000
  H   H3014     1.0  0.95874  0.81302  0.04158  1.0000
  H   H3015     1.0  0.72669  0.91592  0.21128  1.0000
  C   C1762     1.0  0.69641  0.86608  0.03989  1.0000
  C   C1763     1.0  0.93575  0.75116  0.24410  1.0000
  H   H3016     1.0  0.71023  0.86797  0.24002  1.0000
  H   H3017     1.0  0.97891  0.78345  0.99838  1.0000
  C   C1764     1.0  0.71851  0.89359  0.06756  1.0000
  H   H3018     1.0  0.75351  0.97177  0.08726  1.0000
  C   C1765     1.0  0.71176  0.86316  0.31490  1.0000
  H   H3019     1.0  0.96523  0.78890  0.20903  1.0000
  C   C1766     1.0  0.97787  0.78972  0.04918  1.0000
  C   C1767     1.0  0.97101  0.76376  0.04807  1.0000
  C   C1768     1.0  0.81136  0.84703  0.21391  1.0000
  C   C1769     1.0  0.67772  0.94808  0.24511  1.0000
  C   C1770     1.0  0.85574  0.74083  0.23134  1.0000
  C   C1771     1.0  0.69320  0.86495  0.30748  1.0000
  H   H3020     1.0  0.80947  0.84392  0.19560  1.0000
  H   H3021     1.0  0.70094  0.90181  0.00953  1.0000
  C   C1772     1.0  0.69226  0.93487  0.23167  1.0000
  S   S512      1.0  0.72807  0.82949  0.16252  1.0000
  C   C1773     1.0  0.70709  0.95213  0.05650  1.0000
  H   H3022     1.0  0.68744  0.88962  0.04735  1.0000
  H   H3023     1.0  0.68716  0.85622  0.22866  1.0000
  H   H3024     1.0  0.98282  0.78132  0.28593  1.0000
  H   H3025     1.0  0.66891  0.87703  0.20593  1.0000
  H   H3026     1.0  0.98876  0.75997  0.28960  1.0000
  C   C1774     1.0  0.82215  0.86138  0.20431  1.0000
  H   H3027     1.0  0.88239  0.74754  0.17900  1.0000
  C   C1775     1.0  0.67536  0.91382  0.28548  1.0000
  H   H3028     1.0  0.83681  0.84128  0.25453  1.0000
  C   C1776     1.0  0.68241  0.85494  0.12411  1.0000
  H   H3029     1.0  0.69895  0.82981  0.25518  1.0000
  C   C1777     1.0  0.82351  0.83559  0.25757  1.0000
  H   H3030     1.0  0.84247  0.82747  0.19496  1.0000
  C   C1778     1.0  0.98504  0.81670  0.11185  1.0000
  C   C1779     1.0  0.97823  0.79212  0.19315  1.0000
  C   C1780     1.0  0.67022  0.84994  0.41068  1.0000
  H   H3031     1.0  0.91143  0.74477  0.11230  1.0000
  H   H3032     1.0  0.67405  0.86698  0.12056  1.0000
  H   H3033     1.0  0.69696  0.94068  0.21028  1.0000
  H   H3034     1.0  0.74454  0.95919  0.04604  1.0000
  H   H3035     1.0  0.96025  0.80229  0.01717  1.0000
  H   H3036     1.0  0.67831  0.86768  0.27468  1.0000
  H   H3037     1.0  0.68646  0.82685  0.19331  1.0000
  H   H3038     1.0  0.68098  0.89750  0.25958  1.0000
  C   C1781     1.0  0.99268  0.77139  0.27696  1.0000
  H   H3039     1.0  0.73699  0.97126  0.11912  1.0000
  H   H3040     1.0  0.67755  0.90359  0.30264  1.0000
  C   C1782     1.0  0.67232  0.82763  0.20879  1.0000
  N   N127      1.0  0.66867  0.84242  0.21989  1.0000
  N   N128      1.0  0.98613  0.77480  0.03841  1.0000
  C   C1783     1.0  0.90122  0.74141  0.27881  1.0000
  H   H3041     1.0  0.97353  0.77873  0.24817  1.0000
  H   H3042     1.0  0.70277  0.85386  0.04983  1.0000
  C   C1784     1.0  0.72214  0.97002  0.08807  1.0000
  H   H3043     1.0  0.68862  0.97276  0.07079  1.0000
  C   C1785     1.0  0.70254  0.97018  0.05548  1.0000
  H   H3044     1.0  0.99082  0.75289  0.08826  1.0000
  H   H3045     1.0  0.68021  0.86617  0.04122  1.0000
  H   H3046     1.0  0.97592  0.78976  0.17450  1.0000
  C   C1786     1.0  0.99878  0.78224  0.19939  1.0000
  H   H3047     1.0  0.84022  0.73971  0.23067  1.0000
  H   H3048     1.0  0.99870  0.76685  0.00121  1.0000
  H   H3049     1.0  0.79008  0.74195  0.70083  1.0000
  H   H3050     1.0  0.86119  0.74662  0.84893  1.0000
  H   H3051     1.0  0.82224  0.77035  0.65639  1.0000
  H   H3052     1.0  0.76988  0.74496  0.77836  1.0000
  H   H3053     1.0  0.80975  0.75912  0.68622  1.0000
  C   C1787     1.0  0.67910  0.75086  0.65903  1.0000
  H   H3054     1.0  0.67564  0.78059  0.62864  1.0000
  H   H3055     1.0  0.66630  0.80964  0.61730  1.0000
  C   C1788     1.0  0.81255  0.75080  0.64816  1.0000
  H   H3056     1.0  0.67531  0.75084  0.63984  1.0000
  H   H3057     1.0  0.88606  0.74385  0.82948  1.0000
  H   H3058     1.0  0.69387  0.75472  0.65469  1.0000
  C   C1789     1.0  0.86317  0.74512  0.80788  1.0000
  H   H3059     1.0  0.85333  0.75705  0.80743  1.0000
  H   H3060     1.0  0.82860  0.74901  0.63731  1.0000
  H   H3061     1.0  0.77083  0.75775  0.66180  1.0000
  H   H3062     1.0  0.80336  0.75634  0.63227  1.0000
  H   H3063     1.0  0.87575  0.74674  0.79029  1.0000
  H   H3064     1.0  0.67080  0.76469  0.68894  1.0000
  H   H3065     1.0  0.67415  0.78891  0.65624  1.0000
  H   H3066     1.0  0.83924  0.74012  0.68623  1.0000
  H   H3067     1.0  0.75682  0.74866  0.69313  1.0000
  C   C1790     1.0  0.76866  0.74620  0.67541  1.0000
  C   C1791     1.0  0.80968  0.76362  0.66461  1.0000
  H   H3068     1.0  0.79563  0.77253  0.66197  1.0000
  H   H3069     1.0  0.80415  0.73954  0.78852  1.0000
  H   H3070     1.0  0.67326  0.98890  0.67098  1.0000
  H   H3071     1.0  0.76263  0.73931  0.66532  1.0000
  C   C1792     1.0  0.87140  0.73968  0.83432  1.0000
  H   H3072     1.0  0.72199  0.89942  0.98365  1.0000
