data_image0
_chemical_formula_structural       H2CHSHNFeS2FeS2FeHFeS3HSCFeHFeS2FeC2HS2HCH4FeHCH3C6H4C4H19C2H2C6H4CH4CH4CHC2H3CNCHC4HCH2CHCHCHCHSHCHC2HNC5HC2H3CH8C2H3NSH3SHCNH3C2H7CH2CH6C4H3CHCH5CSH2SH3C5SHFeCSCH5C2HC3H5CH4CH2SHSFe2SHCSHCFeS2HFeSH4FeS2CH3FeS2FeSHFeSFeS3FeS2FeS2FeSFeS3HCNC6H5C2NH3C6H4CHSHC2H5C7H4C2H3SH2CHC5H2C6H6CHC2HCH2C2HC2HSH10CH6C2HFeH2C2H3NC8H12SH4CH4NCH5CH3CH3SH5C2H4C2HC2HNHNH2CH2FeHCH7CHSH7C3H3SH3SH3CH2C2HC2HCHC2H2CH4C2HC2H2CNCH2C3H3CNFeHCNH3FeH4CHCH4CH4SFeS2FeS2FeS2FeSFeS3FeSCFeS2FeS2CSHFeSFeS3FeS2FeSFeSFeS3C3HC7H5SC6H7CH2CHCHSHCHCH2CHCHC6H4CHC2H3CHC2H3C6H5C2H2CHCHFeCHC2FeCH2CHCH3C3H5SH2CH2NCNC2H7CFeH3NHCH7CFeHSHFeS2CH3CHNC8H20NC8H3CH8CH2NH8C2H3C2H4CH6CH3CHCN2HCHC2H3C2HCHCH3CH5CHCH3C2HCH7CH3CHCH5C2FeCSH3C2H5CH2SCH3CSHCH2CHCHCH4CH4FeH2CSCH3NH6CS2NSHFeS2FeS2FeHFeS3H2CHC6H5CH2C2H3SHCSC4H3C2HC2H2Fe2H5C3HCHCH2C2H2CH5CH3FeH3C2H7CHCHC2H2C2H2C5HC2H4CH2C2HCH2CHC2SC4HCH2CHCH2NCH3NH13C2HCNH2CHCH5CH2CH4CNHC3H3NCH2C2HCH5SH5CHSH3CHSHCH4SCH7CHCSHFeH2CSCH2FeS2HCHCSFeHSFeCSFeH2SHFeS2FeHSH2FeHS2FeS2CSCFe2SHSC6H4C6H3CHCH3CSCH9C5H2CH2SH2CHSH5CFeHFeC3HC6H5C6H8C3SC2H3SFeCHC3HC2SHCHSC2HCSFeSHNH8SCHSH2CH7SHSH3CH5CHFeHSH3FeHCH3CHCHCH2SHNCNHC3FeNH8S2H6C2HCH2C2HCH7C2HCH3FeC3H2CNC2HC2HFeS3HFeSCHSCHCHSCH3FeS2FeS2FeSFeS3H2SFeS2FeH2SCFeS2FeS2FeSFeS3C6H4C6H4CH2FeH4CH3C2HCH2C5H3C7H4C2H4C3H4C7HCHCH2SCHCHC2HNSHFeH2FeHCH2FeHNC8H21C2HSC2H6C2H2NC8H9C2H10C3HFeH2NHNHC3H2CHCHCH6CHSH4CH2SCHNC8H18NH2CHCH5C2HC2H2CH8NC2HCHCHC2HCHSCHSCHSHFeCH5C2H2CH2CH2CHCHCH2CH2C2H3SCH4C2H4SHSH4CSHCH2NHCSHCFeS2FeS2FeSFeHS2FeS2FeS2FeSFeS3FeSFeS2FeSFeS3FeS2HFeSFeH2SH3C3H3SH2FeC2HC3HCH2C6H4C6H4C2HC3H4C6H5NHC3SH4C2HCH3CHC2H3NC6H11C4H4CSCH5CH7NC6H14CHCH2CH3SH5C2HCH2C2H2CH5CNC8H16CH7C2NCH5C2H5CHCH2CH3C3H2C3HCH2NCHNH2C4H2SHC2HCH5C2FeC3HSCH5SCH2CH4CH5NCHC2HCH6CH2C3HSH6CHCHC3SHCS2FeSFeH2CH3C2H2FeSCS2FeS2FeSHFeSFeS3HCH7C2H3C7H9CH3CH7CH2C6H4C2NH7SC2HFeHCH4C3H2CH5FeHC2HNC8H19SH2C2HSHCHSCH2NCHNC3HNH2C3HCH2CH7CHC2SCHCSHFeCHC2H4CH4CHFeCH10FeH4CH2SHFeSCFeS2FeSFeS3FeS2FeSCFeSFeS3HSFeS2FeS3FeSFeS2FeSFeSFeS2H2CH3C6H4C6H4C6H4C6H5C4HCH4C6H6CHC6HCH2CH2C2HCH2C3HCFeH2SNH7NC2H3CHCFeHC2H2CH4NHC3H5SCHCFeNC8H20C2H4CH2CH7C3H4CH2CH3CH2C3HCSCH2C4H3SC3SC3HSCH2C2HCH2CHC2HFeHCH2SHCHSHNC6H14NC8H16CHCH3C3H6SH3FeH2CH3CH10CHCHC2HCHCH3S2C2HC3H3CSH2C2H4FeHCH3C2HNH3SCH6CH5NH9CH3CHCHC2HCNCHNCH3CHCNCH6C2H2SHSHC3H2NH2CHCH3CHCHCH2CH2SH2FeS2FeS2FeSFeS4FeS2FeSFeS2FeS2FeS2FeSFeS3HCHCHCFeCFeS2FeS3C6H5C5H4C6H4C6H4C6H5C4H4NHC5H6C6H4CHCHC6H3SHCHSH4SH7CH2CH2SH5C3H2CH3C2HNHSH4C3HCH2SH3NHFeC2H3FeNSFeC2NC5H16CH2SHC2H2CH4CHC2H4CHNC4H2C2H6CH3CHCH6CNC8H19SH8C2H2SC3FeHC2H5CH2NC7H16CHC3HCH4C2HC2HC3HCH2CNCHNCH2CHC2H6CH6CH5C2H9CSCH3CH3C2SH3C2SH4C2HCHC2H3CFeSCSH3SHFeS2CFeSCFeS2FeSFeS3CH5C7H4CHCN2C2H3FeC2SH2CH3C6H10SHCH2CHFeCHCSHCH3C2H5CHCHCH2C2HCH4CH4CH2C3HCNCHC2HC3H12CH2CH4CH3CH2NC2HC2HSH5CH6CH2SHC2HCH2FeCH7NH5C4HNFeH10S2CHCSCH2CH6CHFeH3CH5CH4SFeSCFeS2Fe2S3FeS3C2HFeSHSFeSFeSFeSFeS3FeS2FeS2FeCFeS3FeS2FeSFeSH3C2HCHC2H2C3NH3CH4CH2C6H4SH5C7H4C6H4C6H4C6H4CH5FeHC4H2CNC3H2C2H9CNH2CH2C2H3CH4NCH3CH2SH4CHCSH2C2H3FeHCH3CHCH2C3HCH2SH4CH6C2H5CHCH2CHC2HNH2CHNH8SNHCH2NHC2H3CH2CHCHCH4CH3C3HCHCHC2HC2H2SCSFeCH3C2SC2H2NC8H20NC8H21SHCH2CH2CH2SCNH2C2SC2H2CH4SCH6C2H3FeH2CH2C2H2C3HFeH4CHC2HSHS2CH5CH7NCHC2SCH3FeCSH2CFeCSFeH2S2HFeSHCSFeSFeSCHFeSCFeS2FeSFeS3H2CFeS3CFeSHSH4FeH2CH4C4H2C6H4C6H8NC2HC3H5C6H4CH2CNH2C2H9CH3C2H9C2HSH2CH3CH4CH3C2H3SH5CH5NHC2H6CH2CH2CH2NHC2H3C3FeCH2C2HCH2CHC3HC2H2C5SNH4C3H2CH4CH3C2H2C2H3C2H3SHCH2SCHSFeCNHCH9C5H2C2H5CH3CFeSHCH3SCH6SH7SC2HCH3C2SH3CFeSNFeS2H3CHFeSNSFeS2FeCSH2FeCS2H2CH3SH4C3H6CH3CH2C6H5CH2CHC4SNH2FeHC2SH7CFeC2SH4CH5CHCH2CH3SC3H2CHNH4CH2CHCH4CH3C2H3C3HCHCH2CFeCH2CH4SHCH3CFeH2FeCHCH4CSHNCSCHNHFeSCFeS2FeSFeS3FeS2FeS2FeSFeS3FeS2FeS2FeSFeS3FeS3Fe2S2H5C2H7CH4C4NCHC2HC6H4C4H2C6H4C6H2CH2CHC6HCH2C6H4C2HCH4CH2C3HCHCH2CHCH9CH2CHC3H12CH4C2SHCHCH4CH4CSC2H6CH3CHNC2HC3HCH9CH9CNC6SCH15SCH3NC8H21CHCH12C2H5NHCHC2HCH4SCNCHCH3FeC5HNSC2H2CHSH2SFeNHCFeH2C2H2NCH2CH6CH3SHCHC3SH3CHSHNCHC2H3CH3CH2C3HC3H5C4H10FeH4SHCFeS2HCHFe2SCFeCSFeCH2S2FeS2CHSHFeS2FeS2FeSFeS3FeS2FeSFeSFeS3H5CH2C3H2C6H4C6HCH2C7H5C2H3CH5CH2CH2N2HCH4S2C3FeH2SH3C6H4C2H2NC8H20SCSHCH2NFeH4CNH2C2H7CH3SH3CSH3CFeH2CHSCH2CHCHCH4CH2CH6C2H3CH2SHCHCHC2H5CH3C2H2CHC3HCH3NC5HFeH2CH4C2HCH2CSH2CH3CHC2HC2FeCH13CH2CHCH2CH2FeSNC2HFeSH2SFeCSFeS2Fe3S3FeSHSHFeSFeS3H7CH2CH2C6H7C3HSC6H4CH4CSHC2HCH2CH3CHCH2CH2NCH3SHCNC8H20CH6C2HSC3H2NC2H9NH2C3HNH5CH2SCHC2HCH4CHFeH11CH3C2H2C2H2C2H3CFeS2FeS2FeSFeS3FeS2FeS2FeSFeS3FeS2FeS2FeSFeS4H2SFe2HSH2S2C2NHCH2C3H5C6H4CHC3SHC6H4C6H7CH3C6H6SH5C2H4C7H4CHCH2CH4CNCH3C3HCH3C2H2CHCH3CH3CHCH2FeC2HCH4CHCHSC3HCHCHCH4FeN2HC2FeHCNH4C3SH2CFeH4CH4CH2CH2CHCHCHCHCH2CH2CHSH6CHCH2NC8H20CHNHC7H8C3H13CNHCHC3H6C2HC2HCH5CH3CH2SH2NH2CH5CHSNHC2NH11C3H3CH2C3H2CH3CHSHCHCH2CH2FeSHFeS2FeSFeS2FeS2FeSHFeSFeS3CN2HCH2CH2C6H11C6H4SHC2H4CH3CH4C3H2C6H4CH3CHC3HCH7CH4CH2CHCH2CH2NCH2NC8H14C2H2CH2CHC3H3C2HC2H3CHCSH5CHCH3C2NSH8C2H5SC2FeHCHSHNH6CHC3H3CH4C2HSC2HC2H2C2SH4CHSHSFeCHCHCSHC2H2C2H2SC3H5CH5CS2FeH2SFe2SHCH2S2HNH2FeS2FeS2FeSFeHS2FeS2HSFeSFeS2FeHFeHFeS2FeS2H2SHFeCHC4H2FeHC2H4FeH5CHCH3C2HC3HSH7CHC6HCH2C6H4CHC4SH2C7H4CHC2H6CH2CHSC2NC2HCSHCH3C2HCH2CH3C2H4CH3CHC2HCHSCSH2CH3FeH2NHNC5H11NC8H4SH3CH12CHNH9CHCHCH3C2H3C5SH11CSH2C2H2CH4CHC2H2CH8CHSHSCH2C3H3CH7CH3CH2CHCHC2H4C2HCH2NHC2HC3SHCHSH3CHSH2C2H4SC2HCHFeSFeS2FeSFeS3FeSCFeS2FeSFeS3C2HSHSHFeSHSFeSFeS2FeS2HFeH2FeS3FeHFeS2C2HSH4C3H2C2SC2H2C6H5CHC6H4SH2CHCHC6H5C2HC3HCH2C6H4SH3FeH2CH2NC8H20NC8H21CH3C3HSC2H10CH2C2H2C2HCH8SC2HCH3C2H2CHC2NH2C2H5NHC3H9C2H2CH3C3H2SHCH4CH2SCHFeC3H2SCHC2HCH3C2H2FeHCNHCH2SHCH4CH2CHFeH2CHNH2CHCH2C2H5CSCHSH2C2H3CHCHCHNHCH7CHCHCNHCH5C2H2FeCH4NC5HCHC2H4SH2CH4C2H2SCH2FeS2FeSFeS4C2H2FeS2FeS2FeSFeS3HC2H5CH3C4H4C7H5CHC4HCHCH5CHCHC4H3CH3C6H5FeHSHCH5CH2SH2C2H4CHC3H6NC6H7C2H4NSHCH2CH4CSH7CH2CH4CH2CHCH10CHFeC2H3NSH3CH2CNHCHCH2CH3CH2CHCH4CH3C2H4C2H2NCNHSH2C6H2C2H5C2H2CHCSCHNC2H2SNHCH2C3H3CH2CSH6CH9C3H4NFeCHCH4FeH2SH2SC2HFeSHSH2CH2CHFeCSFeH3CS2HFeS2FeS2FeSFeS3CHCSH2CFeSCSFeSCFeSFeCH2CHCH5C7H4C6H4CHC3H3CSH2CHC3SNH2C6H4CHSH2CHC3H5CH2CSCHFeHCH2CSH4CSCH2SH5NH3C2FeH6CNHFeC2HCFeCFeC4H5CHNHCHSHCH3CSH2CHNC7H11C3H2CH2CHNC7H16NCSH2C2HCHCH4SHSHS2H2CHCH2FeH8NC8H20CHC2H2CH3C4HNSH2CH3FeH3CHC2FeCHFeCHFeS2FeSFeHFeS2FeSFeS2FeCS2HFeS4FeS2FeSFeS2FeSFeS2FeSFeS3C6H4C6H4NHC3H4SH2C2HCHCHC6H5C5H3S2HC6HC7HSH2CNH4C3H6CHCH4CSH3CHC4H2SHCH3CH3C2HCSHCH5CSHCHCHCNH2C2HNC8H9CH10CHCHNC8H20NH2NH2CH3CH3CH2FeHCH2C2H2CHC2H3CH3NFe2HSCHCHCHCHC5NHSC2SH2C2HNH3CHCH4CHCH9CH2SH2C2HC2HC3H2CHC2H2C2HCHCH3CH6C2H5CH3CH2SH2CH12NH2C2H2SH2CH2C2H2CH2C3HCH7
_chemical_formula_sum              "H4608 C2688 S768 N192 Fe384"
_cell_length_a       72.5764
_cell_length_b       72.4469
_cell_length_c       72.4379
_cell_angle_alpha    75.2798
_cell_angle_beta     75.1872
_cell_angle_gamma    75.4022

_space_group_name_H-M_alt    "P 1"
_space_group_IT_number       1

loop_
  _space_group_symop_operation_xyz
  'x, y, z'

loop_
  _atom_site_type_symbol
  _atom_site_label
  _atom_site_symmetry_multiplicity
  _atom_site_fract_x
  _atom_site_fract_y
  _atom_site_fract_z
  _atom_site_occupancy
  H   H1        1.0  0.15975  0.29756  0.19772  1.0000
  H   H2        1.0  0.17739  0.36549  0.15095  1.0000
  C   C1        1.0  0.23041  0.45551  0.24574  1.0000
  H   H3        1.0  0.22786  0.17425  0.16077  1.0000
  S   S1        1.0  0.18187  0.32882  0.99533  1.0000
  H   H4        1.0  0.21495  0.46132  0.25192  1.0000
  N   N1        1.0  0.03219  0.31534  0.18931  1.0000
  Fe  Fe1       1.0  0.08969  0.31689  0.24891  1.0000
  S   S2        1.0  0.11010  0.29039  0.24010  1.0000
  S   S3        1.0  0.10433  0.34136  0.24768  1.0000
  Fe  Fe2       1.0  0.05394  0.29930  0.25426  1.0000
  S   S4        1.0  0.07174  0.27125  0.24612  1.0000
  S   S5        1.0  0.02105  0.30598  0.26340  1.0000
  Fe  Fe3       1.0  0.09133  0.27354  0.26455  1.0000
  H   H5        1.0  0.22305  0.23037  0.09398  1.0000
  Fe  Fe4       1.0  0.08897  0.29066  0.22241  1.0000
  S   S6        1.0  0.10009  0.28416  0.19234  1.0000
  S   S7        1.0  0.07224  0.30005  0.27487  1.0000
  S   S8        1.0  0.06978  0.31871  0.22899  1.0000
  H   H6        1.0  0.00685  0.19404  0.30568  1.0000
  S   S9        1.0  0.19585  0.38102  0.26804  1.0000
  C   C2        1.0  0.10104  0.40418  0.29305  1.0000
  Fe  Fe5       1.0  0.20752  0.27255  0.12982  1.0000
  H   H7        1.0  0.05677  0.27751  0.18394  1.0000
  Fe  Fe6       1.0  0.18912  0.31511  0.12838  1.0000
  S   S10       1.0  0.21629  0.32548  0.11044  1.0000
  S   S11       1.0  0.16230  0.33429  0.14211  1.0000
  Fe  Fe7       1.0  0.21878  0.30240  0.09352  1.0000
  C   C3        1.0  0.15584  0.33349  0.21905  1.0000
  C   C4        1.0  0.01199  0.31109  0.19628  1.0000
  H   H8        1.0  0.23385  0.07990  0.30246  1.0000
  S   S12       1.0  0.19016  0.29446  0.10957  1.0000
  S   S13       1.0  0.20403  0.29243  0.15007  1.0000
  H   H9        1.0  0.01926  0.14185  0.30646  1.0000
  C   C5        1.0  0.22131  0.37441  0.26340  1.0000
  H   H10       1.0  0.19623  0.27076  0.07573  1.0000
  H   H11       1.0  0.22384  0.25971  0.02845  1.0000
  H   H12       1.0  0.20207  0.44272  0.27910  1.0000
  H   H13       1.0  0.22346  0.37882  0.23242  1.0000
  Fe  Fe8       1.0  0.23129  0.30126  0.13109  1.0000
  H   H14       1.0  0.22395  0.36881  0.29338  1.0000
  C   C6        1.0  0.17841  0.34759  0.17993  1.0000
  H   H15       1.0  0.00687  0.31030  0.21223  1.0000
  H   H16       1.0  0.15101  0.32305  0.23257  1.0000
  H   H17       1.0  0.08199  0.23267  0.27168  1.0000
  C   C7        1.0  0.11651  0.29888  0.17789  1.0000
  C   C8        1.0  0.11846  0.31507  0.18389  1.0000
  C   C9        1.0  0.13218  0.32625  0.17254  1.0000
  C   C10       1.0  0.14440  0.32090  0.15554  1.0000
  C   C11       1.0  0.14247  0.30466  0.14963  1.0000
  C   C12       1.0  0.12831  0.29389  0.16059  1.0000
  H   H18       1.0  0.10939  0.31904  0.19722  1.0000
  H   H19       1.0  0.13354  0.33887  0.17710  1.0000
  H   H20       1.0  0.15173  0.30055  0.13645  1.0000
  H   H21       1.0  0.12676  0.28148  0.15581  1.0000
  C   C13       1.0  0.10821  0.34402  0.26983  1.0000
  C   C14       1.0  0.12273  0.35382  0.26947  1.0000
  C   C15       1.0  0.12577  0.35660  0.28689  1.0000
  C   C16       1.0  0.14105  0.23612  0.23967  1.0000
  H   H22       1.0  0.20601  0.24622  0.19803  1.0000
  H   H23       1.0  0.20495  0.44026  0.23861  1.0000
  H   H24       1.0  0.13167  0.35923  0.25570  1.0000
  H   H25       1.0  0.13709  0.36406  0.28647  1.0000
  H   H26       1.0  0.21317  0.43061  0.20788  1.0000
  H   H27       1.0  0.20340  0.45609  0.30979  1.0000
  H   H28       1.0  0.02692  0.34696  0.17993  1.0000
  H   H29       1.0  0.18399  0.32495  0.22637  1.0000
  H   H30       1.0  0.16602  0.28485  0.17845  1.0000
  H   H31       1.0  0.23776  0.42760  0.27582  1.0000
  H   H32       1.0  0.19017  0.22338  0.04350  1.0000
  H   H33       1.0  0.99871  0.34015  0.18060  1.0000
  H   H34       1.0  0.02861  0.27318  0.24406  1.0000
  H   H35       1.0  0.23338  0.34801  0.99650  1.0000
  H   H36       1.0  0.21641  0.41531  0.24177  1.0000
  H   H37       1.0  0.01181  0.29634  0.19450  1.0000
  H   H38       1.0  0.10467  0.42989  0.29998  1.0000
  H   H39       1.0  0.04789  0.33698  0.18986  1.0000
  H   H40       1.0  0.02948  0.32586  0.15918  1.0000
  C   C17       1.0  0.21936  0.43029  0.23581  1.0000
  C   C18       1.0  0.18392  0.36183  0.22583  1.0000
  H   H41       1.0  0.20348  0.22861  0.18619  1.0000
  H   H42       1.0  0.02646  0.32994  0.22385  1.0000
  C   C19       1.0  0.19510  0.32057  0.01419  1.0000
  C   C20       1.0  0.18768  0.32706  0.03184  1.0000
  C   C21       1.0  0.19832  0.32091  0.04684  1.0000
  C   C22       1.0  0.21673  0.30880  0.04393  1.0000
  C   C23       1.0  0.22417  0.30249  0.02622  1.0000
  C   C24       1.0  0.21324  0.30802  0.01157  1.0000
  H   H43       1.0  0.17366  0.33681  0.03395  1.0000
  H   H44       1.0  0.19254  0.32594  0.06043  1.0000
  H   H45       1.0  0.20711  0.41864  0.29321  1.0000
  H   H46       1.0  0.21913  0.30290  0.99810  1.0000
  C   C25       1.0  0.10128  0.22688  0.29158  1.0000
  H   H47       1.0  0.19014  0.25277  0.09717  1.0000
  H   H48       1.0  0.19261  0.25370  0.17913  1.0000
  H   H49       1.0  0.16891  0.36380  0.23478  1.0000
  H   H50       1.0  0.19821  0.42210  0.27169  1.0000
  C   C26       1.0  0.08805  0.22224  0.28325  1.0000
  H   H51       1.0  0.13774  0.27561  0.20598  1.0000
  H   H52       1.0  0.23518  0.37377  0.14131  1.0000
  H   H53       1.0  0.18980  0.37424  0.22678  1.0000
  H   H54       1.0  0.07169  0.20072  0.28425  1.0000
  C   C27       1.0  0.14259  0.23766  0.21767  1.0000
  H   H55       1.0  0.13525  0.25039  0.24406  1.0000
  C   C28       1.0  0.06002  0.31668  0.15890  1.0000
  C   C29       1.0  0.08223  0.20417  0.29037  1.0000
  H   H56       1.0  0.03707  0.30036  0.16556  1.0000
  H   H57       1.0  0.16495  0.25790  0.17203  1.0000
  H   H58       1.0  0.14529  0.22238  0.21578  1.0000
  C   C30       1.0  0.00608  0.29626  0.25411  1.0000
  N   N2        1.0  0.15782  0.24827  0.20377  1.0000
  C   C31       1.0  0.19559  0.24201  0.19176  1.0000
  H   H59       1.0  0.16063  0.23132  0.16165  1.0000
  C   C32       1.0  0.18461  0.26282  0.08450  1.0000
  C   C33       1.0  0.17758  0.23775  0.20786  1.0000
  C   C34       1.0  0.09665  0.33711  0.28770  1.0000
  C   C35       1.0  0.16589  0.28293  0.19412  1.0000
  H   H60       1.0  0.20178  0.20203  0.15157  1.0000
  C   C36       1.0  0.21928  0.22360  0.14601  1.0000
  H   H61       1.0  0.06319  0.31589  0.14325  1.0000
  H   H62       1.0  0.23117  0.20739  0.01459  1.0000
  C   C37       1.0  0.03072  0.15056  0.30016  1.0000
  H   H63       1.0  0.14903  0.22021  0.18514  1.0000
  C   C38       1.0  0.15577  0.24879  0.18341  1.0000
  H   H64       1.0  0.15391  0.26873  0.22241  1.0000
  C   C39       1.0  0.03885  0.31430  0.16806  1.0000
  H   H65       1.0  0.14066  0.25587  0.18155  1.0000
  C   C40       1.0  0.21587  0.21834  0.99091  1.0000
  H   H66       1.0  0.16797  0.22089  0.03946  1.0000
  S   S14       1.0  0.10717  0.25004  0.28510  1.0000
  H   H67       1.0  0.23614  0.32438  0.20097  1.0000
  C   C41       1.0  0.04922  0.27929  0.19893  1.0000
  H   H68       1.0  0.17857  0.22168  0.21093  1.0000
  C   C42       1.0  0.16039  0.22885  0.17748  1.0000
  C   C43       1.0  0.20883  0.33640  0.19145  1.0000
  H   H69       1.0  0.08956  0.39662  0.29291  1.0000
  N   N3        1.0  0.17485  0.26188  0.05296  1.0000
  C   C44       1.0  0.15969  0.28015  0.05562  1.0000
  C   C45       1.0  0.17858  0.25108  0.07280  1.0000
  C   C46       1.0  0.16649  0.24968  0.04425  1.0000
  C   C47       1.0  0.19286  0.26796  0.03934  1.0000
  C   C48       1.0  0.15248  0.29230  0.03705  1.0000
  H   H70       1.0  0.22983  0.21642  0.07499  1.0000
  C   C49       1.0  0.17427  0.22745  0.04812  1.0000
  C   C50       1.0  0.21240  0.25346  0.03998  1.0000
  H   H71       1.0  0.21245  0.23938  0.03682  1.0000
  H   H72       1.0  0.16532  0.29029  0.06106  1.0000
  H   H73       1.0  0.19007  0.23773  0.07176  1.0000
  C   C51       1.0  0.23754  0.22685  0.14592  1.0000
  H   H74       1.0  0.15047  0.25133  0.04989  1.0000
  H   H75       1.0  0.16821  0.25483  0.02816  1.0000
  H   H76       1.0  0.19114  0.27189  0.02388  1.0000
  H   H77       1.0  0.19506  0.28144  0.04234  1.0000
  H   H78       1.0  0.16457  0.29705  0.02540  1.0000
  H   H79       1.0  0.14458  0.28438  0.03142  1.0000
  H   H80       1.0  0.14216  0.30575  0.04054  1.0000
  H   H81       1.0  0.23742  0.41903  0.21009  1.0000
  C   C52       1.0  0.18360  0.36307  0.20422  1.0000
  C   C53       1.0  0.23167  0.36980  0.27838  1.0000
  H   H82       1.0  0.14873  0.33194  0.20780  1.0000
  H   H83       1.0  0.03578  0.27332  0.20322  1.0000
  H   H84       1.0  0.16972  0.22062  0.06366  1.0000
  N   N4        1.0  0.23338  0.43409  0.24604  1.0000
  S   S15       1.0  0.23626  0.27899  0.11278  1.0000
  H   H85       1.0  0.18216  0.31466  0.20759  1.0000
  H   H86       1.0  0.10754  0.40967  0.27758  1.0000
  H   H87       1.0  0.08531  0.32974  0.28807  1.0000
  S   S16       1.0  0.16585  0.28517  0.98717  1.0000
  H   H88       1.0  0.00726  0.26158  0.22937  1.0000
  C   C54       1.0  0.17825  0.32861  0.21285  1.0000
  N   N5        1.0  0.18730  0.34406  0.19758  1.0000
  H   H89       1.0  0.18089  0.27871  0.19678  1.0000
  H   H90       1.0  0.07077  0.30490  0.16575  1.0000
  H   H91       1.0  0.19299  0.34855  0.23281  1.0000
  C   C55       1.0  0.09286  0.42147  0.30363  1.0000
  C   C56       1.0  0.23553  0.22258  0.08445  1.0000
  H   H92       1.0  0.06244  0.33100  0.15953  1.0000
  H   H93       1.0  0.23408  0.40766  0.26820  1.0000
  H   H94       1.0  0.08102  0.43107  0.29635  1.0000
  H   H95       1.0  0.04445  0.13992  0.29664  1.0000
  H   H96       1.0  0.23840  0.29312  0.02390  1.0000
  H   H97       1.0  0.23440  0.34261  0.13326  1.0000
  H   H98       1.0  0.00560  0.34261  0.21317  1.0000
  C   C57       1.0  0.08932  0.19104  0.30607  1.0000
  H   H99       1.0  0.02736  0.16043  0.28642  1.0000
  H   H100      1.0  0.16259  0.35406  0.18322  1.0000
  C   C58       1.0  0.02157  0.34078  0.21136  1.0000
  H   H101      1.0  0.21580  0.32013  0.22006  1.0000
  H   H102      1.0  0.05990  0.30458  0.19834  1.0000
  H   H103      1.0  0.02441  0.35494  0.21204  1.0000
  H   H104      1.0  0.24018  0.24152  0.14204  1.0000
  H   H105      1.0  0.05905  0.27005  0.20870  1.0000
  H   H106      1.0  0.12783  0.24463  0.21452  1.0000
  C   C59       1.0  0.01351  0.28033  0.24493  1.0000
  C   C60       1.0  0.03263  0.33536  0.19163  1.0000
  C   C61       1.0  0.22566  0.43158  0.21357  1.0000
  C   C62       1.0  0.04545  0.30057  0.20139  1.0000
  H   H107      1.0  0.03966  0.30046  0.21716  1.0000
  H   H108      1.0  0.13047  0.22675  0.24813  1.0000
  H   H109      1.0  0.17488  0.22026  0.17974  1.0000
  C   C63       1.0  0.15302  0.26875  0.20732  1.0000
  H   H110      1.0  0.21572  0.34737  0.17987  1.0000
  C   C64       1.0  0.23062  0.18891  0.15661  1.0000
  H   H111      1.0  0.17188  0.27330  0.09058  1.0000
  H   H112      1.0  0.17959  0.24084  0.22143  1.0000
  H   H113      1.0  0.15504  0.22927  0.24433  1.0000
  H   H114      1.0  0.21691  0.25124  0.05400  1.0000
  H   H115      1.0  0.22207  0.34422  0.21178  1.0000
  C   C65       1.0  0.99619  0.32509  0.18581  1.0000
  S   S17       1.0  0.15008  0.39458  0.30525  1.0000
  H   H116      1.0  0.15033  0.34832  0.22219  1.0000
  H   H117      1.0  0.21139  0.32333  0.18494  1.0000
  S   S18       1.0  0.20191  0.23844  0.00053  1.0000
  H   H118      1.0  0.20134  0.35373  0.15402  1.0000
  H   H119      1.0  0.16898  0.37177  0.20212  1.0000
  H   H120      1.0  0.11266  0.39346  0.29946  1.0000
  C   C66       1.0  0.18720  0.36128  0.16150  1.0000
  C   C67       1.0  0.11389  0.35010  0.30470  1.0000
  C   C68       1.0  0.21587  0.20462  0.15141  1.0000
  C   C69       1.0  0.22929  0.42365  0.26709  1.0000
  C   C70       1.0  0.00138  0.27373  0.23670  1.0000
  S   S19       1.0  0.23116  0.30141  0.06170  1.0000
  H   H121      1.0  0.18892  0.37489  0.16460  1.0000
  Fe  Fe9       1.0  0.18070  0.37768  0.29957  1.0000
  C   C71       1.0  0.09936  0.34034  0.30508  1.0000
  S   S20       1.0  0.20032  0.24275  0.13946  1.0000
  C   C72       1.0  0.23511  0.46910  0.22573  1.0000
  H   H122      1.0  0.22244  0.47359  0.21850  1.0000
  H   H123      1.0  0.16529  0.24587  0.08200  1.0000
  H   H124      1.0  0.19425  0.37214  0.19502  1.0000
  H   H125      1.0  0.17941  0.33356  0.17565  1.0000
  H   H126      1.0  0.14669  0.27657  0.06685  1.0000
  C   C73       1.0  0.20787  0.42725  0.27808  1.0000
  C   C74       1.0  0.22102  0.33104  0.20728  1.0000
  H   H127      1.0  0.23872  0.48235  0.22785  1.0000
  C   C75       1.0  0.22959  0.20523  0.00088  1.0000
  C   C76       1.0  0.23138  0.37543  0.24404  1.0000
  C   C77       1.0  0.10913  0.21324  0.30649  1.0000
  H   H128      1.0  0.23032  0.44533  0.20555  1.0000
  H   H129      1.0  0.06113  0.25044  0.30875  1.0000
  H   H130      1.0  0.23839  0.45824  0.25570  1.0000
  H   H131      1.0  0.03934  0.17483  0.30465  1.0000
  H   H132      1.0  0.99500  0.31963  0.17323  1.0000
  C   C78       1.0  0.10287  0.19557  0.31398  1.0000
  H   H133      1.0  0.99592  0.17419  0.30803  1.0000
  H   H134      1.0  0.09214  0.45614  0.31336  1.0000
  H   H135      1.0  0.11946  0.21670  0.31290  1.0000
  H   H136      1.0  0.24062  0.19349  0.10071  1.0000
  C   C79       1.0  0.03313  0.16227  0.31419  1.0000
  H   H137      1.0  0.21329  0.37288  0.98144  1.0000
  H   H138      1.0  0.13609  0.26505  0.34330  1.0000
  S   S21       1.0  0.21171  0.23357  0.62599  1.0000
  H   H139      1.0  0.16982  0.12716  0.42953  1.0000
  S   S22       1.0  0.17139  0.26679  0.63215  1.0000
  Fe  Fe10      1.0  0.21853  0.04428  0.41227  1.0000
  Fe  Fe11      1.0  0.18863  0.24989  0.60887  1.0000
  S   S23       1.0  0.19447  0.26314  0.57645  1.0000
  H   H140      1.0  0.20310  0.43023  0.38338  1.0000
  C   C80       1.0  0.21412  0.21666  0.50420  1.0000
  S   S24       1.0  0.17140  0.22637  0.61906  1.0000
  H   H141      1.0  0.21808  0.25407  0.48942  1.0000
  C   C81       1.0  0.08277  0.24252  0.34185  1.0000
  Fe  Fe12      1.0  0.17883  0.35779  0.34194  1.0000
  S   S25       1.0  0.14805  0.37303  0.35105  1.0000
  S   S26       1.0  0.19599  0.33440  0.36182  1.0000
  H   H142      1.0  0.20020  0.22755  0.50572  1.0000
  Fe  Fe13      1.0  0.15765  0.39988  0.33137  1.0000
  S   S27       1.0  0.14467  0.42897  0.34064  1.0000
  H   H143      1.0  0.10882  0.02520  0.39642  1.0000
  H   H144      1.0  0.13420  0.99956  0.37737  1.0000
  H   H145      1.0  0.22549  0.23251  0.46420  1.0000
  H   H146      1.0  0.22295  0.22338  0.58703  1.0000
  Fe  Fe14      1.0  0.20147  0.04822  0.37689  1.0000
  S   S28       1.0  0.19591  0.03081  0.40742  1.0000
  S   S29       1.0  0.17847  0.06514  0.35982  1.0000
  C   C82       1.0  0.10309  0.40751  0.33471  1.0000
  H   H147      1.0  0.05186  0.24862  0.39521  1.0000
  H   H148      1.0  0.12496  0.32270  0.36862  1.0000
  H   H149      1.0  0.06094  0.22568  0.32129  1.0000
  Fe  Fe15      1.0  0.08744  0.14027  0.38802  1.0000
  S   S30       1.0  0.07265  0.16475  0.40396  1.0000
  S   S31       1.0  0.10213  0.11246  0.40536  1.0000
  Fe  Fe16      1.0  0.08019  0.16476  0.34899  1.0000
  S   S32       1.0  0.06581  0.19110  0.36170  1.0000
  H   H150      1.0  0.13446  0.46918  0.34399  1.0000
  Fe  Fe17      1.0  0.08955  0.18277  0.37856  1.0000
  S   S33       1.0  0.10728  0.20417  0.37906  1.0000
  Fe  Fe18      1.0  0.05017  0.17066  0.38559  1.0000
  S   S34       1.0  0.01777  0.18251  0.39250  1.0000
  S   S35       1.0  0.10554  0.15804  0.36362  1.0000
  S   S36       1.0  0.06337  0.14453  0.37195  1.0000
  Fe  Fe19      1.0  0.14095  0.22614  0.46343  1.0000
  S   S37       1.0  0.16230  0.23929  0.43849  1.0000
  S   S38       1.0  0.11712  0.21251  0.46084  1.0000
  Fe  Fe20      1.0  0.15850  0.23508  0.49403  1.0000
  S   S39       1.0  0.18090  0.24936  0.47125  1.0000
  S   S40       1.0  0.15682  0.22792  0.52673  1.0000
  Fe  Fe21      1.0  0.15657  0.26313  0.45502  1.0000
  S   S41       1.0  0.14744  0.29475  0.44131  1.0000
  Fe  Fe22      1.0  0.18450  0.22416  0.45688  1.0000
  S   S42       1.0  0.21408  0.20881  0.44322  1.0000
  S   S43       1.0  0.13371  0.25088  0.47912  1.0000
  S   S44       1.0  0.16355  0.20901  0.48059  1.0000
  H   H151      1.0  0.23558  0.25369  0.45640  1.0000
  C   C83       1.0  0.22428  0.18741  0.45813  1.0000
  N   N6        1.0  0.06329  0.25619  0.34395  1.0000
  C   C84       1.0  0.10966  0.20673  0.40180  1.0000
  C   C85       1.0  0.09696  0.20028  0.41899  1.0000
  C   C86       1.0  0.09929  0.20235  0.43698  1.0000
  C   C87       1.0  0.11437  0.21078  0.43791  1.0000
  C   C88       1.0  0.12703  0.21730  0.42068  1.0000
  C   C89       1.0  0.12460  0.21538  0.40266  1.0000
  H   H152      1.0  0.08530  0.19376  0.41847  1.0000
  H   H153      1.0  0.08945  0.19730  0.45027  1.0000
  H   H154      1.0  0.13878  0.22360  0.42130  1.0000
  H   H155      1.0  0.13453  0.22028  0.38939  1.0000
  H   H156      1.0  0.10852  0.18547  0.32598  1.0000
  C   C90       1.0  0.21430  0.18104  0.47702  1.0000
  C   C91       1.0  0.23321  0.05617  0.44850  1.0000
  N   N7        1.0  0.01494  0.16919  0.32824  1.0000
  H   H157      1.0  0.21548  0.16056  0.50426  1.0000
  H   H158      1.0  0.19995  0.18866  0.48231  1.0000
  H   H159      1.0  0.15435  0.02968  0.40926  1.0000
  C   C92       1.0  0.15785  0.07894  0.37260  1.0000
  C   C93       1.0  0.15355  0.07534  0.39299  1.0000
  C   C94       1.0  0.13627  0.08552  0.40292  1.0000
  C   C95       1.0  0.12353  0.09975  0.39253  1.0000
  C   C96       1.0  0.12798  0.10356  0.37214  1.0000
  C   C97       1.0  0.14499  0.09300  0.36222  1.0000
  H   H160      1.0  0.16336  0.06457  0.40114  1.0000
  H   H161      1.0  0.13287  0.08249  0.41870  1.0000
  H   H162      1.0  0.11813  0.11435  0.36401  1.0000
  H   H163      1.0  0.14816  0.09575  0.34644  1.0000
  C   C98       1.0  0.02705  0.19902  0.33085  1.0000
  H   H164      1.0  0.04861  0.30269  0.31631  1.0000
  S   S45       1.0  0.17312  0.34918  0.31656  1.0000
  H   H165      1.0  0.22489  0.22060  0.53590  1.0000
  C   C99       1.0  0.05804  0.39964  0.34919  1.0000
  C   C100      1.0  0.16188  0.99906  0.42180  1.0000
  H   H166      1.0  0.04637  0.41284  0.35012  1.0000
  H   H167      1.0  0.15873  0.45995  0.41050  1.0000
  H   H168      1.0  0.09672  0.25118  0.36128  1.0000
  H   H169      1.0  0.12231  0.24977  0.55926  1.0000
  H   H170      1.0  0.13465  0.13723  0.39484  1.0000
  C   C101      1.0  0.21243  0.47073  0.35898  1.0000
  C   C102      1.0  0.18289  0.32374  0.38438  1.0000
  C   C103      1.0  0.16460  0.33344  0.39267  1.0000
  C   C104      1.0  0.15409  0.32448  0.41033  1.0000
  C   C105      1.0  0.16171  0.30571  0.41977  1.0000
  C   C106      1.0  0.18009  0.29601  0.41163  1.0000
  C   C107      1.0  0.19072  0.30510  0.39403  1.0000
  H   H171      1.0  0.15862  0.34792  0.38560  1.0000
  H   H172      1.0  0.13994  0.33209  0.41665  1.0000
  H   H173      1.0  0.18609  0.28154  0.41889  1.0000
  H   H174      1.0  0.20492  0.29757  0.38773  1.0000
  C   C108      1.0  0.14957  0.01605  0.40975  1.0000
  C   C109      1.0  0.17696  0.45252  0.37652  1.0000
  H   H175      1.0  0.18458  0.42960  0.32056  1.0000
  H   H176      1.0  0.15266  0.24904  0.35798  1.0000
  H   H177      1.0  0.04506  0.15375  0.32187  1.0000
  S   S46       1.0  0.22204  0.06345  0.38251  1.0000
  H   H178      1.0  0.16799  0.03054  0.34812  1.0000
  H   H179      1.0  0.12263  0.15984  0.40117  1.0000
  C   C110      1.0  0.15827  0.44761  0.33283  1.0000
  H   H180      1.0  0.14199  0.17034  0.45247  1.0000
  C   C111      1.0  0.00223  0.16692  0.39353  1.0000
  C   C112      1.0  0.00793  0.14670  0.39876  1.0000
  C   C113      1.0  0.17242  0.01513  0.35542  1.0000
  C   C114      1.0  0.13929  0.27728  0.59278  1.0000
  C   C115      1.0  0.17021  0.01346  0.37752  1.0000
  H   H181      1.0  0.02207  0.14038  0.40239  1.0000
  H   H182      1.0  0.09012  0.33532  0.31881  1.0000
  C   C116      1.0  0.18542  0.25308  0.56160  1.0000
  C   C117      1.0  0.18317  0.23373  0.56709  1.0000
  C   C118      1.0  0.17479  0.22617  0.55595  1.0000
  C   C119      1.0  0.16927  0.23761  0.53875  1.0000
  C   C120      1.0  0.17239  0.25673  0.53260  1.0000
  C   C121      1.0  0.18033  0.26450  0.54412  1.0000
  H   H183      1.0  0.18769  0.22455  0.58006  1.0000
  H   H184      1.0  0.17243  0.21137  0.56076  1.0000
  H   H185      1.0  0.16800  0.26573  0.51942  1.0000
  H   H186      1.0  0.18220  0.27946  0.53967  1.0000
  H   H187      1.0  0.14025  0.26069  0.56212  1.0000
  H   H188      1.0  0.21125  0.24253  0.52458  1.0000
  C   C122      1.0  0.11617  0.03780  0.39166  1.0000
  H   H189      1.0  0.03069  0.12727  0.33934  1.0000
  C   C123      1.0  0.05678  0.26085  0.36405  1.0000
  C   C124      1.0  0.05685  0.24322  0.38135  1.0000
  H   H190      1.0  0.16130  0.45168  0.38091  1.0000
  C   C125      1.0  0.99508  0.13463  0.39992  1.0000
  H   H191      1.0  0.12985  0.23488  0.61162  1.0000
  H   H192      1.0  0.99474  0.15731  0.35344  1.0000
  C   C126      1.0  0.15015  0.15823  0.44490  1.0000
  C   C127      1.0  0.15017  0.16066  0.38165  1.0000
  H   H193      1.0  0.11452  0.41646  0.32892  1.0000
  C   C128      1.0  0.11917  0.27173  0.59749  1.0000
  C   C129      1.0  0.16017  0.48135  0.33060  1.0000
  H   H194      1.0  0.17529  0.14136  0.40592  1.0000
  S   S47       1.0  0.20321  0.17916  0.63833  1.0000
  H   H195      1.0  0.16434  0.11689  0.39259  1.0000
  H   H196      1.0  0.12990  0.99446  0.40309  1.0000
  H   H197      1.0  0.17721  0.99524  0.41424  1.0000
  H   H198      1.0  0.17935  0.45670  0.36036  1.0000
  H   H199      1.0  0.04170  0.26961  0.36597  1.0000
  H   H200      1.0  0.12917  0.11970  0.42594  1.0000
  H   H201      1.0  0.14677  0.14475  0.45510  1.0000
  H   H202      1.0  0.00782  0.18303  0.35312  1.0000
  H   H203      1.0  0.01185  0.12425  0.36055  1.0000
  H   H204      1.0  0.06337  0.40591  0.31822  1.0000
  C   C130      1.0  0.11426  0.28080  0.55582  1.0000
  H   H205      1.0  0.17632  0.02544  0.37914  1.0000
  H   H206      1.0  0.08765  0.23996  0.32677  1.0000
  H   H207      1.0  0.09488  0.24335  0.58482  1.0000
  H   H208      1.0  0.11571  0.04394  0.40440  1.0000
  H   H209      1.0  0.14661  0.23841  0.58950  1.0000
  H   H210      1.0  0.08749  0.26750  0.58774  1.0000
  C   C131      1.0  0.05276  0.24095  0.32060  1.0000
  C   C132      1.0  0.12441  0.26094  0.56622  1.0000
  H   H211      1.0  0.12958  0.17158  0.42583  1.0000
  Fe  Fe23      1.0  0.14309  0.36652  0.32425  1.0000
  H   H212      1.0  0.17994  0.42332  0.39531  1.0000
  H   H213      1.0  0.10830  0.28522  0.59373  1.0000
  C   C133      1.0  0.12871  0.21858  0.59093  1.0000
  C   C134      1.0  0.13117  0.23733  0.59559  1.0000
  H   H214      1.0  0.08185  0.22784  0.35113  1.0000
  H   H215      1.0  0.20603  0.20177  0.53496  1.0000
  H   H216      1.0  0.04676  0.23391  0.38159  1.0000
  N   N8        1.0  0.14128  0.28144  0.38255  1.0000
  C   C135      1.0  0.12538  0.28963  0.39813  1.0000
  C   C136      1.0  0.15024  0.29813  0.36956  1.0000
  C   C137      1.0  0.15625  0.26660  0.39257  1.0000
  C   C138      1.0  0.13215  0.27210  0.37171  1.0000
  C   C139      1.0  0.11637  0.27459  0.41510  1.0000
  C   C140      1.0  0.13655  0.31466  0.35861  1.0000
  C   C141      1.0  0.17706  0.26189  0.38048  1.0000
  C   C142      1.0  0.14523  0.26441  0.35372  1.0000
  H   H217      1.0  0.13085  0.29886  0.40489  1.0000
  H   H218      1.0  0.11305  0.29939  0.39180  1.0000
  H   H219      1.0  0.16288  0.29333  0.35832  1.0000
  H   H220      1.0  0.15636  0.30476  0.37829  1.0000
  H   H221      1.0  0.15807  0.27162  0.40521  1.0000
  H   H222      1.0  0.15128  0.25253  0.39872  1.0000
  H   H223      1.0  0.12654  0.25932  0.38155  1.0000
  H   H224      1.0  0.11887  0.28196  0.36723  1.0000
  H   H225      1.0  0.10958  0.26515  0.41012  1.0000
  H   H226      1.0  0.12707  0.26545  0.42392  1.0000
  H   H227      1.0  0.10471  0.28252  0.42521  1.0000
  H   H228      1.0  0.13012  0.30941  0.34906  1.0000
  S   S48       1.0  0.22509  0.02491  0.36495  1.0000
  H   H229      1.0  0.21144  0.45888  0.35236  1.0000
  H   H230      1.0  0.18577  0.24964  0.38937  1.0000
  H   H231      1.0  0.18448  0.27438  0.37706  1.0000
  H   H232      1.0  0.17759  0.25731  0.36691  1.0000
  C   C143      1.0  0.22582  0.23284  0.52305  1.0000
  H   H233      1.0  0.15609  0.27328  0.34525  1.0000
  H   H234      1.0  0.09783  0.38794  0.36331  1.0000
  H   H235      1.0  0.06586  0.27018  0.36613  1.0000
  H   H236      1.0  0.22722  0.14093  0.64275  1.0000
  N   N9        1.0  0.14978  0.01424  0.38939  1.0000
  C   C144      1.0  0.20226  0.46836  0.38068  1.0000
  H   H237      1.0  0.13600  0.03173  0.36552  1.0000
  H   H238      1.0  0.05074  0.38747  0.35046  1.0000
  H   H239      1.0  0.09878  0.23758  0.62339  1.0000
  H   H240      1.0  0.20665  0.48500  0.35037  1.0000
  H   H241      1.0  0.16034  0.10271  0.41727  1.0000
  C   C145      1.0  0.06500  0.27495  0.32921  1.0000
  H   H242      1.0  0.03208  0.17028  0.34832  1.0000
  H   H243      1.0  0.10763  0.04944  0.38208  1.0000
  H   H244      1.0  0.14399  0.04540  0.37796  1.0000
  C   C146      1.0  0.17295  0.46465  0.40683  1.0000
  H   H245      1.0  0.16468  0.15150  0.37750  1.0000
  H   H246      1.0  0.12069  0.28266  0.53994  1.0000
  H   H247      1.0  0.13459  0.01738  0.41880  1.0000
  S   S49       1.0  0.21367  0.05993  0.43683  1.0000
  H   H248      1.0  0.04088  0.19680  0.32004  1.0000
  H   H249      1.0  0.11258  0.40513  0.36154  1.0000
  H   H250      1.0  0.03554  0.29164  0.33919  1.0000
  H   H251      1.0  0.02992  0.20531  0.34207  1.0000
  H   H252      1.0  0.11662  0.29318  0.56070  1.0000
  C   C147      1.0  0.09710  0.25353  0.59291  1.0000
  C   C148      1.0  0.00034  0.18240  0.31671  1.0000
  H   H253      1.0  0.08185  0.26045  0.62156  1.0000
  H   H254      1.0  0.06203  0.44144  0.32422  1.0000
  H   H255      1.0  0.09850  0.28162  0.55739  1.0000
  H   H256      1.0  0.21538  0.21264  0.49017  1.0000
  C   C149      1.0  0.02023  0.17971  0.34103  1.0000
  C   C150      1.0  0.21102  0.19840  0.52020  1.0000
  H   H257      1.0  0.99208  0.18658  0.64032  1.0000
  C   C151      1.0  0.14953  0.46630  0.33658  1.0000
  C   C152      1.0  0.16832  0.11367  0.40703  1.0000
  H   H258      1.0  0.11521  0.26741  0.61366  1.0000
  N   N10       1.0  0.14438  0.14366  0.41814  1.0000
  H   H259      1.0  0.11439  0.21483  0.59851  1.0000
  N   N11       1.0  0.11792  0.25589  0.58808  1.0000
  H   H260      1.0  0.18402  0.10675  0.40506  1.0000
  H   H261      1.0  0.07160  0.23419  0.38169  1.0000
  C   C153      1.0  0.18808  0.43141  0.38184  1.0000
  H   H262      1.0  0.07672  0.23920  0.61655  1.0000
  H   H263      1.0  0.15165  0.17467  0.38407  1.0000
  Fe  Fe24      1.0  0.22110  0.00846  0.39597  1.0000
  H   H264      1.0  0.03883  0.24233  0.31616  1.0000
  C   C154      1.0  0.13713  0.14990  0.39928  1.0000
  H   H265      1.0  0.14420  0.28309  0.57704  1.0000
  H   H266      1.0  0.08135  0.38708  0.32816  1.0000
  H   H267      1.0  0.16599  0.15776  0.44263  1.0000
  H   H268      1.0  0.16387  0.00608  0.35217  1.0000
  H   H269      1.0  0.15051  0.26486  0.59790  1.0000
  H   H270      1.0  0.15396  0.17060  0.41452  1.0000
  H   H271      1.0  0.18797  0.01033  0.34882  1.0000
  C   C155      1.0  0.04561  0.28853  0.32551  1.0000
  H   H272      1.0  0.21089  0.45508  0.38831  1.0000
  S   S50       1.0  0.11636  0.35478  0.32656  1.0000
  H   H273      1.0  0.11295  0.23826  0.34366  1.0000
  H   H274      1.0  0.10295  0.15038  0.42918  1.0000
  H   H275      1.0  0.10238  0.26317  0.33576  1.0000
  H   H276      1.0  0.14320  0.16438  0.36884  1.0000
  H   H277      1.0  0.19921  0.19261  0.51778  1.0000
  H   H278      1.0  0.22471  0.08466  0.45562  1.0000
  H   H279      1.0  0.13084  0.21949  0.57503  1.0000
  C   C156      1.0  0.04861  0.24650  0.34072  1.0000
  C   C157      1.0  0.09944  0.24949  0.34598  1.0000
  C   C158      1.0  0.09967  0.40322  0.35717  1.0000
  H   H280      1.0  0.17723  0.44760  0.43535  1.0000
  H   H281      1.0  0.04765  0.23265  0.35153  1.0000
  H   H282      1.0  0.03357  0.25528  0.34357  1.0000
  S   S51       1.0  0.18911  0.38516  0.32420  1.0000
  H   H283      1.0  0.11049  0.39343  0.33042  1.0000
  H   H284      1.0  0.01584  0.21003  0.32394  1.0000
  H   H285      1.0  0.07308  0.28367  0.33371  1.0000
  S   S52       1.0  0.08008  0.16982  0.31712  1.0000
  H   H286      1.0  0.08737  0.41324  0.36425  1.0000
  H   H287      1.0  0.11120  0.15145  0.45040  1.0000
  H   H288      1.0  0.19104  0.43559  0.41608  1.0000
  C   C159      1.0  0.08824  0.24746  0.61483  1.0000
  H   H289      1.0  0.19845  0.45585  0.42060  1.0000
  H   H290      1.0  0.10202  0.13091  0.44994  1.0000
  C   C160      1.0  0.14402  0.16164  0.42518  1.0000
  C   C161      1.0  0.17772  0.44401  0.32322  1.0000
  H   H291      1.0  0.13804  0.12261  0.44520  1.0000
  C   C162      1.0  0.16494  0.13212  0.41537  1.0000
  C   C163      1.0  0.13722  0.03259  0.38027  1.0000
  H   H292      1.0  0.13841  0.28890  0.60063  1.0000
  C   C164      1.0  0.18833  0.45902  0.31720  1.0000
  H   H293      1.0  0.07653  0.46347  0.33470  1.0000
  C   C165      1.0  0.13129  0.13106  0.43263  1.0000
  C   C166      1.0  0.11076  0.14182  0.44087  1.0000
  H   H294      1.0  0.14000  0.20626  0.59627  1.0000
  H   H295      1.0  0.14516  0.32546  0.34900  1.0000
  C   C167      1.0  0.07433  0.43491  0.33197  1.0000
  H   H296      1.0  0.16226  0.00339  0.43533  1.0000
  H   H297      1.0  0.99938  0.11901  0.40447  1.0000
  H   H298      1.0  0.18970  0.42388  0.36974  1.0000
  H   H299      1.0  0.06510  0.39588  0.36183  1.0000
  C   C168      1.0  0.22320  0.16515  0.48953  1.0000
  C   C169      1.0  0.00607  0.15238  0.34116  1.0000
  H   H300      1.0  0.22417  0.18664  0.51977  1.0000
  C   C170      1.0  0.18585  0.44997  0.42018  1.0000
  C   C171      1.0  0.17963  0.47771  0.32089  1.0000
  H   H301      1.0  0.22812  0.47021  0.35770  1.0000
  H   H302      1.0  0.02834  0.13938  0.35912  1.0000
  C   C172      1.0  0.14155  0.99687  0.38984  1.0000
  N   N12       1.0  0.08562  0.41632  0.32547  1.0000
  C   C173      1.0  0.02029  0.13496  0.35042  1.0000
  H   H303      1.0  0.06726  0.43234  0.34761  1.0000
  H   H304      1.0  0.18021  0.99999  0.38287  1.0000
  C   C174      1.0  0.07253  0.40189  0.32944  1.0000
  C   C175      1.0  0.23630  0.23943  0.46679  1.0000
  C   C176      1.0  0.08622  0.45074  0.32898  1.0000
  H   H305      1.0  0.16991  0.47864  0.41192  1.0000
  H   H306      1.0  0.14257  0.48073  0.37502  1.0000
  H   H307      1.0  0.09822  0.44561  0.33713  1.0000
  C   C177      1.0  0.23531  0.07112  0.45640  1.0000
  N   N13       1.0  0.18093  0.46771  0.38508  1.0000
  Fe  Fe25      1.0  0.19298  0.21119  0.63773  1.0000
  H   H308      1.0  0.20439  0.48052  0.38628  1.0000
  C   C178      1.0  0.23196  0.24307  0.48768  1.0000
  N   N14       1.0  0.23080  0.22558  0.50422  1.0000
  H   H309      1.0  0.22299  0.20097  0.58138  1.0000
  H   H310      1.0  0.23532  0.24707  0.54094  1.0000
  H   H311      1.0  0.99804  0.14669  0.33334  1.0000
  Fe  Fe26      1.0  0.15584  0.24172  0.64339  1.0000
  H   H312      1.0  0.23911  0.25875  0.51602  1.0000
  H   H313      1.0  0.03835  0.28246  0.31732  1.0000
  H   H314      1.0  0.23703  0.16548  0.60799  1.0000
  H   H315      1.0  0.23673  0.19782  0.61148  1.0000
  C   C179      1.0  0.23267  0.21027  0.58209  1.0000
  H   H316      1.0  0.23933  0.17101  0.58267  1.0000
  C   C180      1.0  0.23990  0.24421  0.52588  1.0000
  H   H317      1.0  0.15513  0.98604  0.42655  1.0000
  H   H318      1.0  0.21330  0.98595  0.36582  1.0000
  H   H319      1.0  0.07395  0.27214  0.31484  1.0000
  H   H320      1.0  0.03763  0.22639  0.87017  1.0000
  C   C181      1.0  0.01511  0.25222  0.87067  1.0000
  H   H321      1.0  0.21815  0.98838  0.81490  1.0000
  H   H322      1.0  0.23637  0.36720  0.85413  1.0000
  H   H323      1.0  0.12667  0.22869  0.71906  1.0000
  H   H324      1.0  0.03816  0.19974  0.82102  1.0000
  S   S53       1.0  0.21884  0.02513  0.77918  1.0000
  Fe  Fe27      1.0  0.20703  0.04915  0.75601  1.0000
  S   S54       1.0  0.18750  0.07687  0.76413  1.0000
  S   S55       1.0  0.20011  0.02875  0.74104  1.0000
  Fe  Fe28      1.0  0.04785  0.16353  0.74725  1.0000
  S   S56       1.0  0.05875  0.13547  0.76667  1.0000
  S   S57       1.0  0.01815  0.17451  0.73955  1.0000
  Fe  Fe29      1.0  0.08312  0.18055  0.74485  1.0000
  S   S58       1.0  0.09690  0.15378  0.76359  1.0000
  S   S59       1.0  0.09830  0.20551  0.73870  1.0000
  Fe  Fe30      1.0  0.08779  0.13749  0.74626  1.0000
  S   S60       1.0  0.10788  0.11141  0.73535  1.0000
  Fe  Fe31      1.0  0.06706  0.15443  0.78220  1.0000
  S   S61       1.0  0.06066  0.15306  0.81458  1.0000
  S   S62       1.0  0.07632  0.16440  0.72556  1.0000
  S   S63       1.0  0.05389  0.18219  0.76452  1.0000
  Fe  Fe32      1.0  0.20478  0.29169  0.93957  1.0000
  S   S64       1.0  0.17862  0.31495  0.94630  1.0000
  C   C182      1.0  0.15464  0.31279  0.73198  1.0000
  Fe  Fe33      1.0  0.16236  0.29043  0.95625  1.0000
  S   S65       1.0  0.13365  0.29630  0.94700  1.0000
  S   S66       1.0  0.18822  0.26747  0.94769  1.0000
  Fe  Fe34      1.0  0.20575  0.33530  0.72617  1.0000
  S   S67       1.0  0.18227  0.34032  0.75249  1.0000
  S   S68       1.0  0.19712  0.33450  0.69846  1.0000
  C   C183      1.0  0.15466  0.17718  0.72635  1.0000
  S   S69       1.0  0.21702  0.33572  0.77559  1.0000
  H   H325      1.0  0.16801  0.30044  0.75695  1.0000
  Fe  Fe35      1.0  0.20171  0.31598  0.76869  1.0000
  S   S70       1.0  0.19309  0.28964  0.79008  1.0000
  Fe  Fe36      1.0  0.19993  0.35993  0.75671  1.0000
  S   S71       1.0  0.18683  0.38810  0.76761  1.0000
  S   S72       1.0  0.22424  0.30987  0.74221  1.0000
  S   S73       1.0  0.22167  0.35727  0.72878  1.0000
  Fe  Fe37      1.0  0.09547  0.26983  0.85014  1.0000
  S   S74       1.0  0.11572  0.24196  0.85923  1.0000
  S   S75       1.0  0.10426  0.29686  0.82988  1.0000
  Fe  Fe38      1.0  0.05992  0.25400  0.87400  1.0000
  S   S76       1.0  0.07722  0.22450  0.88512  1.0000
  Fe  Fe39      1.0  0.09730  0.24171  0.88925  1.0000
  S   S77       1.0  0.11349  0.23219  0.91408  1.0000
  Fe  Fe40      1.0  0.09422  0.22725  0.85425  1.0000
  S   S78       1.0  0.10780  0.20454  0.83583  1.0000
  S   S79       1.0  0.07863  0.27096  0.88060  1.0000
  S   S80       1.0  0.07527  0.25531  0.84279  1.0000
  C   C184      1.0  0.19984  0.40722  0.76042  1.0000
  C   C185      1.0  0.21692  0.40654  0.74607  1.0000
  C   C186      1.0  0.22651  0.42234  0.74005  1.0000
  H   H326      1.0  0.22264  0.39394  0.73944  1.0000
  C   C187      1.0  0.19913  0.31211  0.69174  1.0000
  C   C188      1.0  0.16816  0.29177  0.79994  1.0000
  C   C189      1.0  0.15556  0.30993  0.79838  1.0000
  C   C190      1.0  0.13578  0.31132  0.80720  1.0000
  C   C191      1.0  0.12860  0.29455  0.81748  1.0000
  C   C192      1.0  0.14111  0.27634  0.81841  1.0000
  C   C193      1.0  0.16091  0.27497  0.80985  1.0000
  H   H327      1.0  0.16108  0.32298  0.79089  1.0000
  H   H328      1.0  0.12611  0.32544  0.80642  1.0000
  H   H329      1.0  0.13561  0.26332  0.82585  1.0000
  H   H330      1.0  0.17062  0.26086  0.81100  1.0000
  H   H331      1.0  0.13681  0.24370  0.68425  1.0000
  S   S81       1.0  0.12357  0.24361  0.65013  1.0000
  C   C194      1.0  0.12759  0.27800  0.93895  1.0000
  C   C195      1.0  0.11165  0.28276  0.92981  1.0000
  C   C196      1.0  0.10699  0.26875  0.92240  1.0000
  C   C197      1.0  0.11824  0.24987  0.92410  1.0000
  C   C198      1.0  0.13391  0.24499  0.93364  1.0000
  C   C199      1.0  0.13866  0.25904  0.94095  1.0000
  H   H332      1.0  0.10296  0.29737  0.92834  1.0000
  H   H333      1.0  0.09471  0.27257  0.91533  1.0000
  H   H334      1.0  0.14253  0.23035  0.93519  1.0000
  H   H335      1.0  0.15083  0.25517  0.94816  1.0000
  H   H336      1.0  0.18329  0.36147  0.85893  1.0000
  H   H337      1.0  0.22925  0.14459  0.94587  1.0000
  H   H338      1.0  0.13754  0.15720  0.72566  1.0000
  C   C200      1.0  0.18275  0.36843  0.81856  1.0000
  H   H339      1.0  0.23539  0.42510  0.82493  1.0000
  H   H340      1.0  0.18454  0.29391  0.65976  1.0000
  C   C201      1.0  0.21071  0.29499  0.69996  1.0000
  H   H341      1.0  0.17121  0.36751  0.83194  1.0000
  C   C202      1.0  0.14572  0.27579  0.72045  1.0000
  H   H342      1.0  0.18625  0.39442  0.96805  1.0000
  S   S82       1.0  0.20766  0.25492  0.67135  1.0000
  H   H343      1.0  0.99379  0.11358  0.75276  1.0000
  C   C203      1.0  0.15251  0.48002  0.74985  1.0000
  H   H344      1.0  0.22284  0.19554  0.65836  1.0000
  C   C204      1.0  0.11594  0.23362  0.67480  1.0000
  H   H345      1.0  0.16766  0.18318  0.71793  1.0000
  H   H346      1.0  0.04196  0.26686  0.81689  1.0000
  C   C205      1.0  0.20244  0.43937  0.76317  1.0000
  H   H347      1.0  0.18263  0.29596  0.73422  1.0000
  C   C206      1.0  0.20194  0.35381  0.82116  1.0000
  H   H348      1.0  0.04552  0.22836  0.74933  1.0000
  C   C207      1.0  0.07246  0.16869  0.82041  1.0000
  C   C208      1.0  0.06788  0.17259  0.83926  1.0000
  C   C209      1.0  0.07799  0.18439  0.84404  1.0000
  C   C210      1.0  0.09318  0.19167  0.83015  1.0000
  C   C211      1.0  0.09760  0.18785  0.81135  1.0000
  C   C212      1.0  0.08694  0.17688  0.80638  1.0000
  H   H349      1.0  0.05657  0.16644  0.85018  1.0000
  H   H350      1.0  0.07455  0.18726  0.85861  1.0000
  H   H351      1.0  0.10922  0.19357  0.80051  1.0000
  H   H352      1.0  0.09025  0.17459  0.79172  1.0000
  C   C213      1.0  0.10474  0.21632  0.71410  1.0000
  H   H353      1.0  0.22378  0.19727  0.95188  1.0000
  C   C214      1.0  0.10090  0.22317  0.68059  1.0000
  C   C215      1.0  0.09546  0.21428  0.70023  1.0000
  H   H354      1.0  0.21656  0.12845  0.96456  1.0000
  H   H355      1.0  0.09368  0.22168  0.66985  1.0000
  H   H356      1.0  0.08394  0.20610  0.70468  1.0000
  C   C216      1.0  0.22755  0.31752  0.84017  1.0000
  H   H357      1.0  0.22255  0.26461  0.69952  1.0000
  C   C217      1.0  0.02800  0.20646  0.81097  1.0000
  C   C218      1.0  0.02491  0.22889  0.80632  1.0000
  H   H358      1.0  0.13868  0.19890  0.66174  1.0000
  H   H359      1.0  0.01807  0.16381  0.66722  1.0000
  H   H360      1.0  0.13133  0.28691  0.75483  1.0000
  C   C219      1.0  0.16591  0.08649  0.75518  1.0000
  C   C220      1.0  0.15586  0.10536  0.75720  1.0000
  C   C221      1.0  0.13814  0.11315  0.75105  1.0000
  C   C222      1.0  0.13028  0.10213  0.74289  1.0000
  C   C223      1.0  0.14055  0.08344  0.74045  1.0000
  C   C224      1.0  0.15830  0.07560  0.74662  1.0000
  H   H361      1.0  0.16185  0.11397  0.76351  1.0000
  H   H362      1.0  0.13077  0.12777  0.75233  1.0000
  H   H363      1.0  0.13464  0.07488  0.73399  1.0000
  H   H364      1.0  0.16591  0.06106  0.74500  1.0000
  H   H365      1.0  0.12892  0.18024  0.69645  1.0000
  C   C225      1.0  0.20377  0.27716  0.67892  1.0000
  C   C226      1.0  0.03713  0.23320  0.76302  1.0000
  H   H366      1.0  0.02391  0.26382  0.78370  1.0000
  H   H367      1.0  0.18840  0.98734  0.71036  1.0000
  C   C227      1.0  0.23025  0.18065  0.65791  1.0000
  H   H368      1.0  0.14837  0.19272  0.69147  1.0000
  C   C228      1.0  0.16780  0.29605  0.74332  1.0000
  H   H369      1.0  0.01967  0.13225  0.74851  1.0000
  Fe  Fe41      1.0  0.23795  0.33206  0.74746  1.0000
  C   C229      1.0  0.02338  0.23349  0.86717  1.0000
  H   H370      1.0  0.01283  0.23468  0.79825  1.0000
  C   C230      1.0  0.99448  0.23281  0.85642  1.0000
  C   C231      1.0  0.16395  0.26925  0.72969  1.0000
  Fe  Fe42      1.0  0.21463  0.00490  0.76242  1.0000
  C   C232      1.0  0.00578  0.17355  0.67505  1.0000
  H   H371      1.0  0.22277  0.37279  0.92747  1.0000
  H   H372      1.0  0.15951  0.32658  0.73035  1.0000
  C   C233      1.0  0.21368  0.21544  0.97331  1.0000
  H   H373      1.0  0.15296  0.14588  0.67719  1.0000
  C   C234      1.0  0.15273  0.15945  0.71935  1.0000
  H   H374      1.0  0.18061  0.17721  0.68418  1.0000
  H   H375      1.0  0.16412  0.12066  0.71528  1.0000
  H   H376      1.0  0.20793  0.24823  0.75725  1.0000
  C   C235      1.0  0.19368  0.15037  0.70054  1.0000
  C   C236      1.0  0.21322  0.27770  0.69338  1.0000
  C   C237      1.0  0.17828  0.16193  0.68831  1.0000
  H   H377      1.0  0.13737  0.26395  0.72435  1.0000
  H   H378      1.0  0.05864  0.21488  0.77929  1.0000
  H   H379      1.0  0.22406  0.37744  0.82197  1.0000
  H   H380      1.0  0.00784  0.14103  0.79161  1.0000
  H   H381      1.0  0.15559  0.11291  0.69822  1.0000
  S   S83       1.0  0.17583  0.22417  0.66334  1.0000
  H   H382      1.0  0.08586  0.23417  0.81034  1.0000
  H   H383      1.0  0.20171  0.25796  0.73388  1.0000
  C   C238      1.0  0.19902  0.26069  0.74880  1.0000
  H   H384      1.0  0.10433  0.30178  0.87560  1.0000
  H   H385      1.0  0.13713  0.17444  0.66332  1.0000
  N   N15       1.0  0.04257  0.23737  0.79555  1.0000
  C   C239      1.0  0.03643  0.25927  0.79119  1.0000
  N   N16       1.0  0.22939  0.36060  0.95625  1.0000
  C   C240      1.0  0.05764  0.23091  0.80806  1.0000
  C   C241      1.0  0.03006  0.26914  0.80903  1.0000
  H   H386      1.0  0.23241  0.11304  0.93670  1.0000
  H   H387      1.0  0.04821  0.26611  0.78078  1.0000
  H   H388      1.0  0.21276  0.35695  0.80731  1.0000
  H   H389      1.0  0.22326  0.31481  0.82760  1.0000
  H   H390      1.0  0.05137  0.23388  0.82300  1.0000
  H   H391      1.0  0.06272  0.21489  0.81037  1.0000
  H   H392      1.0  0.01914  0.23342  0.82052  1.0000
  C   C242      1.0  0.22542  0.19951  0.96553  1.0000
  Fe  Fe43      1.0  0.18479  0.30733  0.97649  1.0000
  H   H393      1.0  0.23268  0.31649  0.65982  1.0000
  H   H394      1.0  0.19424  0.43143  0.71019  1.0000
  H   H395      1.0  0.13570  0.14428  0.69966  1.0000
  N   N17       1.0  0.21002  0.35360  0.83851  1.0000
  H   H396      1.0  0.01391  0.20212  0.81846  1.0000
  C   C243      1.0  0.19524  0.34860  0.85692  1.0000
  H   H397      1.0  0.01931  0.16308  0.70082  1.0000
  H   H398      1.0  0.16510  0.45275  0.72248  1.0000
  H   H399      1.0  0.01871  0.16228  0.78551  1.0000
  H   H400      1.0  0.14152  0.18891  0.72533  1.0000
  H   H401      1.0  0.20770  0.99254  0.71873  1.0000
  H   H402      1.0  0.18811  0.33718  0.85559  1.0000
  H   H403      1.0  0.19321  0.34938  0.88742  1.0000
  C   C244      1.0  0.14550  0.18350  0.66684  1.0000
  Fe  Fe44      1.0  0.19325  0.26440  0.97780  1.0000
  H   H404      1.0  0.22047  0.41842  0.80335  1.0000
  S   S84       1.0  0.21253  0.28626  0.96878  1.0000
  H   H405      1.0  0.17950  0.42428  0.78013  1.0000
  Fe  Fe45      1.0  0.23043  0.02912  0.72337  1.0000
  S   S85       1.0  0.23799  0.02808  0.69154  1.0000
  S   S86       1.0  0.02738  0.26422  0.88039  1.0000
  C   C245      1.0  0.00042  0.16025  0.74410  1.0000
  H   H406      1.0  0.23202  0.44641  0.78420  1.0000
  H   H407      1.0  0.17640  0.27373  0.71822  1.0000
  H   H408      1.0  0.20915  0.44885  0.70582  1.0000
  C   C246      1.0  0.19437  0.44727  0.70559  1.0000
  H   H409      1.0  0.17781  0.12156  0.69041  1.0000
  N   N18       1.0  0.11753  0.10678  0.81591  1.0000
  C   C247      1.0  0.09883  0.10250  0.81397  1.0000
  C   C248      1.0  0.11580  0.10632  0.83723  1.0000
  C   C249      1.0  0.13388  0.09064  0.80959  1.0000
  C   C250      1.0  0.12014  0.12631  0.80309  1.0000
  C   C251      1.0  0.09815  0.09975  0.79370  1.0000
  C   C252      1.0  0.09905  0.12152  0.84607  1.0000
  C   C253      1.0  0.15450  0.09141  0.81091  1.0000
  C   C254      1.0  0.13382  0.13701  0.80784  1.0000
  H   H410      1.0  0.09535  0.08913  0.82466  1.0000
  H   H411      1.0  0.08630  0.11446  0.81743  1.0000
  H   H412      1.0  0.12926  0.10836  0.84027  1.0000
  H   H413      1.0  0.11382  0.09167  0.84611  1.0000
  H   H414      1.0  0.13086  0.07620  0.81815  1.0000
  H   H415      1.0  0.13508  0.09030  0.79407  1.0000
  H   H416      1.0  0.12546  0.12490  0.78761  1.0000
  H   H417      1.0  0.10581  0.13657  0.80362  1.0000
  H   H418      1.0  0.10715  0.08565  0.79050  1.0000
  H   H419      1.0  0.08297  0.09951  0.79345  1.0000
  H   H420      1.0  0.10257  0.11181  0.78185  1.0000
  H   H421      1.0  0.10047  0.12128  0.86104  1.0000
  H   H422      1.0  0.09939  0.13652  0.83761  1.0000
  H   H423      1.0  0.08459  0.11820  0.84743  1.0000
  H   H424      1.0  0.15579  0.09133  0.82583  1.0000
  H   H425      1.0  0.15980  0.10390  0.80029  1.0000
  H   H426      1.0  0.16466  0.07816  0.80667  1.0000
  H   H427      1.0  0.14281  0.14353  0.79398  1.0000
  H   H428      1.0  0.14403  0.12793  0.81710  1.0000
  H   H429      1.0  0.12524  0.14950  0.81463  1.0000
  N   N19       1.0  0.15456  0.28191  0.86964  1.0000
  C   C255      1.0  0.16486  0.26229  0.86481  1.0000
  C   C256      1.0  0.16104  0.29722  0.85241  1.0000
  C   C257      1.0  0.13299  0.28313  0.87228  1.0000
  C   C258      1.0  0.15971  0.28312  0.88816  1.0000
  C   C259      1.0  0.15901  0.24433  0.87987  1.0000
  C   C260      1.0  0.18301  0.29715  0.84708  1.0000
  C   C261      1.0  0.11973  0.30349  0.87148  1.0000
  C   C262      1.0  0.15496  0.30322  0.89382  1.0000
  H   H430      1.0  0.16252  0.26116  0.85054  1.0000
  H   H431      1.0  0.18086  0.26022  0.86320  1.0000
  H   H432      1.0  0.15341  0.31214  0.85424  1.0000
  C   C263      1.0  0.17876  0.45816  0.72017  1.0000
  H   H433      1.0  0.13003  0.27715  0.86083  1.0000
  H   H434      1.0  0.12738  0.27389  0.88631  1.0000
  H   H435      1.0  0.15217  0.27354  0.90084  1.0000
  H   H436      1.0  0.17539  0.27692  0.88828  1.0000
  H   H437      1.0  0.16193  0.24347  0.89439  1.0000
  H   H438      1.0  0.14358  0.24387  0.88137  1.0000
  H   H439      1.0  0.16770  0.23090  0.87478  1.0000
  H   H440      1.0  0.19139  0.28452  0.84044  1.0000
  C   C264      1.0  0.22324  0.16920  0.64945  1.0000
  H   H441      1.0  0.00092  0.18516  0.70178  1.0000
  H   H442      1.0  0.12166  0.31146  0.88172  1.0000
  N   N20       1.0  0.15720  0.16117  0.69753  1.0000
  H   H443      1.0  0.12165  0.31241  0.85645  1.0000
  H   H444      1.0  0.14030  0.30579  0.90331  1.0000
  H   H445      1.0  0.15619  0.31568  0.88144  1.0000
  H   H446      1.0  0.16562  0.30351  0.90232  1.0000
  H   H447      1.0  0.19641  0.35309  0.94582  1.0000
  H   H448      1.0  0.20037  0.38490  0.83558  1.0000
  H   H449      1.0  0.21514  0.33119  0.94639  1.0000
  H   H450      1.0  0.08465  0.23459  0.78614  1.0000
  C   C265      1.0  0.07618  0.23955  0.79969  1.0000
  C   C266      1.0  0.05130  0.23051  0.77660  1.0000
  H   H451      1.0  0.22556  0.39209  0.84771  1.0000
  H   H452      1.0  0.19192  0.45201  0.69050  1.0000
  H   H453      1.0  0.23016  0.45084  0.81691  1.0000
  C   C267      1.0  0.20266  0.34112  0.87628  1.0000
  C   C268      1.0  0.00490  0.13986  0.74788  1.0000
  H   H454      1.0  0.20142  0.32567  0.88233  1.0000
  H   H455      1.0  0.13590  0.28942  0.72373  1.0000
  H   H456      1.0  0.07309  0.25565  0.79721  1.0000
  H   H457      1.0  0.00576  0.13645  0.68770  1.0000
  C   C269      1.0  0.99903  0.15907  0.81431  1.0000
  H   H458      1.0  0.15685  0.29561  0.83931  1.0000
  H   H459      1.0  0.16240  0.46806  0.68628  1.0000
  H   H460      1.0  0.15568  0.17285  0.74196  1.0000
  H   H461      1.0  0.19668  0.45199  0.76977  1.0000
  H   H462      1.0  0.16202  0.14644  0.72663  1.0000
  H   H463      1.0  0.18511  0.38360  0.81311  1.0000
  C   C270      1.0  0.19183  0.29415  0.67096  1.0000
  H   H464      1.0  0.23889  0.38783  0.94290  1.0000
  H   H465      1.0  0.21173  0.37670  0.86618  1.0000
  H   H466      1.0  0.18371  0.45222  0.73416  1.0000
  C   C271      1.0  0.16306  0.12388  0.69981  1.0000
  H   H467      1.0  0.00648  0.16906  0.81787  1.0000
  C   C272      1.0  0.23629  0.34070  0.96792  1.0000
  N   N21       1.0  0.17495  0.48027  0.71560  1.0000
  N   N22       1.0  0.16275  0.27617  0.74805  1.0000
  H   H468      1.0  0.18557  0.31032  0.83575  1.0000
  C   C273      1.0  0.23277  0.14987  0.64910  1.0000
  H   H469      1.0  0.17707  0.36502  0.80720  1.0000
  C   C274      1.0  0.21394  0.37365  0.83613  1.0000
  C   C275      1.0  0.14448  0.17974  0.68902  1.0000
  H   H470      1.0  0.12084  0.25964  0.77649  1.0000
  H   H471      1.0  0.18252  0.15674  0.67431  1.0000
  H   H472      1.0  0.21769  0.34239  0.87540  1.0000
  C   C276      1.0  0.12531  0.23549  0.68866  1.0000
  C   C277      1.0  0.18969  0.31162  0.67723  1.0000
  H   H473      1.0  0.21809  0.29510  0.71109  1.0000
  C   C278      1.0  0.19269  0.42366  0.76901  1.0000
  H   H474      1.0  0.18868  0.29743  0.85981  1.0000
  C   C279      1.0  0.99665  0.26135  0.86677  1.0000
  H   H475      1.0  0.20443  0.27381  0.74849  1.0000
  H   H476      1.0  0.15055  0.27825  0.70431  1.0000
  H   H477      1.0  0.15618  0.31080  0.71694  1.0000
  C   C280      1.0  0.21925  0.43886  0.74845  1.0000
  H   H478      1.0  0.23876  0.34257  0.82296  1.0000
  H   H479      1.0  0.14431  0.24801  0.78133  1.0000
  H   H480      1.0  0.14277  0.28278  0.77448  1.0000
  H   H481      1.0  0.17603  0.26595  0.77341  1.0000
  H   H482      1.0  0.13873  0.24875  0.75810  1.0000
  C   C281      1.0  0.17743  0.26217  0.75911  1.0000
  H   H483      1.0  0.19276  0.13488  0.70611  1.0000
  C   C282      1.0  0.13659  0.25705  0.76965  1.0000
  H   H484      1.0  0.13921  0.31501  0.73965  1.0000
  H   H485      1.0  0.17477  0.24708  0.76257  1.0000
  H   H486      1.0  0.18076  0.32482  0.67073  1.0000
  C   C283      1.0  0.14308  0.27679  0.76163  1.0000
  C   C284      1.0  0.15139  0.14439  0.69313  1.0000
  H   H487      1.0  0.16709  0.25301  0.73254  1.0000
  C   C285      1.0  0.11953  0.22707  0.70833  1.0000
  H   H488      1.0  0.20822  0.40091  0.95314  1.0000
  H   H489      1.0  0.20841  0.15070  0.69122  1.0000
  H   H490      1.0  0.19566  0.01034  0.70152  1.0000
  H   H491      1.0  0.02433  0.18571  0.68621  1.0000
  H   H492      1.0  0.20483  0.48281  0.71205  1.0000
  H   H493      1.0  0.19903  0.33931  0.82178  1.0000
  H   H494      1.0  0.22785  0.99568  0.68444  1.0000
  C   C286      1.0  0.23481  0.41527  0.79344  1.0000
  H   H495      1.0  0.21760  0.31253  0.85391  1.0000
  H   H496      1.0  0.02666  0.14158  0.80302  1.0000
  H   H497      1.0  0.03006  0.24866  0.75881  1.0000
  C   C287      1.0  0.21114  0.34644  0.93863  1.0000
  H   H498      1.0  0.02577  0.28512  0.80392  1.0000
  C   C288      1.0  0.01275  0.17699  0.69208  1.0000
  H   H499      1.0  0.16065  0.18122  0.65836  1.0000
  H   H500      1.0  0.01930  0.20908  0.85787  1.0000
  H   H501      1.0  0.20283  0.22537  0.96578  1.0000
  H   H502      1.0  0.99450  0.14749  0.70813  1.0000
  H   H503      1.0  0.03320  0.20019  0.79771  1.0000
  C   C289      1.0  0.21610  0.98718  0.68860  1.0000
  C   C290      1.0  0.01359  0.15056  0.79749  1.0000
  Fe  Fe46      1.0  0.19290  0.24813  0.65042  1.0000
  C   C291      1.0  0.22238  0.37718  0.85213  1.0000
  S   S87       1.0  0.23142  0.45862  0.73994  1.0000
  H   H504      1.0  0.00422  0.18761  0.66456  1.0000
  H   H505      1.0  0.99532  0.15041  0.65647  1.0000
  H   H506      1.0  0.20863  0.99190  0.67605  1.0000
  C   C292      1.0  0.22652  0.35836  0.93712  1.0000
  C   C293      1.0  0.01295  0.22370  0.86031  1.0000
  H   H507      1.0  0.23743  0.33945  0.84793  1.0000
  H   H508      1.0  0.21030  0.34579  0.92371  1.0000
  H   H509      1.0  0.19290  0.15706  0.71295  1.0000
  H   H510      1.0  0.99802  0.14685  0.82722  1.0000
  H   H511      1.0  0.01720  0.26435  0.81943  1.0000
  C   C294      1.0  0.20114  0.99444  0.70595  1.0000
  H   H512      1.0  0.18266  0.48216  0.74195  1.0000
  H   H513      1.0  0.06305  0.23835  0.76780  1.0000
  S   S88       1.0  0.22452  0.29661  0.90999  1.0000
  C   C295      1.0  0.22902  0.33897  0.83738  1.0000
  H   H514      1.0  0.23959  0.42176  0.72877  1.0000
  H   H515      1.0  0.22421  0.33256  0.97357  1.0000
  H   H516      1.0  0.02593  0.22415  0.76946  1.0000
  C   C296      1.0  0.23133  0.13073  0.95659  1.0000
  S   S89       1.0  0.23658  0.05109  0.73669  1.0000
  H   H517      1.0  0.22812  0.25199  0.92424  1.0000
  C   C297      1.0  0.19964  0.38926  0.95767  1.0000
  H   H518      1.0  0.15408  0.46396  0.75327  1.0000
  H   H519      1.0  0.23230  0.41087  0.78084  1.0000
  C   C298      1.0  0.99203  0.14562  0.69423  1.0000
  H   H520      1.0  0.19480  0.38748  0.94501  1.0000
  C   C299      1.0  0.21065  0.36991  0.96810  1.0000
  H   H521      1.0  0.14481  0.48282  0.71456  1.0000
  C   C300      1.0  0.23969  0.18688  0.97510  1.0000
  H   H522      1.0  0.23899  0.23120  0.93984  1.0000
  H   H523      1.0  0.23864  0.31977  0.69107  1.0000
  H   H524      1.0  0.23888  0.13205  0.96756  1.0000
  H   H525      1.0  0.20028  0.35982  0.97365  1.0000
  C   C301      1.0  0.16081  0.48386  0.68536  1.0000
  H   H526      1.0  0.19890  0.48156  0.69025  1.0000
  H   H527      1.0  0.23973  0.35045  0.68718  1.0000
  H   H528      1.0  0.23985  0.44102  0.84841  1.0000
  H   H529      1.0  0.15157  0.48448  0.76372  1.0000
  Fe  Fe47      1.0  0.22110  0.48513  0.75372  1.0000
  H   H530      1.0  0.24072  0.33850  0.65701  1.0000
  H   H531      1.0  0.24036  0.35107  0.92878  1.0000
  C   C302      1.0  0.15374  0.62957  0.10885  1.0000
  S   S90       1.0  0.08313  0.69670  0.27349  1.0000
  C   C303      1.0  0.23192  0.74833  0.05246  1.0000
  H   H532      1.0  0.19259  0.68892  0.00331  1.0000
  H   H533      1.0  0.02006  0.74652  0.27441  1.0000
  H   H534      1.0  0.04605  0.74798  0.30712  1.0000
  N   N23       1.0  0.01619  0.72355  0.26210  1.0000
  H   H535      1.0  0.15366  0.63651  0.30758  1.0000
  H   H536      1.0  0.14519  0.69296  0.06948  1.0000
  H   H537      1.0  0.20699  0.61693  0.02296  1.0000
  H   H538      1.0  0.12048  0.67259  0.12066  1.0000
  H   H539      1.0  0.14238  0.58231  0.25547  1.0000
  H   H540      1.0  0.17686  0.67527  0.18765  1.0000
  C   C304      1.0  0.12201  0.60833  0.26188  1.0000
  S   S91       1.0  0.21481  0.63407  0.08546  1.0000
  S   S92       1.0  0.18647  0.63484  0.13831  1.0000
  N   N24       1.0  0.14645  0.66361  0.08690  1.0000
  S   S93       1.0  0.13045  0.75444  0.28239  1.0000
  H   H541      1.0  0.13594  0.73363  0.25112  1.0000
  Fe  Fe48      1.0  0.06150  0.67419  0.22604  1.0000
  S   S94       1.0  0.07508  0.70009  0.22112  1.0000
  S   S95       1.0  0.02882  0.67988  0.23056  1.0000
  Fe  Fe49      1.0  0.09906  0.64567  0.23319  1.0000
  S   S96       1.0  0.11539  0.66919  0.22954  1.0000
  S   S97       1.0  0.11493  0.61463  0.23929  1.0000
  Fe  Fe50      1.0  0.08808  0.68405  0.24696  1.0000
  H   H542      1.0  0.15563  0.67889  0.04391  1.0000
  Fe  Fe51      1.0  0.10098  0.68285  0.20399  1.0000
  S   S98       1.0  0.11905  0.69666  0.17633  1.0000
  S   S99       1.0  0.07300  0.65914  0.25305  1.0000
  S   S100      1.0  0.08622  0.65827  0.20644  1.0000
  H   H543      1.0  0.16756  0.68223  0.07712  1.0000
  H   H544      1.0  0.23449  0.67963  0.99899  1.0000
  C   C305      1.0  0.11184  0.71865  0.25913  1.0000
  H   H545      1.0  0.11713  0.71078  0.24734  1.0000
  C   C306      1.0  0.16775  0.65219  0.14862  1.0000
  C   C307      1.0  0.15147  0.64618  0.16168  1.0000
  C   C308      1.0  0.13652  0.65977  0.17033  1.0000
  C   C309      1.0  0.13765  0.67946  0.16570  1.0000
  C   C310      1.0  0.15390  0.68547  0.15256  1.0000
  C   C311      1.0  0.16904  0.67181  0.14422  1.0000
  H   H546      1.0  0.15042  0.63099  0.16520  1.0000
  H   H547      1.0  0.12407  0.65500  0.18049  1.0000
  H   H548      1.0  0.15492  0.70067  0.14912  1.0000
  H   H549      1.0  0.18181  0.67649  0.13468  1.0000
  H   H550      1.0  0.11070  0.65199  0.12067  1.0000
  C   C312      1.0  0.23563  0.91555  0.29387  1.0000
  H   H551      1.0  0.12133  0.65215  0.08812  1.0000
  H   H552      1.0  0.10287  0.63301  0.27259  1.0000
  C   C313      1.0  0.09501  0.71515  0.27301  1.0000
  C   C314      1.0  0.20291  0.64411  0.03201  1.0000
  H   H553      1.0  0.06936  0.85179  0.27798  1.0000
  H   H554      1.0  0.13876  0.62791  0.10979  1.0000
  H   H555      1.0  0.04075  0.57208  0.28689  1.0000
  S   S101      1.0  0.19764  0.67913  0.04288  1.0000
  H   H556      1.0  0.03801  0.69011  0.29876  1.0000
  C   C315      1.0  0.01248  0.63743  0.27236  1.0000
  S   S102      1.0  0.23653  0.56557  0.30650  1.0000
  C   C316      1.0  0.01634  0.66910  0.21964  1.0000
  C   C317      1.0  0.02604  0.65799  0.20550  1.0000
  C   C318      1.0  0.01546  0.64887  0.19790  1.0000
  C   C319      1.0  0.14144  0.58613  0.28433  1.0000
  H   H557      1.0  0.10074  0.81207  0.30773  1.0000
  H   H558      1.0  0.04163  0.65637  0.20048  1.0000
  H   H559      1.0  0.02294  0.64022  0.18702  1.0000
  C   C320      1.0  0.20128  0.64143  0.99964  1.0000
  C   C321      1.0  0.20392  0.63265  0.01866  1.0000
  H   H560      1.0  0.21651  0.64931  0.21127  1.0000
  C   C322      1.0  0.19894  0.66442  0.02648  1.0000
  C   C323      1.0  0.19584  0.67321  0.00762  1.0000
  H   H561      1.0  0.99820  0.63432  0.28119  1.0000
  H   H562      1.0  0.11945  0.65871  0.28773  1.0000
  Fe  Fe52      1.0  0.21150  0.66492  0.06881  1.0000
  Fe  Fe53      1.0  0.20722  0.64731  0.11205  1.0000
  H   H563      1.0  0.03554  0.75563  0.24247  1.0000
  H   H564      1.0  0.16509  0.64202  0.22144  1.0000
  H   H565      1.0  0.22239  0.63026  0.23052  1.0000
  H   H566      1.0  0.24024  0.67476  0.02288  1.0000
  H   H567      1.0  0.11786  0.67794  0.08114  1.0000
  C   C324      1.0  0.03189  0.70990  0.27203  1.0000
  C   C325      1.0  0.23075  0.76833  0.00847  1.0000
  C   C326      1.0  0.09299  0.79743  0.28808  1.0000
  H   H568      1.0  0.12011  0.80410  0.28911  1.0000
  C   C327      1.0  0.99527  0.65064  0.20465  1.0000
  H   H569      1.0  0.07202  0.82479  0.26657  1.0000
  C   C328      1.0  0.14815  0.65357  0.27043  1.0000
  H   H570      1.0  0.05198  0.62704  0.26488  1.0000
  H   H571      1.0  0.23368  0.73764  0.06625  1.0000
  C   C329      1.0  0.17232  0.64685  0.20600  1.0000
  C   C330      1.0  0.16987  0.60604  0.21113  1.0000
  H   H572      1.0  0.04850  0.84740  0.29617  1.0000
  H   H573      1.0  0.15944  0.67652  0.20981  1.0000
  C   C331      1.0  0.06993  0.78563  0.26603  1.0000
  H   H574      1.0  0.04267  0.63847  0.24335  1.0000
  H   H575      1.0  0.03941  0.69795  0.26395  1.0000
  H   H576      1.0  0.01969  0.71103  0.30309  1.0000
  H   H577      1.0  0.21869  0.58685  0.24243  1.0000
  H   H578      1.0  0.16749  0.59382  0.20595  1.0000
  C   C332      1.0  0.13246  0.66542  0.28416  1.0000
  H   H579      1.0  0.14235  0.65415  0.25747  1.0000
  H   H580      1.0  0.16159  0.65957  0.26498  1.0000
  H   H581      1.0  0.15167  0.63793  0.27733  1.0000
  Fe  Fe54      1.0  0.23259  0.67694  0.09384  1.0000
  H   H582      1.0  0.02302  0.60376  0.24348  1.0000
  H   H583      1.0  0.16165  0.64741  0.19713  1.0000
  H   H584      1.0  0.19554  0.64741  0.17024  1.0000
  C   C333      1.0  0.99380  0.61408  0.25760  1.0000
  C   C334      1.0  0.09848  0.73861  0.28984  1.0000
  H   H585      1.0  0.19728  0.73581  0.06520  1.0000
  H   H586      1.0  0.07510  0.72295  0.29874  1.0000
  H   H587      1.0  0.99183  0.60335  0.27153  1.0000
  H   H588      1.0  0.03785  0.60350  0.28923  1.0000
  H   H589      1.0  0.00902  0.64975  0.26019  1.0000
  H   H590      1.0  0.21311  0.61171  0.21445  1.0000
  H   H591      1.0  0.19507  0.71270  0.06255  1.0000
  C   C335      1.0  0.11363  0.61997  0.27576  1.0000
  H   H592      1.0  0.04332  0.71760  0.27207  1.0000
  C   C336      1.0  0.14936  0.66560  0.04998  1.0000
  H   H593      1.0  0.21668  0.88900  0.28684  1.0000
  C   C337      1.0  0.13280  0.59763  0.29833  1.0000
  C   C338      1.0  0.12469  0.66515  0.09116  1.0000
  H   H594      1.0  0.22667  0.53619  0.26287  1.0000
  H   H595      1.0  0.15192  0.63969  0.07189  1.0000
  C   C339      1.0  0.12194  0.68027  0.31297  1.0000
  C   C340      1.0  0.04447  0.62462  0.25437  1.0000
  H   H596      1.0  0.17430  0.59976  0.22534  1.0000
  H   H597      1.0  0.06772  0.79972  0.25559  1.0000
  C   C341      1.0  0.22175  0.75109  0.02143  1.0000
  C   C342      1.0  0.02548  0.72974  0.24096  1.0000
  C   C343      1.0  0.06330  0.78793  0.28749  1.0000
  C   C344      1.0  0.06361  0.84049  0.29011  1.0000
  C   C345      1.0  0.11359  0.66646  0.11228  1.0000
  H   H598      1.0  0.15084  0.70896  0.09281  1.0000
  C   C346      1.0  0.08815  0.72550  0.28807  1.0000
  C   C347      1.0  0.05927  0.60938  0.24382  1.0000
  H   H599      1.0  0.22253  0.86391  0.29808  1.0000
  H   H600      1.0  0.22175  0.77596  0.99740  1.0000
  H   H601      1.0  0.11166  0.62312  0.30497  1.0000
  H   H602      1.0  0.17162  0.65119  0.10008  1.0000
  C   C348      1.0  0.12242  0.73160  0.26123  1.0000
  H   H603      1.0  0.05376  0.60556  0.23265  1.0000
  H   H604      1.0  0.01467  0.73842  0.23210  1.0000
  C   C349      1.0  0.13591  0.59139  0.26617  1.0000
  C   C350      1.0  0.19729  0.66174  0.99412  1.0000
  H   H605      1.0  0.00952  0.65616  0.29255  1.0000
  C   C351      1.0  0.02110  0.64534  0.28547  1.0000
  H   H606      1.0  0.12878  0.70018  0.10143  1.0000
  H   H607      1.0  0.01274  0.60342  0.29251  1.0000
  C   C352      1.0  0.10434  0.81070  0.29229  1.0000
  H   H608      1.0  0.13336  0.66938  0.05141  1.0000
  C   C353      1.0  0.14483  0.69544  0.09812  1.0000
  C   C354      1.0  0.22222  0.72095  0.04574  1.0000
  S   S103      1.0  0.20116  0.67807  0.09539  1.0000
  C   C355      1.0  0.20367  0.64186  0.18227  1.0000
  C   C356      1.0  0.15153  0.68350  0.08195  1.0000
  C   C357      1.0  0.15694  0.69368  0.28344  1.0000
  C   C358      1.0  0.02669  0.60272  0.28152  1.0000
  H   H609      1.0  0.15011  0.65682  0.11704  1.0000
  C   C359      1.0  0.15578  0.65109  0.10348  1.0000
  H   H610      1.0  0.15031  0.68777  0.11153  1.0000
  H   H611      1.0  0.22888  0.71104  0.05779  1.0000
  C   C360      1.0  0.15549  0.65431  0.06934  1.0000
  H   H612      1.0  0.17122  0.69771  0.28146  1.0000
  C   C361      1.0  0.06360  0.82271  0.28188  1.0000
  H   H613      1.0  0.07230  0.61567  0.23593  1.0000
  H   H614      1.0  0.06453  0.59623  0.25432  1.0000
  N   N25       1.0  0.02486  0.61978  0.26458  1.0000
  C   C362      1.0  0.01509  0.61654  0.24995  1.0000
  H   H615      1.0  0.07247  0.83755  0.30124  1.0000
  H   H616      1.0  0.09902  0.67598  0.11178  1.0000
  H   H617      1.0  0.99375  0.77094  0.26782  1.0000
  N   N26       1.0  0.07109  0.80277  0.29311  1.0000
  H   H618      1.0  0.00053  0.73557  0.28739  1.0000
  H   H619      1.0  0.15750  0.62282  0.12335  1.0000
  H   H620      1.0  0.09319  0.74661  0.30137  1.0000
  H   H621      1.0  0.11865  0.69459  0.30302  1.0000
  H   H622      1.0  0.18034  0.62027  0.18172  1.0000
  H   H623      1.0  0.16412  0.62116  0.09831  1.0000
  H   H624      1.0  0.19164  0.73293  0.04309  1.0000
  H   H625      1.0  0.17168  0.65176  0.06665  1.0000
  H   H626      1.0  0.08532  0.77788  0.26284  1.0000
  H   H627      1.0  0.00672  0.69680  0.26385  1.0000
  H   H628      1.0  0.09837  0.79737  0.27229  1.0000
  H   H629      1.0  0.15970  0.67614  0.31148  1.0000
  H   H630      1.0  0.15532  0.65626  0.03892  1.0000
  C   C363      1.0  0.02524  0.70020  0.29355  1.0000
  C   C364      1.0  0.20136  0.62454  0.21718  1.0000
  H   H631      1.0  0.23217  0.62271  0.18558  1.0000
  C   C365      1.0  0.00044  0.71248  0.26408  1.0000
  N   N27       1.0  0.19094  0.63256  0.20042  1.0000
  H   H632      1.0  0.01808  0.57617  0.28012  1.0000
  H   H633      1.0  0.20683  0.75779  0.02827  1.0000
  C   C366      1.0  0.22590  0.57893  0.27082  1.0000
  H   H634      1.0  0.19140  0.61847  0.23051  1.0000
  C   C367      1.0  0.22999  0.58472  0.25043  1.0000
  H   H635      1.0  0.03276  0.65325  0.27672  1.0000
  H   H636      1.0  0.21974  0.91586  0.29838  1.0000
  H   H637      1.0  0.01419  0.69138  0.29543  1.0000
  H   H638      1.0  0.23311  0.50818  0.28624  1.0000
  H   H639      1.0  0.21738  0.75784  0.05601  1.0000
  C   C368      1.0  0.17376  0.66829  0.20336  1.0000
  H   H640      1.0  0.01514  0.62896  0.23728  1.0000
  H   H641      1.0  0.04828  0.82393  0.28078  1.0000
  C   C369      1.0  0.11603  0.74104  0.27709  1.0000
  H   H642      1.0  0.04649  0.74600  0.22095  1.0000
  H   H643      1.0  0.15210  0.57301  0.28759  1.0000
  H   H644      1.0  0.20522  0.63719  0.04654  1.0000
  H   H645      1.0  0.14568  0.70562  0.28896  1.0000
  C   C370      1.0  0.99613  0.67115  0.22605  1.0000
  N   N28       1.0  0.23251  0.73785  0.03670  1.0000
  H   H646      1.0  0.09806  0.78235  0.29588  1.0000
  C   C371      1.0  0.11877  0.61445  0.29406  1.0000
  C   C372      1.0  0.18560  0.61567  0.19567  1.0000
  C   C373      1.0  0.03152  0.58209  0.27689  1.0000
  H   H647      1.0  0.22046  0.61673  0.16904  1.0000
  H   H648      1.0  0.23017  0.91575  0.26605  1.0000
  H   H649      1.0  0.06117  0.77634  0.26339  1.0000
  N   N29       1.0  0.13801  0.66649  0.30252  1.0000
  C   C374      1.0  0.21002  0.63873  0.22350  1.0000
  H   H650      1.0  0.10251  0.82525  0.28250  1.0000
  H   H651      1.0  0.23742  0.93004  0.29484  1.0000
  C   C375      1.0  0.22294  0.62869  0.17452  1.0000
  C   C376      1.0  0.20031  0.72626  0.05457  1.0000
  H   H652      1.0  0.05421  0.73357  0.24303  1.0000
  C   C377      1.0  0.04128  0.74191  0.23697  1.0000
  H   H653      1.0  0.16926  0.66315  0.29230  1.0000
  H   H654      1.0  0.20761  0.65496  0.18418  1.0000
  H   H655      1.0  0.21974  0.74253  0.01156  1.0000
  H   H656      1.0  0.21141  0.57717  0.27835  1.0000
  H   H657      1.0  0.04712  0.79132  0.29040  1.0000
  S   S104      1.0  0.18761  0.55241  0.30293  1.0000
  H   H658      1.0  0.03213  0.71674  0.23429  1.0000
  H   H659      1.0  0.15528  0.69304  0.26885  1.0000
  H   H660      1.0  0.02656  0.63377  0.29721  1.0000
  H   H661      1.0  0.18470  0.67003  0.21061  1.0000
  H   H662      1.0  0.06742  0.77327  0.29651  1.0000
  C   C378      1.0  0.15659  0.67400  0.29797  1.0000
  H   H663      1.0  0.12797  0.68023  0.27553  1.0000
  S   S105      1.0  0.23802  0.64726  0.11282  1.0000
  H   H664      1.0  0.19855  0.60377  0.19334  1.0000
  H   H665      1.0  0.03956  0.58092  0.26195  1.0000
  H   H666      1.0  0.24038  0.89116  0.24813  1.0000
  C   C379      1.0  0.00825  0.74052  0.27224  1.0000
  H   H667      1.0  0.15559  0.61620  0.21329  1.0000
  S   S106      1.0  0.20347  0.62670  0.98301  1.0000
  H   H668      1.0  0.22374  0.71188  0.03486  1.0000
  C   C380      1.0  0.22704  0.87514  0.28512  1.0000
  H   H669      1.0  0.23888  0.65087  0.99179  1.0000
  H   H670      1.0  0.99611  0.71575  0.23435  1.0000
  H   H671      1.0  0.19901  0.64653  0.23416  1.0000
  H   H672      1.0  0.23137  0.63752  0.16189  1.0000
  S   S107      1.0  0.19374  0.49590  0.31320  1.0000
  C   C381      1.0  0.99355  0.75753  0.26313  1.0000
  H   H673      1.0  0.23046  0.77919  0.01694  1.0000
  H   H674      1.0  0.23666  0.52596  0.29676  1.0000
  H   H675      1.0  0.22556  0.87039  0.27226  1.0000
  H   H676      1.0  0.99719  0.76116  0.24705  1.0000
  H   H677      1.0  0.23899  0.51657  0.25005  1.0000
  H   H678      1.0  0.09599  0.67159  0.30977  1.0000
  H   H679      1.0  0.24015  0.54127  0.23850  1.0000
  C   C382      1.0  0.23998  0.53064  0.25262  1.0000
  H   H680      1.0  0.24054  0.77454  0.05408  1.0000
  C   C383      1.0  0.24061  0.57527  0.28130  1.0000
  S   S108      1.0  0.00456  0.75771  0.31378  1.0000
  H   H681      1.0  0.21587  0.66113  0.55911  1.0000
  Fe  Fe55      1.0  0.18717  0.64602  0.60142  1.0000
  H   H682      1.0  0.12653  0.68359  0.32511  1.0000
  H   H683      1.0  0.23069  0.70046  0.64267  1.0000
  C   C384      1.0  0.18023  0.71487  0.37428  1.0000
  S   S109      1.0  0.19116  0.67136  0.61151  1.0000
  C   C385      1.0  0.22091  0.66166  0.52168  1.0000
  H   H684      1.0  0.17664  0.83478  0.64502  1.0000
  H   H685      1.0  0.02782  0.70744  0.40654  1.0000
  Fe  Fe56      1.0  0.18277  0.54216  0.35913  1.0000
  S   S110      1.0  0.18473  0.57168  0.34057  1.0000
  S   S111      1.0  0.17867  0.53635  0.39188  1.0000
  H   H686      1.0  0.21465  0.93729  0.41416  1.0000
  C   C386      1.0  0.06451  0.80074  0.31495  1.0000
  H   H687      1.0  0.06945  0.74648  0.32758  1.0000
  C   C387      1.0  0.02076  0.75625  0.32870  1.0000
  S   S112      1.0  0.16042  0.53708  0.34549  1.0000
  Fe  Fe57      1.0  0.20797  0.89358  0.36480  1.0000
  H   H688      1.0  0.05422  0.67273  0.37625  1.0000
  S   S113      1.0  0.20018  0.92647  0.35556  1.0000
  Fe  Fe58      1.0  0.20704  0.85469  0.35537  1.0000
  C   C388      1.0  0.23175  0.65467  0.50259  1.0000
  S   S114      1.0  0.19655  0.84100  0.33597  1.0000
  Fe  Fe59      1.0  0.21180  0.85605  0.39523  1.0000
  H   H689      1.0  0.22748  0.79507  0.38036  1.0000
  H   H690      1.0  0.17232  0.61276  0.40202  1.0000
  S   S115      1.0  0.18850  0.87164  0.37802  1.0000
  H   H691      1.0  0.99946  0.73087  0.37937  1.0000
  Fe  Fe60      1.0  0.17894  0.63653  0.44960  1.0000
  S   S116      1.0  0.20504  0.63465  0.42523  1.0000
  S   S117      1.0  0.14921  0.65242  0.44400  1.0000
  Fe  Fe61      1.0  0.20232  0.61432  0.48022  1.0000
  H   H692      1.0  0.03531  0.79374  0.32123  1.0000
  S   S118      1.0  0.20525  0.60156  0.51139  1.0000
  H   H693      1.0  0.07019  0.78568  0.32249  1.0000
  H   H694      1.0  0.04109  0.71880  0.35422  1.0000
  Fe  Fe62      1.0  0.21247  0.60350  0.44015  1.0000
  H   H695      1.0  0.21112  0.77509  0.37133  1.0000
  S   S119      1.0  0.19359  0.64628  0.46829  1.0000
  S   S120      1.0  0.18531  0.60472  0.46353  1.0000
  Fe  Fe63      1.0  0.13532  0.75867  0.35092  1.0000
  S   S121      1.0  0.11858  0.73648  0.37120  1.0000
  S   S122      1.0  0.14975  0.77169  0.36775  1.0000
  C   C389      1.0  0.02545  0.71370  0.39139  1.0000
  S   S123      1.0  0.10947  0.72729  0.33304  1.0000
  C   C390      1.0  0.14500  0.64468  0.33526  1.0000
  Fe  Fe64      1.0  0.09610  0.74860  0.35264  1.0000
  Fe  Fe65      1.0  0.13335  0.71751  0.34952  1.0000
  S   S124      1.0  0.14683  0.68571  0.35519  1.0000
  H   H696      1.0  0.19220  0.69178  0.56371  1.0000
  S   S125      1.0  0.15158  0.73858  0.33036  1.0000
  C   C391      1.0  0.14794  0.66093  0.41934  1.0000
  C   C392      1.0  0.13217  0.67534  0.41409  1.0000
  C   C393      1.0  0.13170  0.68312  0.39434  1.0000
  C   C394      1.0  0.14691  0.67630  0.37988  1.0000
  C   C395      1.0  0.16233  0.66155  0.38512  1.0000
  C   C396      1.0  0.16278  0.65385  0.40479  1.0000
  H   H697      1.0  0.12051  0.68072  0.42531  1.0000
  H   H698      1.0  0.11957  0.69432  0.39033  1.0000
  H   H699      1.0  0.17410  0.65626  0.37395  1.0000
  H   H700      1.0  0.17450  0.64227  0.40865  1.0000
  C   C397      1.0  0.18357  0.82171  0.34508  1.0000
  C   C398      1.0  0.17978  0.81317  0.36494  1.0000
  C   C399      1.0  0.16941  0.79788  0.37160  1.0000
  C   C400      1.0  0.16268  0.79101  0.35853  1.0000
  C   C401      1.0  0.16656  0.79946  0.33868  1.0000
  C   C402      1.0  0.17700  0.81471  0.33201  1.0000
  H   H701      1.0  0.18468  0.81847  0.37516  1.0000
  H   H702      1.0  0.16639  0.79150  0.38700  1.0000
  H   H703      1.0  0.22239  0.69755  0.50918  1.0000
  C   C403      1.0  0.20661  0.82073  0.64322  1.0000
  H   H704      1.0  0.14426  0.73864  0.40012  1.0000
  C   C404      1.0  0.14094  0.57964  0.38558  1.0000
  H   H705      1.0  0.22937  0.80475  0.40884  1.0000
  H   H706      1.0  0.22870  0.71967  0.52242  1.0000
  H   H707      1.0  0.06537  0.70753  0.38504  1.0000
  C   C405      1.0  0.01477  0.68617  0.38645  1.0000
  S   S126      1.0  0.22892  0.83771  0.37351  1.0000
  C   C406      1.0  0.14628  0.72116  0.64757  1.0000
  H   H708      1.0  0.21036  0.67992  0.45732  1.0000
  H   H709      1.0  0.23498  0.64280  0.38243  1.0000
  H   H710      1.0  0.21676  0.64859  0.53241  1.0000
  H   H711      1.0  0.13793  0.63494  0.39132  1.0000
  H   H712      1.0  0.16510  0.74754  0.41686  1.0000
  H   H713      1.0  0.16155  0.79428  0.32846  1.0000
  H   H714      1.0  0.02661  0.68997  0.34055  1.0000
  H   H715      1.0  0.16898  0.59464  0.43323  1.0000
  H   H716      1.0  0.23842  0.78781  0.54472  1.0000
  C   C407      1.0  0.19719  0.68853  0.41521  1.0000
  C   C408      1.0  0.21253  0.57037  0.41212  1.0000
  C   C409      1.0  0.19206  0.54905  0.39969  1.0000
  C   C410      1.0  0.18797  0.55068  0.41930  1.0000
  C   C411      1.0  0.19806  0.56148  0.42548  1.0000
  H   H717      1.0  0.22822  0.57497  0.38228  1.0000
  H   H718      1.0  0.15951  0.69522  0.63585  1.0000
  C   C412      1.0  0.20649  0.55799  0.38637  1.0000
  H   H719      1.0  0.17693  0.54366  0.42971  1.0000
  H   H720      1.0  0.19500  0.56255  0.44064  1.0000
  S   S127      1.0  0.22094  0.97618  0.40523  1.0000
  H   H721      1.0  0.20993  0.55664  0.37128  1.0000
  H   H722      1.0  0.17495  0.58855  0.39981  1.0000
  C   C413      1.0  0.21687  0.71133  0.64372  1.0000
  H   H723      1.0  0.12456  0.58486  0.41364  1.0000
  S   S128      1.0  0.21807  0.63005  0.59996  1.0000
  H   H724      1.0  0.22652  0.68052  0.55817  1.0000
  H   H725      1.0  0.20104  0.70385  0.53941  1.0000
  H   H726      1.0  0.14774  0.96543  0.39195  1.0000
  H   H727      1.0  0.12841  0.63938  0.31701  1.0000
  H   H728      1.0  0.14215  0.62278  0.42427  1.0000
  C   C414      1.0  0.14863  0.72328  0.40775  1.0000
  Fe  Fe66      1.0  0.20784  0.61641  0.63143  1.0000
  H   H729      1.0  0.00090  0.75393  0.63857  1.0000
  Fe  Fe67      1.0  0.18350  0.65418  0.64185  1.0000
  C   C415      1.0  0.14068  0.60780  0.42448  1.0000
  C   C416      1.0  0.21617  0.76907  0.38533  1.0000
  C   C417      1.0  0.22288  0.68618  0.45539  1.0000
  H   H730      1.0  0.10489  0.61186  0.40114  1.0000
  C   C418      1.0  0.20495  0.94056  0.36974  1.0000
  C   C419      1.0  0.20792  0.93244  0.38868  1.0000
  C   C420      1.0  0.21246  0.94369  0.39946  1.0000
  C   C421      1.0  0.21431  0.96306  0.39135  1.0000
  C   C422      1.0  0.21148  0.97119  0.37234  1.0000
  C   C423      1.0  0.20651  0.96005  0.36167  1.0000
  H   H731      1.0  0.20653  0.91753  0.39511  1.0000
  H   H732      1.0  0.21560  0.81130  0.45995  1.0000
  H   H733      1.0  0.00190  0.69400  0.37991  1.0000
  H   H734      1.0  0.20435  0.96638  0.34696  1.0000
  H   H735      1.0  0.16560  0.97705  0.37453  1.0000
  C   C424      1.0  0.18159  0.63892  0.55801  1.0000
  C   C425      1.0  0.19472  0.62124  0.56146  1.0000
  C   C426      1.0  0.20188  0.60995  0.54702  1.0000
  C   C427      1.0  0.19617  0.61635  0.52897  1.0000
  C   C428      1.0  0.18321  0.63415  0.52542  1.0000
  C   C429      1.0  0.17584  0.64533  0.53997  1.0000
  H   H736      1.0  0.19905  0.61603  0.57538  1.0000
  H   H737      1.0  0.10349  0.66016  0.33274  1.0000
  H   H738      1.0  0.17851  0.63909  0.51168  1.0000
  H   H739      1.0  0.16562  0.65896  0.53727  1.0000
  H   H740      1.0  0.16834  0.68909  0.41312  1.0000
  H   H741      1.0  0.08061  0.68512  0.38017  1.0000
  H   H742      1.0  0.20014  0.67706  0.42814  1.0000
  H   H743      1.0  0.18137  0.69893  0.37940  1.0000
  C   C430      1.0  0.03186  0.70777  0.35843  1.0000
  C   C431      1.0  0.01991  0.66532  0.38260  1.0000
  C   C432      1.0  0.22893  0.82978  0.43435  1.0000
  S   S129      1.0  0.23507  0.72962  0.47280  1.0000
  C   C433      1.0  0.01402  0.76060  0.34731  1.0000
  C   C434      1.0  0.17301  0.61012  0.37340  1.0000
  H   H744      1.0  0.19510  0.71591  0.43687  1.0000
  H   H745      1.0  0.21179  0.59613  0.54990  1.0000
  H   H746      1.0  0.21550  0.80601  0.64201  1.0000
  S   S130      1.0  0.20690  0.84068  0.42663  1.0000
  Fe  Fe68      1.0  0.22146  0.65436  0.61195  1.0000
  C   C435      1.0  0.02735  0.76036  0.35851  1.0000
  H   H747      1.0  0.14870  0.59787  0.45281  1.0000
  C   C436      1.0  0.15344  0.59369  0.43832  1.0000
  C   C437      1.0  0.20348  0.70549  0.63366  1.0000
  C   C438      1.0  0.21909  0.67518  0.54962  1.0000
  H   H748      1.0  0.22371  0.75212  0.41971  1.0000
  C   C439      1.0  0.11099  0.62483  0.39974  1.0000
  C   C440      1.0  0.06729  0.69582  0.37697  1.0000
  S   S131      1.0  0.21433  0.63929  0.64326  1.0000
  H   H749      1.0  0.16891  0.62617  0.36892  1.0000
  C   C441      1.0  0.13321  0.62119  0.39220  1.0000
  H   H750      1.0  0.16709  0.60332  0.36479  1.0000
  S   S132      1.0  0.23014  0.61014  0.45798  1.0000
  C   C442      1.0  0.17524  0.69782  0.41894  1.0000
  C   C443      1.0  0.16655  0.60347  0.39567  1.0000
  H   H751      1.0  0.17768  0.74097  0.38459  1.0000
  C   C444      1.0  0.13317  0.71975  0.42668  1.0000
  S   S133      1.0  0.06388  0.75401  0.36601  1.0000
  Fe  Fe69      1.0  0.20795  0.55609  0.31974  1.0000
  S   S134      1.0  0.22644  0.58292  0.41942  1.0000
  H   H752      1.0  0.00326  0.73848  0.39945  1.0000
  N   N30       1.0  0.16949  0.71914  0.41006  1.0000
  H   H753      1.0  0.01748  0.71654  0.35589  1.0000
  H   H754      1.0  0.20910  0.83011  0.62845  1.0000
  H   H755      1.0  0.13694  0.70516  0.43595  1.0000
  H   H756      1.0  0.19732  0.72239  0.39034  1.0000
  H   H757      1.0  0.11913  0.72048  0.42274  1.0000
  H   H758      1.0  0.00633  0.65945  0.38663  1.0000
  H   H759      1.0  0.15328  0.49577  0.33332  1.0000
  H   H760      1.0  0.19857  0.79693  0.41093  1.0000
  S   S135      1.0  0.13916  0.59139  0.32128  1.0000
  C   C445      1.0  0.18170  0.72496  0.39009  1.0000
  H   H761      1.0  0.04581  0.70330  0.32912  1.0000
  S   S136      1.0  0.21421  0.58412  0.64390  1.0000
  H   H762      1.0  0.02614  0.66463  0.36715  1.0000
  H   H763      1.0  0.09179  0.68522  0.32822  1.0000
  C   C446      1.0  0.21685  0.56840  0.39263  1.0000
  H   H764      1.0  0.14687  0.71404  0.39845  1.0000
  H   H765      1.0  0.03937  0.80500  0.33850  1.0000
  H   H766      1.0  0.00939  0.68445  0.40254  1.0000
  H   H767      1.0  0.19882  0.69165  0.64154  1.0000
  H   H768      1.0  0.22072  0.72512  0.63435  1.0000
  H   H769      1.0  0.17448  0.49933  0.38032  1.0000
  H   H770      1.0  0.16642  0.72126  0.36906  1.0000
  S   S137      1.0  0.22939  0.87942  0.38414  1.0000
  H   H771      1.0  0.19217  0.71737  0.36141  1.0000
  S   S138      1.0  0.20803  0.52693  0.33981  1.0000
  H   H772      1.0  0.20113  0.68074  0.40294  1.0000
  H   H773      1.0  0.10407  0.63673  0.38906  1.0000
  H   H774      1.0  0.03516  0.81956  0.31543  1.0000
  C   C447      1.0  0.14801  0.49084  0.38054  1.0000
  H   H775      1.0  0.12540  0.60687  0.43189  1.0000
  H   H776      1.0  0.14557  0.73058  0.63343  1.0000
  H   H777      1.0  0.02208  0.76399  0.37279  1.0000
  H   H778      1.0  0.20724  0.69845  0.41290  1.0000
  H   H779      1.0  0.16087  0.72860  0.43769  1.0000
  C   C448      1.0  0.04743  0.75536  0.35134  1.0000
  H   H780      1.0  0.14910  0.57285  0.41306  1.0000
  Fe  Fe70      1.0  0.16408  0.56586  0.32543  1.0000
  H   H781      1.0  0.18941  0.74136  0.43615  1.0000
  S   S139      1.0  0.17643  0.63038  0.63186  1.0000
  H   H782      1.0  0.19055  0.71715  0.63148  1.0000
  H   H783      1.0  0.13568  0.61956  0.37692  1.0000
  H   H784      1.0  0.03509  0.72448  0.38516  1.0000
  Fe  Fe71      1.0  0.22032  0.64148  0.44495  1.0000
  H   H785      1.0  0.05044  0.68198  0.34669  1.0000
  C   C449      1.0  0.23528  0.69040  0.51592  1.0000
  H   H786      1.0  0.13599  0.56566  0.38860  1.0000
  H   H787      1.0  0.10676  0.62989  0.41376  1.0000
  H   H788      1.0  0.16524  0.97303  0.40014  1.0000
  C   C450      1.0  0.22911  0.81528  0.45134  1.0000
  H   H789      1.0  0.15616  0.57695  0.37749  1.0000
  C   C451      1.0  0.17049  0.73192  0.42313  1.0000
  H   H790      1.0  0.15189  0.57839  0.44070  1.0000
  C   C452      1.0  0.13961  0.58518  0.40508  1.0000
  H   H791      1.0  0.20751  0.70733  0.47314  1.0000
  H   H792      1.0  0.20185  0.73297  0.41428  1.0000
  S   S140      1.0  0.17236  0.65340  0.57582  1.0000
  H   H793      1.0  0.18913  0.60613  0.36933  1.0000
  N   N31       1.0  0.03063  0.69794  0.37959  1.0000
  C   C453      1.0  0.20613  0.79028  0.42327  1.0000
  N   N32       1.0  0.14503  0.60429  0.40397  1.0000
  H   H794      1.0  0.22126  0.65034  0.49648  1.0000
  C   C454      1.0  0.19053  0.73025  0.42757  1.0000
  C   C455      1.0  0.19940  0.68944  0.54875  1.0000
  C   C456      1.0  0.03896  0.69476  0.34312  1.0000
  Fe  Fe72      1.0  0.18600  0.52403  0.32439  1.0000
  N   N33       1.0  0.23165  0.67181  0.53016  1.0000
  H   H795      1.0  0.20249  0.77594  0.43084  1.0000
  H   H796      1.0  0.20009  0.80000  0.43396  1.0000
  H   H797      1.0  0.18168  0.81048  0.64187  1.0000
  H   H798      1.0  0.07020  0.70189  0.36106  1.0000
  H   H799      1.0  0.18931  0.68339  0.54384  1.0000
  H   H800      1.0  0.99400  0.71689  0.40383  1.0000
  H   H801      1.0  0.02987  0.65547  0.39192  1.0000
  H   H802      1.0  0.15880  0.64911  0.33435  1.0000
  S   S141      1.0  0.22461  0.87795  0.34065  1.0000
  S   S142      1.0  0.11145  0.77238  0.33392  1.0000
  H   H803      1.0  0.13291  0.65312  0.34448  1.0000
  H   H804      1.0  0.20704  0.67129  0.51848  1.0000
  H   H805      1.0  0.04853  0.67892  0.39929  1.0000
  H   H806      1.0  0.13047  0.73126  0.43518  1.0000
  H   H807      1.0  0.13155  0.59051  0.37634  1.0000
  H   H808      1.0  0.16959  0.69502  0.43502  1.0000
  C   C457      1.0  0.04984  0.68541  0.38342  1.0000
  C   C458      1.0  0.04081  0.75143  0.32148  1.0000
  H   H809      1.0  0.14660  0.62915  0.34276  1.0000
  C   C459      1.0  0.05409  0.75078  0.33287  1.0000
  H   H810      1.0  0.99854  0.76457  0.35289  1.0000
  H   H811      1.0  0.20330  0.77156  0.39712  1.0000
  C   C460      1.0  0.15603  0.97717  0.38914  1.0000
  C   C461      1.0  0.22126  0.70175  0.46429  1.0000
  H   H812      1.0  0.14214  0.50576  0.37306  1.0000
  C   C462      1.0  0.00433  0.72552  0.39341  1.0000
  H   H813      1.0  0.17490  0.49010  0.35972  1.0000
  H   H814      1.0  0.21166  0.70317  0.61893  1.0000
  H   H815      1.0  0.14180  0.49004  0.39632  1.0000
  H   H816      1.0  0.22140  0.75320  0.38612  1.0000
  H   H817      1.0  0.17992  0.82119  0.31662  1.0000
  H   H818      1.0  0.07065  0.81004  0.32078  1.0000
  H   H819      1.0  0.23180  0.49469  0.31996  1.0000
  C   C463      1.0  0.04230  0.80511  0.32265  1.0000
  C   C464      1.0  0.22815  0.78966  0.41661  1.0000
  H   H820      1.0  0.23805  0.66615  0.49129  1.0000
  C   C465      1.0  0.17048  0.48742  0.37588  1.0000
  H   H821      1.0  0.23693  0.73847  0.64759  1.0000
  H   H822      1.0  0.99815  0.74954  0.61635  1.0000
  H   H823      1.0  0.23414  0.78705  0.42997  1.0000
  Fe  Fe73      1.0  0.12634  0.75012  0.31517  1.0000
  C   C466      1.0  0.10233  0.67362  0.32132  1.0000
  C   C467      1.0  0.23740  0.71001  0.46185  1.0000
  C   C468      1.0  0.23260  0.77913  0.38532  1.0000
  H   H824      1.0  0.23528  0.61716  0.39036  1.0000
  H   H825      1.0  0.99668  0.71164  0.61998  1.0000
  C   C469      1.0  0.23868  0.75488  0.41607  1.0000
  N   N34       1.0  0.23965  0.77512  0.40416  1.0000
  C   C470      1.0  0.24056  0.67909  0.44374  1.0000
  C   C471      1.0  0.24010  0.70619  0.52391  1.0000
  H   H826      1.0  0.99322  0.72283  0.64777  1.0000
  C   C472      1.0  0.14104  0.64627  0.31494  1.0000
  C   C473      1.0  0.17961  0.82670  0.68373  1.0000
  H   H827      1.0  0.14942  0.64576  0.71314  1.0000
  Fe  Fe74      1.0  0.20156  0.89043  0.73732  1.0000
  S   S143      1.0  0.19958  0.86590  0.76354  1.0000
  S   S144      1.0  0.18365  0.92077  0.73764  1.0000
  S   S145      1.0  0.21174  0.70992  0.91385  1.0000
  H   H828      1.0  0.20093  0.96181  0.68042  1.0000
  Fe  Fe75      1.0  0.19851  0.84830  0.74246  1.0000
  S   S146      1.0  0.18198  0.82385  0.75042  1.0000
  C   C474      1.0  0.21547  0.70818  0.95107  1.0000
  H   H829      1.0  0.06765  0.67216  0.78785  1.0000
  S   S147      1.0  0.19773  0.87344  0.71693  1.0000
  C   C475      1.0  0.06394  0.66598  0.77707  1.0000
  H   H830      1.0  0.16821  0.96038  0.74110  1.0000
  C   C476      1.0  0.20859  0.95508  0.69273  1.0000
  H   H831      1.0  0.09092  0.54031  0.79298  1.0000
  S   S148      1.0  0.22636  0.66149  0.89639  1.0000
  C   C477      1.0  0.18668  0.96803  0.75584  1.0000
  H   H832      1.0  0.16948  0.82462  0.69808  1.0000
  H   H833      1.0  0.00986  0.75174  0.74290  1.0000
  H   H834      1.0  0.04984  0.67515  0.75266  1.0000
  Fe  Fe76      1.0  0.07760  0.76762  0.72152  1.0000
  S   S149      1.0  0.10122  0.74158  0.71671  1.0000
  S   S150      1.0  0.04630  0.76365  0.73266  1.0000
  Fe  Fe77      1.0  0.10683  0.79402  0.71453  1.0000
  S   S151      1.0  0.13263  0.77010  0.70879  1.0000
  S   S152      1.0  0.11154  0.82403  0.71332  1.0000
  Fe  Fe78      1.0  0.11533  0.76216  0.69156  1.0000
  S   S153      1.0  0.99798  0.58100  0.81712  1.0000
  Fe  Fe79      1.0  0.11644  0.75180  0.73432  1.0000
  S   S154      1.0  0.13136  0.73260  0.75796  1.0000
  S   S155      1.0  0.09052  0.78778  0.69487  1.0000
  S   S156      1.0  0.09173  0.77621  0.74150  1.0000
  H   H835      1.0  0.17544  0.72387  0.69537  1.0000
  H   H836      1.0  0.23204  0.60064  0.89480  1.0000
  S   S157      1.0  0.22324  0.62171  0.92951  1.0000
  Fe  Fe80      1.0  0.18656  0.51436  0.76902  1.0000
  S   S158      1.0  0.20462  0.53157  0.77605  1.0000
  S   S159      1.0  0.15462  0.52480  0.77021  1.0000
  Fe  Fe81      1.0  0.22349  0.52813  0.74684  1.0000
  H   H837      1.0  0.21982  0.97280  0.83847  1.0000
  H   H838      1.0  0.99206  0.78956  0.67078  1.0000
  S   S160      1.0  0.20421  0.51292  0.73908  1.0000
  C   C478      1.0  0.19296  0.48768  0.70362  1.0000
  Fe  Fe82      1.0  0.10668  0.63808  0.84259  1.0000
  S   S161      1.0  0.12872  0.61982  0.82306  1.0000
  S   S162      1.0  0.11375  0.65382  0.86250  1.0000
  Fe  Fe83      1.0  0.07221  0.63298  0.82809  1.0000
  S   S163      1.0  0.09151  0.61423  0.80760  1.0000
  S   S164      1.0  0.03959  0.64234  0.83009  1.0000
  Fe  Fe84      1.0  0.10723  0.60005  0.83214  1.0000
  S   S165      1.0  0.11740  0.56767  0.84077  1.0000
  Fe  Fe85      1.0  0.11118  0.63554  0.80031  1.0000
  S   S166      1.0  0.12495  0.64544  0.76885  1.0000
  S   S167      1.0  0.08634  0.61707  0.85354  1.0000
  S   S168      1.0  0.09064  0.65564  0.81894  1.0000
  C   C479      1.0  0.14470  0.53699  0.78962  1.0000
  C   C480      1.0  0.13061  0.55413  0.78737  1.0000
  C   C481      1.0  0.12283  0.56408  0.80278  1.0000
  C   C482      1.0  0.12849  0.55648  0.82074  1.0000
  C   C483      1.0  0.14239  0.53918  0.82303  1.0000
  C   C484      1.0  0.15081  0.52966  0.80736  1.0000
  H   H839      1.0  0.12593  0.55986  0.77364  1.0000
  H   H840      1.0  0.11209  0.57734  0.80087  1.0000
  H   H841      1.0  0.14684  0.53325  0.83688  1.0000
  H   H842      1.0  0.16176  0.51644  0.80913  1.0000
  C   C485      1.0  0.13092  0.70811  0.76044  1.0000
  C   C486      1.0  0.13426  0.69979  0.74414  1.0000
  C   C487      1.0  0.13341  0.68012  0.74668  1.0000
  C   C488      1.0  0.12907  0.66895  0.76550  1.0000
  C   C489      1.0  0.12646  0.67715  0.78169  1.0000
  C   C490      1.0  0.12715  0.69677  0.77914  1.0000
  H   H843      1.0  0.13742  0.70853  0.72964  1.0000
  H   H844      1.0  0.13565  0.67372  0.73413  1.0000
  H   H845      1.0  0.12374  0.66846  0.79621  1.0000
  H   H846      1.0  0.12422  0.70338  0.79164  1.0000
  C   C491      1.0  0.05642  0.68216  0.76069  1.0000
  H   H847      1.0  0.09061  0.68853  0.76672  1.0000
  H   H848      1.0  0.17807  0.98255  0.75623  1.0000
  Fe  Fe86      1.0  0.22199  0.50243  0.78734  1.0000
  H   H849      1.0  0.17803  0.61229  0.86811  1.0000
  H   H850      1.0  0.16114  0.89104  0.86063  1.0000
  H   H851      1.0  0.05115  0.71469  0.70651  1.0000
  H   H852      1.0  0.19096  0.78314  0.66858  1.0000
  C   C492      1.0  0.20821  0.93000  0.75574  1.0000
  H   H853      1.0  0.10674  0.69862  0.71948  1.0000
  H   H854      1.0  0.06527  0.54876  0.79949  1.0000
  H   H855      1.0  0.00334  0.63758  0.78206  1.0000
  C   C493      1.0  0.14040  0.71675  0.68266  1.0000
  C   C494      1.0  0.14808  0.69678  0.68405  1.0000
  H   H856      1.0  0.15952  0.91687  0.85145  1.0000
  C   C495      1.0  0.18104  0.95543  0.74742  1.0000
  H   H857      1.0  0.13576  0.72277  0.69565  1.0000
  H   H858      1.0  0.14905  0.68745  0.69817  1.0000
  C   C496      1.0  0.15771  0.65186  0.88875  1.0000
  C   C497      1.0  0.13987  0.65698  0.88256  1.0000
  C   C498      1.0  0.13574  0.64605  0.87116  1.0000
  C   C499      1.0  0.14956  0.62987  0.86608  1.0000
  C   C500      1.0  0.16742  0.62480  0.87217  1.0000
  H   H859      1.0  0.16074  0.66038  0.89751  1.0000
  H   H860      1.0  0.12923  0.66952  0.88656  1.0000
  H   H861      1.0  0.14654  0.62131  0.85736  1.0000
  C   C501      1.0  0.17478  0.92853  0.80629  1.0000
  C   C502      1.0  0.16210  0.82463  0.74023  1.0000
  C   C503      1.0  0.15258  0.84194  0.72990  1.0000
  C   C504      1.0  0.13678  0.84177  0.72200  1.0000
  C   C505      1.0  0.13060  0.82429  0.72423  1.0000
  C   C506      1.0  0.14012  0.80707  0.73459  1.0000
  C   C507      1.0  0.15571  0.80728  0.74264  1.0000
  H   H862      1.0  0.15731  0.85542  0.72809  1.0000
  H   H863      1.0  0.12943  0.85515  0.71402  1.0000
  H   H864      1.0  0.13534  0.79357  0.73664  1.0000
  H   H865      1.0  0.16290  0.79388  0.75076  1.0000
  C   C508      1.0  0.16375  0.89963  0.82918  1.0000
  C   C509      1.0  0.17157  0.63574  0.88353  1.0000
  H   H866      1.0  0.18255  0.89975  0.84916  1.0000
  H   H867      1.0  0.18892  0.69354  0.67337  1.0000
  H   H868      1.0  0.20813  0.90235  0.79741  1.0000
  H   H869      1.0  0.21791  0.70765  0.98023  1.0000
  C   C510      1.0  0.02763  0.62609  0.82557  1.0000
  C   C511      1.0  0.03698  0.61407  0.81220  1.0000
  C   C512      1.0  0.02746  0.60073  0.80927  1.0000
  H   H870      1.0  0.18812  0.85256  0.66264  1.0000
  H   H871      1.0  0.05792  0.70803  0.78223  1.0000
  H   H872      1.0  0.05163  0.61489  0.80428  1.0000
  H   H873      1.0  0.03494  0.59114  0.79922  1.0000
  C   C513      1.0  0.01055  0.74893  0.69649  1.0000
  C   C514      1.0  0.02879  0.75373  0.68752  1.0000
  C   C515      1.0  0.04010  0.75808  0.69843  1.0000
  C   C516      1.0  0.03320  0.75758  0.71840  1.0000
  C   C517      1.0  0.01518  0.75236  0.72742  1.0000
  C   C518      1.0  0.00392  0.74801  0.71654  1.0000
  C   C519      1.0  0.00835  0.62539  0.83525  1.0000
  H   H874      1.0  0.05404  0.76200  0.69137  1.0000
  C   C520      1.0  0.20281  0.96148  0.76465  1.0000
  H   H875      1.0  0.11032  0.67711  0.71029  1.0000
  C   C521      1.0  0.18609  0.93767  0.81581  1.0000
  H   H876      1.0  0.99611  0.69896  0.80613  1.0000
  H   H877      1.0  0.20625  0.79485  0.67525  1.0000
  S   S169      1.0  0.23223  0.65940  0.94050  1.0000
  C   C522      1.0  0.19168  0.93636  0.74751  1.0000
  H   H878      1.0  0.15204  0.90475  0.77621  1.0000
  C   C523      1.0  0.17315  0.90048  0.79418  1.0000
  H   H879      1.0  0.21893  0.56119  0.90995  1.0000
  C   C524      1.0  0.09901  0.68865  0.71655  1.0000
  C   C525      1.0  0.19092  0.79343  0.67772  1.0000
  H   H880      1.0  0.12700  0.63879  0.72563  1.0000
  N   N35       1.0  0.20871  0.71357  0.66454  1.0000
  S   S170      1.0  0.13029  0.75412  0.66259  1.0000
  H   H881      1.0  0.14859  0.90746  0.82840  1.0000
  Fe  Fe87      1.0  0.23027  0.86504  0.71133  1.0000
  H   H882      1.0  0.17960  0.72682  0.65990  1.0000
  H   H883      1.0  0.02093  0.68847  0.79912  1.0000
  Fe  Fe88      1.0  0.21254  0.67771  0.92064  1.0000
  H   H884      1.0  0.19443  0.86870  0.83025  1.0000
  C   C526      1.0  0.14218  0.82701  0.66854  1.0000
  H   H885      1.0  0.21882  0.86999  0.81819  1.0000
  H   H886      1.0  0.23913  0.95192  0.85604  1.0000
  Fe  Fe89      1.0  0.20407  0.64282  0.91021  1.0000
  H   H887      1.0  0.21387  0.58767  0.86823  1.0000
  N   N36       1.0  0.16013  0.69080  0.82046  1.0000
  C   C527      1.0  0.16687  0.67526  0.80833  1.0000
  C   C528      1.0  0.16215  0.71007  0.80673  1.0000
  C   C529      1.0  0.13905  0.69084  0.83032  1.0000
  C   C530      1.0  0.17262  0.68572  0.83549  1.0000
  C   C531      1.0  0.16359  0.65462  0.81901  1.0000
  C   C532      1.0  0.18294  0.71202  0.79553  1.0000
  C   C533      1.0  0.12623  0.71019  0.83519  1.0000
  C   C534      1.0  0.16885  0.70015  0.84905  1.0000
  H   H888      1.0  0.15961  0.67949  0.79565  1.0000
  H   H889      1.0  0.18274  0.67354  0.80205  1.0000
  H   H890      1.0  0.15661  0.72248  0.81431  1.0000
  H   H891      1.0  0.15297  0.71310  0.79566  1.0000
  H   H892      1.0  0.13130  0.68622  0.82139  1.0000
  H   H893      1.0  0.13808  0.67998  0.84420  1.0000
  H   H894      1.0  0.17050  0.67161  0.84552  1.0000
  H   H895      1.0  0.18842  0.68274  0.82887  1.0000
  H   H896      1.0  0.17265  0.64808  0.83015  1.0000
  H   H897      1.0  0.14812  0.65428  0.82577  1.0000
  H   H898      1.0  0.16802  0.64497  0.80825  1.0000
  H   H899      1.0  0.18880  0.70220  0.78497  1.0000
  H   H900      1.0  0.18249  0.72710  0.78682  1.0000
  H   H901      1.0  0.19301  0.70966  0.80550  1.0000
  H   H902      1.0  0.12331  0.72089  0.82173  1.0000
  H   H903      1.0  0.13249  0.71666  0.84384  1.0000
  H   H904      1.0  0.11190  0.70732  0.84406  1.0000
  H   H905      1.0  0.15649  0.69752  0.86145  1.0000
  H   H906      1.0  0.16626  0.71557  0.84148  1.0000
  H   H907      1.0  0.18208  0.69814  0.85497  1.0000
  H   H908      1.0  0.22008  0.71620  0.68857  1.0000
  C   C535      1.0  0.00846  0.59950  0.81945  1.0000
  C   C536      1.0  0.06096  0.70985  0.73376  1.0000
  H   H909      1.0  0.03410  0.75434  0.67203  1.0000
  S   S171      1.0  0.23420  0.88426  0.72933  1.0000
  C   C537      1.0  0.23170  0.95844  0.71053  1.0000
  C   C538      1.0  0.21726  0.67613  0.67598  1.0000
  H   H910      1.0  0.04990  0.71966  0.74257  1.0000
  H   H911      1.0  0.01772  0.54492  0.85717  1.0000
  H   H912      1.0  0.06283  0.72870  0.76267  1.0000
  H   H913      1.0  0.23787  0.70587  0.67031  1.0000
  H   H914      1.0  0.05552  0.68973  0.71782  1.0000
  H   H915      1.0  0.14091  0.90795  0.80047  1.0000
  C   C539      1.0  0.16992  0.48703  0.73471  1.0000
  C   C540      1.0  0.18481  0.81997  0.65016  1.0000
  H   H916      1.0  0.18426  0.51843  0.70785  1.0000
  H   H917      1.0  0.22826  0.60259  0.66749  1.0000
  N   N37       1.0  0.06607  0.54966  0.83927  1.0000
  C   C541      1.0  0.08077  0.53976  0.82403  1.0000
  C   C542      1.0  0.07187  0.54028  0.85862  1.0000
  C   C543      1.0  0.06727  0.57091  0.83420  1.0000
  C   C544      1.0  0.04617  0.54723  0.83872  1.0000
  C   C545      1.0  0.07940  0.54897  0.80257  1.0000
  C   C546      1.0  0.07140  0.51842  0.86568  1.0000
  C   C547      1.0  0.05943  0.58252  0.85068  1.0000
  C   C548      1.0  0.02902  0.55361  0.85491  1.0000
  H   H918      1.0  0.09588  0.53926  0.82533  1.0000
  H   H919      1.0  0.07957  0.52432  0.82618  1.0000
  H   H920      1.0  0.06265  0.54754  0.87053  1.0000
  H   H921      1.0  0.08686  0.54206  0.85804  1.0000
  H   H922      1.0  0.08262  0.57263  0.82852  1.0000
  H   H923      1.0  0.05973  0.57873  0.82211  1.0000
  H   H924      1.0  0.04186  0.55575  0.82482  1.0000
  H   H925      1.0  0.04619  0.53198  0.83823  1.0000
  H   H926      1.0  0.08208  0.56404  0.79822  1.0000
  C   C549      1.0  0.21978  0.57626  0.66727  1.0000
  C   C550      1.0  0.21365  0.94251  0.76446  1.0000
  H   H927      1.0  0.07450  0.51360  0.88061  1.0000
  H   H928      1.0  0.05692  0.51543  0.86657  1.0000
  H   H929      1.0  0.08284  0.50941  0.85642  1.0000
  H   H930      1.0  0.06940  0.57840  0.86107  1.0000
  H   H931      1.0  0.04456  0.58115  0.85864  1.0000
  H   H932      1.0  0.05889  0.59822  0.84422  1.0000
  H   H933      1.0  0.21943  0.95967  0.72322  1.0000
  H   H934      1.0  0.03280  0.55093  0.86931  1.0000
  H   H935      1.0  0.13874  0.83843  0.67724  1.0000
  H   H936      1.0  0.07092  0.71950  0.72433  1.0000
  C   C551      1.0  0.21507  0.93304  0.69287  1.0000
  C   C552      1.0  0.20220  0.69535  0.67704  1.0000
  C   C553      1.0  0.22036  0.71663  0.93131  1.0000
  H   H937      1.0  0.18156  0.51529  0.68485  1.0000
  Fe  Fe90      1.0  0.23203  0.85838  0.75396  1.0000
  H   H938      1.0  0.18396  0.93265  0.83178  1.0000
  H   H939      1.0  0.19231  0.73990  0.69129  1.0000
  N   N38       1.0  0.07135  0.69297  0.74681  1.0000
  H   H940      1.0  0.16990  0.74852  0.68300  1.0000
  N   N39       1.0  0.22443  0.96559  0.69173  1.0000
  H   H941      1.0  0.00861  0.65769  0.79804  1.0000
  C   C554      1.0  0.00406  0.80520  0.72998  1.0000
  C   C555      1.0  0.08198  0.70067  0.75767  1.0000
  C   C556      1.0  0.23092  0.58141  0.69413  1.0000
  H   H942      1.0  0.15380  0.50456  0.70419  1.0000
  H   H943      1.0  0.04401  0.69239  0.76767  1.0000
  C   C557      1.0  0.21687  0.57726  0.90718  1.0000
  H   H944      1.0  0.13852  0.48704  0.74522  1.0000
  C   C558      1.0  0.15511  0.68897  0.66717  1.0000
  H   H945      1.0  0.21297  0.54809  0.67123  1.0000
  C   C559      1.0  0.15792  0.48845  0.70564  1.0000
  H   H946      1.0  0.16635  0.50318  0.73250  1.0000
  H   H947      1.0  0.20586  0.69789  0.95575  1.0000
  H   H948      1.0  0.12841  0.82181  0.67099  1.0000
  H   H949      1.0  0.21088  0.96546  0.82124  1.0000
  H   H950      1.0  0.23022  0.55519  0.87892  1.0000
  H   H951      1.0  0.17918  0.93407  0.79036  1.0000
  C   C560      1.0  0.19141  0.73024  0.66487  1.0000
  H   H952      1.0  0.15911  0.93535  0.81016  1.0000
  S   S172      1.0  0.19446  0.62897  0.89030  1.0000
  H   H953      1.0  0.21650  0.91534  0.75580  1.0000
  H   H954      1.0  0.20240  0.86860  0.80433  1.0000
  H   H955      1.0  0.22078  0.67252  0.66134  1.0000
  H   H956      1.0  0.19751  0.77032  0.70236  1.0000
  C   C561      1.0  0.22444  0.71728  0.67250  1.0000
  H   H957      1.0  0.19511  0.66859  0.97951  1.0000
  H   H958      1.0  0.09629  0.66909  0.74436  1.0000
  S   S173      1.0  0.18837  0.66082  0.93303  1.0000
  C   C562      1.0  0.00632  0.68486  0.80541  1.0000
  H   H959      1.0  0.00626  0.67627  0.82052  1.0000
  N   N40       1.0  0.17223  0.60625  0.71984  1.0000
  C   C563      1.0  0.18071  0.59084  0.73555  1.0000
  C   C564      1.0  0.18503  0.62116  0.71241  1.0000
  C   C565      1.0  0.17250  0.59637  0.70364  1.0000
  C   C566      1.0  0.15170  0.61498  0.72885  1.0000
  C   C567      1.0  0.17092  0.57297  0.74362  1.0000
  C   C568      1.0  0.18698  0.63169  0.72765  1.0000
  C   C569      1.0  0.17411  0.60872  0.68272  1.0000
  C   C570      1.0  0.14149  0.63366  0.71677  1.0000
  H   H960      1.0  0.19649  0.58526  0.73016  1.0000
  H   H961      1.0  0.17988  0.59695  0.74843  1.0000
  H   H962      1.0  0.17985  0.63274  0.70047  1.0000
  H   H963      1.0  0.19999  0.61423  0.70577  1.0000
  H   H964      1.0  0.18524  0.58400  0.70245  1.0000
  H   H965      1.0  0.15946  0.58974  0.70689  1.0000
  H   H966      1.0  0.14204  0.60430  0.73237  1.0000
  H   H967      1.0  0.15131  0.61845  0.74309  1.0000
  H   H968      1.0  0.15543  0.57699  0.75070  1.0000
  H   H969      1.0  0.17229  0.56457  0.73233  1.0000
  H   H970      1.0  0.17829  0.56291  0.75509  1.0000
  H   H971      1.0  0.19510  0.64352  0.72003  1.0000
  H   H972      1.0  0.17268  0.63862  0.73544  1.0000
  H   H973      1.0  0.19550  0.62177  0.73828  1.0000
  H   H974      1.0  0.18855  0.61281  0.67707  1.0000
  H   H975      1.0  0.16273  0.62203  0.68130  1.0000
  H   H976      1.0  0.17280  0.59983  0.67284  1.0000
  H   H977      1.0  0.13886  0.63105  0.70339  1.0000
  N   N41       1.0  0.17816  0.81298  0.67177  1.0000
  H   H978      1.0  0.18456  0.90302  0.78074  1.0000
  H   H979      1.0  0.20506  0.51352  0.68922  1.0000
  C   C571      1.0  0.15766  0.80968  0.67578  1.0000
  H   H980      1.0  0.99517  0.70932  0.76936  1.0000
  C   C572      1.0  0.23506  0.81192  0.68390  1.0000
  H   H981      1.0  0.03414  0.70578  0.72786  1.0000
  H   H982      1.0  0.07919  0.66925  0.73098  1.0000
  H   H983      1.0  0.20418  0.58410  0.90021  1.0000
  H   H984      1.0  0.15247  0.92660  0.78283  1.0000
  H   H985      1.0  0.23085  0.67633  0.68018  1.0000
  C   C573      1.0  0.23381  0.59150  0.84083  1.0000
  C   C574      1.0  0.22175  0.97306  0.82279  1.0000
  H   H986      1.0  0.21907  0.74959  0.66626  1.0000
  C   C575      1.0  0.23257  0.73021  0.92539  1.0000
  C   C576      1.0  0.17600  0.84871  0.67478  1.0000
  H   H987      1.0  0.00654  0.81030  0.74220  1.0000
  H   H988      1.0  0.19511  0.74355  0.65431  1.0000
  C   C577      1.0  0.23502  0.72676  0.95897  1.0000
  H   H989      1.0  0.15733  0.79739  0.66926  1.0000
  H   H990      1.0  0.22172  0.92496  0.70550  1.0000
  H   H991      1.0  0.00100  0.63475  0.84554  1.0000
  H   H992      1.0  0.19713  0.95651  0.70611  1.0000
  H   H993      1.0  0.17340  0.48916  0.67495  1.0000
  H   H994      1.0  0.17329  0.88458  0.79754  1.0000
  H   H995      1.0  0.02226  0.56921  0.85065  1.0000
  H   H996      1.0  0.07889  0.71800  0.77907  1.0000
  N   N42       1.0  0.17763  0.90655  0.81077  1.0000
  C   C578      1.0  0.06936  0.71458  0.77110  1.0000
  C   C579      1.0  0.19859  0.89738  0.81161  1.0000
  H   H997      1.0  0.17211  0.77784  0.70270  1.0000
  C   C580      1.0  0.23090  0.73694  0.66344  1.0000
  H   H998      1.0  0.22609  0.93747  0.77132  1.0000
  C   C581      1.0  0.20349  0.87490  0.81636  1.0000
  H   H999      1.0  0.20377  0.90213  0.82243  1.0000
  C   C582      1.0  0.16706  0.90223  0.84849  1.0000
  C   C583      1.0  0.13935  0.72897  0.66446  1.0000
  H   H1000     1.0  0.22468  0.60805  0.86372  1.0000
  C   C584      1.0  0.22223  0.55071  0.69633  1.0000
  H   H1001     1.0  0.09053  0.69661  0.70517  1.0000
  S   S174      1.0  0.20782  0.97564  0.77844  1.0000
  C   C585      1.0  0.22881  0.56266  0.70459  1.0000
  H   H1002     1.0  0.16298  0.88412  0.83080  1.0000
  S   S175      1.0  0.16616  0.66422  0.66941  1.0000
  C   C586      1.0  0.18582  0.78323  0.69933  1.0000
  H   H1003     1.0  0.20189  0.93496  0.80921  1.0000
  S   S176      1.0  0.99618  0.74448  0.68235  1.0000
  H   H1004     1.0  0.18097  0.95375  0.81284  1.0000
  Fe  Fe91      1.0  0.20948  0.64109  0.95118  1.0000
  C   C587      1.0  0.15343  0.91070  0.78840  1.0000
  H   H1005     1.0  0.19793  0.69639  0.69268  1.0000
  H   H1006     1.0  0.22518  0.92989  0.67922  1.0000
  H   H1007     1.0  0.09285  0.70870  0.74735  1.0000
  H   H1008     1.0  0.23920  0.88805  0.77094  1.0000
  H   H1009     1.0  0.01795  0.80314  0.71911  1.0000
  C   C588      1.0  0.23486  0.82996  0.68768  1.0000
  C   C589      1.0  0.99875  0.61212  0.83221  1.0000
  H   H1010     1.0  0.22482  0.83477  0.70014  1.0000
  H   H1011     1.0  0.22557  0.80273  0.69385  1.0000
  C   C590      1.0  0.19050  0.50998  0.69619  1.0000
  H   H1012     1.0  0.16216  0.85415  0.66969  1.0000
  H   H1013     1.0  0.22102  0.53610  0.70402  1.0000
  C   C591      1.0  0.04982  0.70452  0.72092  1.0000
  H   H1014     1.0  0.07669  0.65532  0.77137  1.0000
  H   H1015     1.0  0.21308  0.58144  0.92163  1.0000
  C   C592      1.0  0.22240  0.71361  0.96491  1.0000
  H   H1016     1.0  0.21094  0.66401  0.68629  1.0000
  C   C593      1.0  0.22805  0.59244  0.86268  1.0000
  H   H1017     1.0  0.15206  0.80527  0.69170  1.0000
  C   C594      1.0  0.18201  0.73573  0.68490  1.0000
  H   H1018     1.0  0.18493  0.79276  0.70946  1.0000
  H   H1019     1.0  0.05227  0.65779  0.78516  1.0000
  C   C595      1.0  0.22633  0.58824  0.67556  1.0000
  H   H1020     1.0  0.20205  0.92699  0.69419  1.0000
  H   H1021     1.0  0.17536  0.85681  0.68614  1.0000
  C   C596      1.0  0.21782  0.55746  0.67768  1.0000
  C   C597      1.0  0.08615  0.67913  0.73524  1.0000
  H   H1022     1.0  0.23623  0.73690  0.91013  1.0000
  H   H1023     1.0  0.19423  0.82326  0.68742  1.0000
  H   H1024     1.0  0.22225  0.60127  0.83338  1.0000
  S   S177      1.0  0.23094  0.83861  0.73532  1.0000
  C   C598      1.0  0.00177  0.67307  0.79267  1.0000
  H   H1025     1.0  0.21198  0.82672  0.65303  1.0000
  H   H1026     1.0  0.00087  0.79071  0.70065  1.0000
  H   H1027     1.0  0.99919  0.81369  0.68488  1.0000
  H   H1028     1.0  0.00018  0.79080  0.73651  1.0000
  C   C599      1.0  0.23542  0.58470  0.89527  1.0000
  C   C600      1.0  0.23615  0.96653  0.65477  1.0000
  H   H1029     1.0  0.23053  0.53525  0.79964  1.0000
  H   H1030     1.0  0.14769  0.49133  0.67918  1.0000
  H   H1031     1.0  0.22571  0.95808  0.65397  1.0000
  H   H1032     1.0  0.14588  0.83313  0.65274  1.0000
  S   S178      1.0  0.23464  0.55453  0.72785  1.0000
  H   H1033     1.0  0.23622  0.59064  0.70036  1.0000
  S   S179      1.0  0.23443  0.49372  0.81457  1.0000
  H   H1034     1.0  0.23490  0.57667  0.83852  1.0000
  H   H1035     1.0  0.01022  0.67654  0.77750  1.0000
  H   H1036     1.0  0.99571  0.83115  0.70984  1.0000
  H   H1037     1.0  0.23043  0.98232  0.65015  1.0000
  C   C601      1.0  0.15419  0.70117  0.64892  1.0000
  S   S180      1.0  0.20188  0.48531  0.78328  1.0000
  H   H1038     1.0  0.23841  0.94267  0.71250  1.0000
  C   C602      1.0  0.24024  0.73496  0.93915  1.0000
  H   H1039     1.0  0.24851  0.32502  0.99331  1.0000
  H   H1040     1.0  0.39543  0.04530  0.17565  1.0000
  N   N43       1.0  0.47758  0.17384  0.27110  1.0000
  H   H1041     1.0  0.46031  0.28252  0.19594  1.0000
  C   C603      1.0  0.47099  0.21099  0.26972  1.0000
  S   S181      1.0  0.31126  0.14094  0.03368  1.0000
  H   H1042     1.0  0.26238  0.18070  0.07549  1.0000
  C   C604      1.0  0.24167  0.18963  0.99285  1.0000
  Fe  Fe92      1.0  0.29612  0.37711  0.21553  1.0000
  S   S182      1.0  0.28064  0.40342  0.19731  1.0000
  S   S183      1.0  0.28701  0.36967  0.24817  1.0000
  Fe  Fe93      1.0  0.32325  0.36258  0.18031  1.0000
  S   S184      1.0  0.31016  0.38798  0.15931  1.0000
  S   S185      1.0  0.34318  0.33614  0.16998  1.0000
  Fe  Fe94      1.0  0.31065  0.40620  0.18023  1.0000
  S   S186      1.0  0.32134  0.43479  0.16976  1.0000
  Fe  Fe95      1.0  0.28151  0.38275  0.17840  1.0000
  H   H1043     1.0  0.36508  0.06475  0.14055  1.0000
  S   S187      1.0  0.32626  0.38097  0.19973  1.0000
  S   S188      1.0  0.29457  0.35639  0.19819  1.0000
  Fe  Fe96      1.0  0.33040  0.17983  0.11675  1.0000
  S   S189      1.0  0.31853  0.15366  0.13478  1.0000
  S   S190      1.0  0.33507  0.18856  0.08368  1.0000
  Fe  Fe97      1.0  0.33029  0.19498  0.15283  1.0000
  S   S191      1.0  0.31788  0.17012  0.17351  1.0000
  S   S192      1.0  0.33425  0.21904  0.16554  1.0000
  Fe  Fe98      1.0  0.33913  0.15144  0.15402  1.0000
  S   S193      1.0  0.35797  0.12366  0.16700  1.0000
  Fe  Fe99      1.0  0.29834  0.17468  0.15262  1.0000
  S   S194      1.0  0.26706  0.17165  0.16248  1.0000
  S   S195      1.0  0.35307  0.17600  0.13449  1.0000
  S   S196      1.0  0.30878  0.20107  0.13349  1.0000
  Fe  Fe100     1.0  0.46128  0.23416  0.21209  1.0000
  S   S197      1.0  0.44410  0.25389  0.23239  1.0000
  Fe  Fe101     1.0  0.42473  0.23016  0.20064  1.0000
  S   S198      1.0  0.40437  0.24957  0.22025  1.0000
  S   S199      1.0  0.41770  0.21389  0.18124  1.0000
  Fe  Fe102     1.0  0.42685  0.26834  0.20914  1.0000
  S   S200      1.0  0.41953  0.30109  0.20367  1.0000
  Fe  Fe103     1.0  0.42328  0.23364  0.24179  1.0000
  S   S201      1.0  0.41297  0.22481  0.27396  1.0000
  S   S202      1.0  0.44586  0.25038  0.18765  1.0000
  S   S203      1.0  0.44175  0.21246  0.22342  1.0000
  Fe  Fe104     1.0  0.37622  0.02142  0.26094  1.0000
  S   S204      1.0  0.34568  0.03261  0.27581  1.0000
  S   S205      1.0  0.40106  0.03519  0.26052  1.0000
  H   H1044     1.0  0.45293  0.19582  0.26300  1.0000
  Fe  Fe105     1.0  0.33833  0.03619  0.24671  1.0000
  S   S206      1.0  0.31751  0.06242  0.23400  1.0000
  Fe  Fe106     1.0  0.34225  0.00156  0.28073  1.0000
  H   H1045     1.0  0.31068  0.05869  0.30073  1.0000
  H   H1046     1.0  0.28533  0.21004  0.04639  1.0000
  S   S207      1.0  0.40399  0.13743  0.29376  1.0000
  H   H1047     1.0  0.36520  0.26135  0.11115  1.0000
  H   H1048     1.0  0.39653  0.14399  0.22423  1.0000
  H   H1049     1.0  0.28269  0.24309  0.09241  1.0000
  C   C605      1.0  0.30185  0.48421  0.20390  1.0000
  C   C606      1.0  0.40478  0.03922  0.28216  1.0000
  C   C607      1.0  0.40953  0.05691  0.28189  1.0000
  H   H1050     1.0  0.28441  0.42153  0.23847  1.0000
  H   H1051     1.0  0.45481  0.05623  0.29193  1.0000
  H   H1052     1.0  0.44903  0.07394  0.26074  1.0000
  S   S208      1.0  0.29466  0.17962  0.98823  1.0000
  H   H1053     1.0  0.40882  0.06854  0.26916  1.0000
  H   H1054     1.0  0.29937  0.07500  0.27017  1.0000
  Fe  Fe107     1.0  0.31122  0.15064  0.00133  1.0000
  C   C608      1.0  0.40982  0.20079  0.27959  1.0000
  C   C609      1.0  0.41333  0.18889  0.29733  1.0000
  H   H1055     1.0  0.44429  0.17179  0.25703  1.0000
  C   C610      1.0  0.40649  0.16171  0.28828  1.0000
  C   C611      1.0  0.40242  0.17376  0.27076  1.0000
  C   C612      1.0  0.40446  0.19324  0.26624  1.0000
  H   H1056     1.0  0.34268  0.06827  0.17440  1.0000
  C   C613      1.0  0.26676  0.06445  0.26810  1.0000
  H   H1057     1.0  0.24476  0.21027  0.11189  1.0000
  H   H1058     1.0  0.40171  0.20246  0.25251  1.0000
  C   C614      1.0  0.32854  0.08021  0.21619  1.0000
  C   C615      1.0  0.31727  0.09521  0.20483  1.0000
  C   C616      1.0  0.32607  0.10891  0.18991  1.0000
  C   C617      1.0  0.34622  0.10747  0.18615  1.0000
  C   C618      1.0  0.35741  0.09263  0.19768  1.0000
  C   C619      1.0  0.34857  0.07923  0.21281  1.0000
  H   H1059     1.0  0.30173  0.09617  0.20742  1.0000
  H   H1060     1.0  0.31731  0.12038  0.18111  1.0000
  H   H1061     1.0  0.37299  0.09150  0.19492  1.0000
  H   H1062     1.0  0.35732  0.06811  0.22182  1.0000
  C   C620      1.0  0.39441  0.21687  0.17634  1.0000
  C   C621      1.0  0.39259  0.20774  0.16216  1.0000
  C   C622      1.0  0.37423  0.20847  0.15866  1.0000
  C   C623      1.0  0.35751  0.21846  0.16924  1.0000
  C   C624      1.0  0.35930  0.22807  0.18308  1.0000
  C   C625      1.0  0.37771  0.22724  0.18669  1.0000
  H   H1063     1.0  0.40548  0.19987  0.15396  1.0000
  H   H1064     1.0  0.37304  0.20129  0.14775  1.0000
  H   H1065     1.0  0.34638  0.23580  0.19135  1.0000
  H   H1066     1.0  0.37895  0.23432  0.19766  1.0000
  C   C626      1.0  0.31419  0.45302  0.18388  1.0000
  C   C627      1.0  0.32457  0.46813  0.17902  1.0000
  H   H1067     1.0  0.36577  0.18778  0.00327  1.0000
  C   C628      1.0  0.34118  0.05812  0.16584  1.0000
  C   C629      1.0  0.29176  0.46884  0.20914  1.0000
  C   C630      1.0  0.29785  0.45334  0.19912  1.0000
  H   H1068     1.0  0.33743  0.46780  0.16748  1.0000
  H   H1069     1.0  0.40903  0.17196  0.21045  1.0000
  H   H1070     1.0  0.27907  0.46909  0.22081  1.0000
  H   H1071     1.0  0.28979  0.44178  0.20292  1.0000
  C   C631      1.0  0.36521  0.32719  0.17797  1.0000
  C   C632      1.0  0.37299  0.33870  0.18563  1.0000
  C   C633      1.0  0.39003  0.33074  0.19304  1.0000
  C   C634      1.0  0.39909  0.31120  0.19308  1.0000
  C   C635      1.0  0.39150  0.29981  0.18511  1.0000
  C   C636      1.0  0.37471  0.30788  0.17734  1.0000
  H   H1072     1.0  0.36590  0.35371  0.18580  1.0000
  H   H1073     1.0  0.39599  0.33963  0.19904  1.0000
  H   H1074     1.0  0.39857  0.28479  0.18488  1.0000
  H   H1075     1.0  0.36888  0.29901  0.17121  1.0000
  H   H1076     1.0  0.25920  0.37417  0.22446  1.0000
  N   N44       1.0  0.26908  0.20083  0.08938  1.0000
  H   H1077     1.0  0.48569  0.33267  0.14767  1.0000
  C   C637      1.0  0.35128  0.00198  0.17178  1.0000
  C   C638      1.0  0.25244  0.21101  0.15098  1.0000
  C   C639      1.0  0.34911  0.06591  0.14408  1.0000
  S   S209      1.0  0.25580  0.38268  0.16611  1.0000
  H   H1078     1.0  0.46719  0.32416  0.14102  1.0000
  H   H1079     1.0  0.26648  0.21354  0.15106  1.0000
  H   H1080     1.0  0.39038  0.29213  0.25809  1.0000
  H   H1081     1.0  0.48596  0.24933  0.23410  1.0000
  C   C640      1.0  0.26568  0.32530  0.16431  1.0000
  C   C641      1.0  0.26641  0.34290  0.16859  1.0000
  H   H1082     1.0  0.46489  0.15583  0.24542  1.0000
  C   C642      1.0  0.41212  0.16925  0.30145  1.0000
  H   H1083     1.0  0.26909  0.41746  0.26191  1.0000
  H   H1084     1.0  0.27406  0.31180  0.17093  1.0000
  H   H1085     1.0  0.27531  0.34274  0.17843  1.0000
  C   C643      1.0  0.24440  0.34038  0.98574  1.0000
  H   H1086     1.0  0.48796  0.03055  0.25515  1.0000
  C   C644      1.0  0.28808  0.07463  0.28389  1.0000
  C   C645      1.0  0.28980  0.04031  0.28567  1.0000
  H   H1087     1.0  0.41943  0.07315  0.29731  1.0000
  H   H1088     1.0  0.35898  0.30819  0.21704  1.0000
  H   H1089     1.0  0.37331  0.05057  0.19270  1.0000
  N   N45       1.0  0.27604  0.05980  0.28564  1.0000
  C   C646      1.0  0.32880  0.17501  0.06982  1.0000
  C   C647      1.0  0.32376  0.15686  0.07824  1.0000
  C   C648      1.0  0.31850  0.14661  0.06694  1.0000
  C   C649      1.0  0.31819  0.15437  0.04714  1.0000
  C   C650      1.0  0.32312  0.17257  0.03871  1.0000
  C   C651      1.0  0.32849  0.18281  0.05001  1.0000
  H   H1090     1.0  0.32403  0.15065  0.09341  1.0000
  H   H1091     1.0  0.31469  0.13254  0.07356  1.0000
  H   H1092     1.0  0.32268  0.17878  0.02356  1.0000
  H   H1093     1.0  0.33228  0.19689  0.04341  1.0000
  H   H1094     1.0  0.34391  0.04337  0.20282  1.0000
  H   H1095     1.0  0.39342  0.16908  0.00963  1.0000
  H   H1096     1.0  0.47262  0.06462  0.24793  1.0000
  H   H1097     1.0  0.38131  0.28527  0.24081  1.0000
  H   H1098     1.0  0.36638  0.32102  0.25986  1.0000
  H   H1099     1.0  0.25144  0.04813  0.30443  1.0000
  H   H1100     1.0  0.25629  0.16830  0.11929  1.0000
  C   C652      1.0  0.34700  0.30521  0.22974  1.0000
  C   C653      1.0  0.40585  0.02421  0.29864  1.0000
  C   C654      1.0  0.32866  0.30812  0.22158  1.0000
  C   C655      1.0  0.31064  0.31857  0.26530  1.0000
  H   H1101     1.0  0.36471  0.16491  0.99783  1.0000
  H   H1102     1.0  0.33677  0.31419  0.27576  1.0000
  H   H1103     1.0  0.37907  0.03429  0.15558  1.0000
  H   H1104     1.0  0.46090  0.02377  0.30795  1.0000
  C   C656      1.0  0.25422  0.32509  0.15153  1.0000
  S   S210      1.0  0.44650  0.09533  0.30460  1.0000
  C   C657      1.0  0.31959  0.03284  0.20112  1.0000
  H   H1105     1.0  0.24348  0.23400  0.07538  1.0000
  H   H1106     1.0  0.35501  0.35322  0.24922  1.0000
  H   H1107     1.0  0.32995  0.02746  0.16279  1.0000
  H   H1108     1.0  0.28747  0.18083  0.07123  1.0000
  H   H1109     1.0  0.25893  0.21445  0.05145  1.0000
  C   C658      1.0  0.25403  0.42562  0.23725  1.0000
  H   H1110     1.0  0.33226  0.29949  0.21003  1.0000
  H   H1111     1.0  0.30252  0.30685  0.27339  1.0000
  H   H1112     1.0  0.30560  0.32450  0.25143  1.0000
  H   H1113     1.0  0.30577  0.33000  0.27422  1.0000
  H   H1114     1.0  0.35480  0.28676  0.10662  1.0000
  H   H1115     1.0  0.45394  0.00109  0.29202  1.0000
  H   H1116     1.0  0.48406  0.27141  0.19854  1.0000
  N   N46       1.0  0.38063  0.15171  0.20096  1.0000
  C   C659      1.0  0.36983  0.13517  0.20909  1.0000
  C   C660      1.0  0.38417  0.15531  0.17900  1.0000
  C   C661      1.0  0.36901  0.17011  0.20762  1.0000
  C   C662      1.0  0.39989  0.14000  0.16927  1.0000
  C   C663      1.0  0.34829  0.17679  0.20353  1.0000
  C   C664      1.0  0.41269  0.16144  0.20061  1.0000
  H   H1117     1.0  0.35678  0.13788  0.20262  1.0000
  H   H1118     1.0  0.38814  0.16966  0.17219  1.0000
  H   H1119     1.0  0.37058  0.15619  0.17410  1.0000
  H   H1120     1.0  0.36793  0.16879  0.22348  1.0000
  H   H1121     1.0  0.37657  0.18249  0.20041  1.0000
  H   H1122     1.0  0.37542  0.12483  0.23901  1.0000
  H   H1123     1.0  0.41466  0.14043  0.17060  1.0000
  H   H1124     1.0  0.39706  0.12506  0.17509  1.0000
  H   H1125     1.0  0.39981  0.14336  0.15343  1.0000
  H   H1126     1.0  0.33879  0.16630  0.21166  1.0000
  H   H1127     1.0  0.34849  0.17945  0.18775  1.0000
  H   H1128     1.0  0.34148  0.19086  0.20823  1.0000
  H   H1129     1.0  0.41186  0.16987  0.18570  1.0000
  H   H1130     1.0  0.42814  0.15392  0.19983  1.0000
  C   C665      1.0  0.34565  0.02402  0.16339  1.0000
  H   H1131     1.0  0.27567  0.15848  0.10064  1.0000
  C   C666      1.0  0.25882  0.08610  0.26013  1.0000
  H   H1132     1.0  0.27466  0.02553  0.27247  1.0000
  H   H1133     1.0  0.34970  0.34258  0.22186  1.0000
  C   C667      1.0  0.39944  0.14624  0.20806  1.0000
  H   H1134     1.0  0.26990  0.01968  0.29901  1.0000
  H   H1135     1.0  0.47655  0.14313  0.27695  1.0000
  H   H1136     1.0  0.25041  0.08711  0.24894  1.0000
  S   S211      1.0  0.25437  0.30266  0.14617  1.0000
  H   H1137     1.0  0.40248  0.01042  0.29885  1.0000
  H   H1138     1.0  0.44699  0.14609  0.26476  1.0000
  H   H1139     1.0  0.37635  0.06444  0.16805  1.0000
  H   H1140     1.0  0.39487  0.15129  0.98608  1.0000
  H   H1141     1.0  0.25884  0.23803  0.10164  1.0000
  C   C668      1.0  0.41568  0.05949  0.29779  1.0000
  C   C669      1.0  0.45517  0.15814  0.25953  1.0000
  H   H1142     1.0  0.45225  0.31350  0.17526  1.0000
  C   C670      1.0  0.36301  0.13039  0.23145  1.0000
  H   H1143     1.0  0.34771  0.16542  0.30942  1.0000
  H   H1144     1.0  0.48673  0.29500  0.14521  1.0000
  C   C671      1.0  0.25206  0.36745  0.27379  1.0000
  C   C672      1.0  0.47461  0.28587  0.19533  1.0000
  H   H1145     1.0  0.37792  0.02006  0.17949  1.0000
  H   H1146     1.0  0.25546  0.40994  0.23743  1.0000
  C   C673      1.0  0.47068  0.32989  0.15227  1.0000
  H   H1147     1.0  0.31085  0.04768  0.19733  1.0000
  H   H1148     1.0  0.31539  0.02251  0.19477  1.0000
  H   H1149     1.0  0.32021  0.33496  0.14034  1.0000
  H   H1150     1.0  0.35465  0.11855  0.23528  1.0000
  H   H1151     1.0  0.47354  0.15185  0.31155  1.0000
  C   C674      1.0  0.36239  0.18094  0.99281  1.0000
  N   N47       1.0  0.32634  0.28471  0.14290  1.0000
  C   C675      1.0  0.31984  0.27865  0.16467  1.0000
  C   C676      1.0  0.31008  0.28490  0.13337  1.0000
  C   C677      1.0  0.33104  0.30479  0.13737  1.0000
  C   C678      1.0  0.34445  0.27040  0.13627  1.0000
  C   C679      1.0  0.33328  0.28070  0.17712  1.0000
  C   C680      1.0  0.30437  0.26506  0.13624  1.0000
  C   C681      1.0  0.31461  0.32123  0.14440  1.0000
  C   C682      1.0  0.35151  0.27224  0.11401  1.0000
  H   H1152     1.0  0.30499  0.28686  0.16984  1.0000
  H   H1153     1.0  0.31854  0.26305  0.16872  1.0000
  H   H1154     1.0  0.31344  0.29107  0.11745  1.0000
  H   H1155     1.0  0.29655  0.29473  0.13916  1.0000
  H   H1156     1.0  0.34414  0.30489  0.14266  1.0000
  H   H1157     1.0  0.33487  0.30950  0.12127  1.0000
  H   H1158     1.0  0.35688  0.27171  0.14186  1.0000
  H   H1159     1.0  0.34248  0.25517  0.14244  1.0000
  H   H1160     1.0  0.32747  0.27482  0.19268  1.0000
  H   H1161     1.0  0.34825  0.27225  0.17339  1.0000
  H   H1162     1.0  0.33373  0.29613  0.17596  1.0000
  H   H1163     1.0  0.31662  0.25389  0.13066  1.0000
  H   H1164     1.0  0.29821  0.25943  0.15175  1.0000
  H   H1165     1.0  0.29273  0.26705  0.12806  1.0000
  H   H1166     1.0  0.30955  0.31842  0.16045  1.0000
  H   H1167     1.0  0.30213  0.32409  0.13718  1.0000
  C   C683      1.0  0.26202  0.36948  0.25429  1.0000
  H   H1168     1.0  0.34095  0.26894  0.10724  1.0000
  H   H1169     1.0  0.37896  0.12147  0.20491  1.0000
  H   H1170     1.0  0.45494  0.04930  0.25808  1.0000
  H   H1171     1.0  0.39806  0.16796  0.26054  1.0000
  H   H1172     1.0  0.30525  0.08433  0.29877  1.0000
  H   H1173     1.0  0.40803  0.13185  0.20508  1.0000
  H   H1174     1.0  0.35315  0.14293  0.23724  1.0000
  C   C684      1.0  0.24681  0.07689  0.30904  1.0000
  C   C685      1.0  0.29858  0.07156  0.30077  1.0000
  N   N48       1.0  0.35007  0.03737  0.17391  1.0000
  C   C686      1.0  0.40671  0.17442  0.00114  1.0000
  H   H1175     1.0  0.27091  0.09392  0.25266  1.0000
  H   H1176     1.0  0.35067  0.28933  0.23587  1.0000
  H   H1177     1.0  0.34658  0.18618  0.99299  1.0000
  H   H1178     1.0  0.36781  0.28391  0.26585  1.0000
  H   H1179     1.0  0.34251  0.08165  0.14034  1.0000
  C   C687      1.0  0.37938  0.04969  0.17727  1.0000
  C   C688      1.0  0.33999  0.35242  0.24906  1.0000
  H   H1180     1.0  0.27936  0.08965  0.28251  1.0000
  H   H1181     1.0  0.45558  0.15760  0.28906  1.0000
  H   H1182     1.0  0.41882  0.16168  0.99942  1.0000
  H   H1183     1.0  0.34497  0.05851  0.13454  1.0000
  H   H1184     1.0  0.47427  0.06815  0.28001  1.0000
  C   C689      1.0  0.34163  0.03270  0.19544  1.0000
  H   H1185     1.0  0.41739  0.19479  0.30769  1.0000
  C   C690      1.0  0.37677  0.29247  0.25354  1.0000
  H   H1186     1.0  0.30216  0.04126  0.27288  1.0000
  H   H1187     1.0  0.29645  0.03575  0.29871  1.0000
  C   C691      1.0  0.47204  0.29576  0.21260  1.0000
  H   H1188     1.0  0.24896  0.09368  0.27149  1.0000
  H   H1189     1.0  0.27740  0.05916  0.25549  1.0000
  H   H1190     1.0  0.27505  0.19304  0.11863  1.0000
  C   C692      1.0  0.25167  0.37287  0.23951  1.0000
  C   C693      1.0  0.24317  0.34260  0.14327  1.0000
  C   C694      1.0  0.28090  0.02310  0.28555  1.0000
  H   H1191     1.0  0.34287  0.99762  0.18672  1.0000
  H   H1192     1.0  0.33490  0.29409  0.26708  1.0000
  C   C695      1.0  0.37187  0.03452  0.17108  1.0000
  C   C696      1.0  0.27236  0.20320  0.05208  1.0000
  C   C697      1.0  0.41800  0.04406  0.31369  1.0000
  H   H1193     1.0  0.29438  0.18367  0.10087  1.0000
  C   C698      1.0  0.46093  0.06082  0.26058  1.0000
  H   H1194     1.0  0.27996  0.15783  0.12390  1.0000
  H   H1195     1.0  0.33180  0.34844  0.26416  1.0000
  N   N49       1.0  0.48186  0.29739  0.17542  1.0000
  C   C699      1.0  0.31841  0.48371  0.18893  1.0000
  H   H1196     1.0  0.46994  0.28487  0.22646  1.0000
  N   N50       1.0  0.34596  0.31703  0.24452  1.0000
  H   H1197     1.0  0.35344  0.02632  0.14787  1.0000
  H   H1198     1.0  0.27316  0.19366  0.04193  1.0000
  C   C700      1.0  0.27824  0.18674  0.10543  1.0000
  C   C701      1.0  0.27196  0.16682  0.11243  1.0000
  C   C702      1.0  0.48967  0.17536  0.25055  1.0000
  C   C703      1.0  0.46289  0.19245  0.27328  1.0000
  H   H1199     1.0  0.25241  0.17962  0.00047  1.0000
  H   H1200     1.0  0.32377  0.32338  0.21438  1.0000
  S   S212      1.0  0.33154  0.00637  0.25319  1.0000
  H   H1201     1.0  0.34928  0.01828  0.20248  1.0000
  C   C704      1.0  0.33276  0.31028  0.26359  1.0000
  C   C705      1.0  0.48051  0.16470  0.30743  1.0000
  H   H1202     1.0  0.46062  0.34420  0.15293  1.0000
  C   C706      1.0  0.27447  0.23111  0.09844  1.0000
  H   H1203     1.0  0.39598  0.20226  0.98365  1.0000
  H   H1204     1.0  0.48486  0.30170  0.21201  1.0000
  H   H1205     1.0  0.29501  0.21322  0.07937  1.0000
  H   H1206     1.0  0.27906  0.22313  0.11219  1.0000
  H   H1207     1.0  0.25352  0.08984  0.30472  1.0000
  C   C707      1.0  0.46795  0.05563  0.28004  1.0000
  C   C708      1.0  0.27890  0.21813  0.08329  1.0000
  Fe  Fe108     1.0  0.36281  0.99652  0.24014  1.0000
  C   C709      1.0  0.36633  0.31387  0.24798  1.0000
  C   C710      1.0  0.48196  0.28660  0.16009  1.0000
  C   C711      1.0  0.26238  0.48407  0.26396  1.0000
  H   H1208     1.0  0.26956  0.44215  0.24790  1.0000
  S   S213      1.0  0.36897  0.02667  0.23145  1.0000
  C   C712      1.0  0.25545  0.36047  0.16037  1.0000
  H   H1209     1.0  0.25382  0.48171  0.30785  1.0000
  H   H1210     1.0  0.27498  0.22810  0.06990  1.0000
  H   H1211     1.0  0.48087  0.18471  0.23977  1.0000
  H   H1212     1.0  0.29491  0.46558  0.14413  1.0000
  H   H1213     1.0  0.37598  0.32074  0.23476  1.0000
  S   S214      1.0  0.29886  0.13340  0.98720  1.0000
  C   C713      1.0  0.27283  0.19052  0.07265  1.0000
  H   H1214     1.0  0.25457  0.05664  0.27115  1.0000
  H   H1215     1.0  0.31675  0.30249  0.23281  1.0000
  C   C714      1.0  0.33997  0.33843  0.23617  1.0000
  H   H1216     1.0  0.26932  0.46837  0.26643  1.0000
  H   H1217     1.0  0.45335  0.19087  0.28802  1.0000
  H   H1218     1.0  0.32527  0.34220  0.23281  1.0000
  H   H1219     1.0  0.33276  0.36736  0.24286  1.0000
  C   C715      1.0  0.24897  0.19200  0.15629  1.0000
  H   H1220     1.0  0.46692  0.28481  0.16089  1.0000
  H   H1221     1.0  0.45867  0.22323  0.27282  1.0000
  H   H1222     1.0  0.35696  0.18726  0.30144  1.0000
  H   H1223     1.0  0.32523  0.05990  0.16733  1.0000
  H   H1224     1.0  0.44649  0.02555  0.28074  1.0000
  N   N51       1.0  0.48206  0.03655  0.28427  1.0000
  C   C716      1.0  0.45955  0.01421  0.28309  1.0000
  H   H1225     1.0  0.46816  0.01027  0.26915  1.0000
  C   C717      1.0  0.26091  0.05807  0.30433  1.0000
  C   C718      1.0  0.28948  0.48123  0.14481  1.0000
  H   H1226     1.0  0.25821  0.43228  0.22165  1.0000
  C   C719      1.0  0.46651  0.15764  0.27511  1.0000
  H   H1227     1.0  0.46671  0.32519  0.18321  1.0000
  H   H1228     1.0  0.26002  0.36469  0.28529  1.0000
  H   H1229     1.0  0.31546  0.02823  0.21720  1.0000
  H   H1230     1.0  0.28043  0.48484  0.28324  1.0000
  H   H1231     1.0  0.48102  0.20966  0.27943  1.0000
  H   H1232     1.0  0.41055  0.18277  0.01005  1.0000
  C   C720      1.0  0.46723  0.31633  0.17252  1.0000
  H   H1233     1.0  0.29263  0.00987  0.28520  1.0000
  H   H1234     1.0  0.24810  0.46287  0.21574  1.0000
  C   C721      1.0  0.24758  0.20630  0.09741  1.0000
  C   C722      1.0  0.26993  0.42698  0.24719  1.0000
  C   C723      1.0  0.47144  0.02015  0.29464  1.0000
  H   H1235     1.0  0.48189  0.00677  0.29978  1.0000
  S   S215      1.0  0.37344  0.98996  0.26812  1.0000
  H   H1236     1.0  0.45876  0.30743  0.21345  1.0000
  H   H1237     1.0  0.47812  0.21517  0.25423  1.0000
  H   H1238     1.0  0.28540  0.48172  0.16055  1.0000
  H   H1239     1.0  0.34796  0.99367  0.16250  1.0000
  H   H1240     1.0  0.36704  0.99720  0.17182  1.0000
  H   H1241     1.0  0.46984  0.17765  0.31156  1.0000
  C   C724      1.0  0.24370  0.36025  0.14778  1.0000
  H   H1242     1.0  0.24713  0.48456  0.27179  1.0000
  C   C725      1.0  0.34957  0.17787  0.31444  1.0000
  H   H1243     1.0  0.25779  0.34648  0.98150  1.0000
  C   C726      1.0  0.41269  0.02655  0.31426  1.0000
  C   C727      1.0  0.49062  0.16844  0.28569  1.0000
  C   C728      1.0  0.33453  0.16075  0.35496  1.0000
  S   S216      1.0  0.34285  0.09753  0.62064  1.0000
  H   H1244     1.0  0.37722  0.16666  0.32254  1.0000
  C   C729      1.0  0.30061  0.06852  0.59805  1.0000
  S   S217      1.0  0.32496  0.14043  0.63202  1.0000
  S   S218      1.0  0.27400  0.04552  0.35648  1.0000
  Fe  Fe109     1.0  0.32056  0.12381  0.61161  1.0000
  S   S219      1.0  0.31518  0.13788  0.58126  1.0000
  Fe  Fe110     1.0  0.46254  0.10270  0.32368  1.0000
  H   H1245     1.0  0.27266  0.14580  0.58072  1.0000
  H   H1246     1.0  0.27716  0.05456  0.57854  1.0000
  C   C730      1.0  0.28906  0.03863  0.40628  1.0000
  H   H1247     1.0  0.38487  0.08185  0.50036  1.0000
  H   H1248     1.0  0.44952  0.16432  0.62882  1.0000
  H   H1249     1.0  0.27194  0.04900  0.62268  1.0000
  C   C731      1.0  0.25942  0.07413  0.39994  1.0000
  C   C732      1.0  0.32657  0.14676  0.37353  1.0000
  H   H1250     1.0  0.36217  0.18546  0.33434  1.0000
  H   H1251     1.0  0.27840  0.10264  0.54248  1.0000
  Fe  Fe111     1.0  0.42703  0.10471  0.35696  1.0000
  S   S220      1.0  0.41590  0.11236  0.38674  1.0000
  C   C733      1.0  0.31554  0.05322  0.58757  1.0000
  S   S221      1.0  0.45239  0.08050  0.34994  1.0000
  S   S222      1.0  0.25353  0.13714  0.50005  1.0000
  Fe  Fe112     1.0  0.31350  0.10869  0.45336  1.0000
  S   S223      1.0  0.32412  0.07889  0.46997  1.0000
  S   S224      1.0  0.32594  0.11767  0.42125  1.0000
  Fe  Fe113     1.0  0.27949  0.11711  0.48652  1.0000
  S   S225      1.0  0.28707  0.08767  0.50538  1.0000
  H   H1252     1.0  0.30827  0.08025  0.59760  1.0000
  Fe  Fe114     1.0  0.31738  0.09319  0.49578  1.0000
  S   S226      1.0  0.33649  0.08501  0.51804  1.0000
  Fe  Fe115     1.0  0.29277  0.07641  0.47794  1.0000
  S   S227      1.0  0.28609  0.04860  0.47515  1.0000
  S   S228      1.0  0.30959  0.12345  0.47837  1.0000
  S   S229      1.0  0.28240  0.10541  0.45988  1.0000
  H   H1253     1.0  0.26451  0.13842  0.60680  1.0000
  C   C734      1.0  0.48269  0.04205  0.31808  1.0000
  H   H1254     1.0  0.42948  0.19971  0.64749  1.0000
  H   H1255     1.0  0.27893  0.19890  0.57156  1.0000
  H   H1256     1.0  0.26663  0.15363  0.45908  1.0000
  H   H1257     1.0  0.33145  0.06333  0.36251  1.0000
  H   H1258     1.0  0.25121  0.23096  0.46277  1.0000
  H   H1259     1.0  0.28739  0.98572  0.33145  1.0000
  H   H1260     1.0  0.33514  0.18673  0.31963  1.0000
  C   C735      1.0  0.26262  0.03615  0.45868  1.0000
  C   C736      1.0  0.26511  0.05137  0.46593  1.0000
  H   H1261     1.0  0.30092  0.02333  0.64674  1.0000
  H   H1262     1.0  0.41441  0.01456  0.32654  1.0000
  H   H1263     1.0  0.27313  0.02256  0.45961  1.0000
  C   C737      1.0  0.40567  0.16161  0.64390  1.0000
  C   C738      1.0  0.39098  0.11341  0.39653  1.0000
  C   C739      1.0  0.38155  0.12464  0.41069  1.0000
  C   C740      1.0  0.36169  0.12542  0.41896  1.0000
  C   C741      1.0  0.35120  0.11498  0.41305  1.0000
  C   C742      1.0  0.36059  0.10391  0.39878  1.0000
  C   C743      1.0  0.38047  0.10295  0.39069  1.0000
  H   H1264     1.0  0.38959  0.13292  0.41509  1.0000
  H   H1265     1.0  0.35435  0.13454  0.42947  1.0000
  H   H1266     1.0  0.35247  0.09605  0.39395  1.0000
  H   H1267     1.0  0.38770  0.09390  0.38014  1.0000
  H   H1268     1.0  0.27945  0.08748  0.40652  1.0000
  H   H1269     1.0  0.32437  0.07121  0.42806  1.0000
  H   H1270     1.0  0.27968  0.03196  0.60655  1.0000
  H   H1271     1.0  0.41632  0.16411  0.63005  1.0000
  H   H1272     1.0  0.25032  0.13724  0.59047  1.0000
  C   C744      1.0  0.29330  0.99740  0.33299  1.0000
  H   H1273     1.0  0.35615  0.11373  0.33437  1.0000
  H   H1274     1.0  0.33032  0.14905  0.38659  1.0000
  H   H1275     1.0  0.36255  0.14656  0.37699  1.0000
  C   C745      1.0  0.26789  0.18436  0.55518  1.0000
  H   H1276     1.0  0.31380  0.04056  0.33667  1.0000
  H   H1277     1.0  0.31836  0.02022  0.39878  1.0000
  H   H1278     1.0  0.47014  0.05441  0.31717  1.0000
  H   H1279     1.0  0.29806  0.09675  0.56775  1.0000
  H   H1280     1.0  0.43534  0.18762  0.61944  1.0000
  H   H1281     1.0  0.29896  0.00736  0.40894  1.0000
  H   H1282     1.0  0.25184  0.07767  0.62622  1.0000
  C   C746      1.0  0.27643  0.07254  0.40980  1.0000
  H   H1283     1.0  0.30028  0.05049  0.43334  1.0000
  H   H1284     1.0  0.33353  0.04768  0.38505  1.0000
  C   C747      1.0  0.32183  0.12333  0.56350  1.0000
  C   C748      1.0  0.33480  0.10538  0.56585  1.0000
  C   C749      1.0  0.33958  0.09397  0.55157  1.0000
  C   C750      1.0  0.33104  0.10016  0.53512  1.0000
  C   C751      1.0  0.31804  0.11809  0.53279  1.0000
  C   C752      1.0  0.31365  0.12973  0.54682  1.0000
  H   H1285     1.0  0.34132  0.10038  0.57855  1.0000
  H   H1286     1.0  0.34975  0.08018  0.55341  1.0000
  H   H1287     1.0  0.31136  0.12299  0.52019  1.0000
  H   H1288     1.0  0.30366  0.14360  0.54485  1.0000
  C   C753      1.0  0.30467  0.01993  0.40976  1.0000
  C   C754      1.0  0.36532  0.15822  0.36387  1.0000
  N   N52       1.0  0.25985  0.18150  0.59294  1.0000
  H   H1289     1.0  0.26697  0.00970  0.35130  1.0000
  H   H1290     1.0  0.47763  0.02888  0.32756  1.0000
  H   H1291     1.0  0.25582  0.18207  0.49709  1.0000
  H   H1292     1.0  0.30885  0.04182  0.58577  1.0000
  H   H1293     1.0  0.32165  0.08122  0.40349  1.0000
  H   H1294     1.0  0.30523  0.08085  0.38083  1.0000
  H   H1295     1.0  0.24500  0.20040  0.47903  1.0000
  S   S230      1.0  0.42942  0.04559  0.33190  1.0000
  C   C755      1.0  0.28170  0.01105  0.34408  1.0000
  C   C756      1.0  0.27430  0.18480  0.57387  1.0000
  H   H1296     1.0  0.39563  0.14272  0.35499  1.0000
  Fe  Fe116     1.0  0.31780  0.08732  0.64286  1.0000
  H   H1297     1.0  0.27070  0.06921  0.42579  1.0000
  C   C757      1.0  0.38758  0.15688  0.35877  1.0000
  H   H1298     1.0  0.32324  0.06011  0.57314  1.0000
  H   H1299     1.0  0.24364  0.25040  0.48777  1.0000
  H   H1300     1.0  0.25088  0.18208  0.43692  1.0000
  H   H1301     1.0  0.26218  0.21921  0.49990  1.0000
  C   C758      1.0  0.27197  0.09830  0.55821  1.0000
  C   C759      1.0  0.36212  0.17171  0.33008  1.0000
  C   C760      1.0  0.24307  0.17725  0.45154  1.0000
  H   H1302     1.0  0.32122  0.04493  0.41557  1.0000
  H   H1303     1.0  0.25070  0.20182  0.51808  1.0000
  C   C761      1.0  0.28898  0.02681  0.34512  1.0000
  H   H1304     1.0  0.27457  0.19489  0.54284  1.0000
  H   H1305     1.0  0.27675  0.03652  0.41886  1.0000
  H   H1306     1.0  0.29714  0.07564  0.56013  1.0000
  H   H1307     1.0  0.27385  0.16992  0.55108  1.0000
  H   H1308     1.0  0.27845  0.10465  0.59834  1.0000
  Fe  Fe117     1.0  0.24524  0.03859  0.37369  1.0000
  H   H1309     1.0  0.36391  0.12504  0.35752  1.0000
  C   C762      1.0  0.30769  0.05597  0.41814  1.0000
  C   C763      1.0  0.26277  0.08698  0.62279  1.0000
  H   H1310     1.0  0.28359  0.03842  0.39336  1.0000
  N   N53       1.0  0.38810  0.07781  0.46088  1.0000
  C   C764      1.0  0.38672  0.09881  0.46145  1.0000
  C   C765      1.0  0.40935  0.06834  0.45639  1.0000
  C   C766      1.0  0.37850  0.06700  0.48013  1.0000
  C   C767      1.0  0.37790  0.07727  0.44539  1.0000
  C   C768      1.0  0.36631  0.11020  0.46925  1.0000
  C   C769      1.0  0.42031  0.07453  0.43525  1.0000
  C   C770      1.0  0.38650  0.06697  0.49794  1.0000
  C   C771      1.0  0.37783  0.05687  0.44256  1.0000
  H   H1311     1.0  0.39658  0.10006  0.47038  1.0000
  H   H1312     1.0  0.39185  0.10714  0.44664  1.0000
  H   H1313     1.0  0.41145  0.05218  0.45975  1.0000
  H   H1314     1.0  0.41742  0.07155  0.46599  1.0000
  H   H1315     1.0  0.36254  0.07279  0.48322  1.0000
  H   H1316     1.0  0.37994  0.05144  0.47971  1.0000
  H   H1317     1.0  0.36240  0.08456  0.44854  1.0000
  H   H1318     1.0  0.38365  0.08599  0.43107  1.0000
  H   H1319     1.0  0.35523  0.11002  0.46131  1.0000
  H   H1320     1.0  0.36121  0.10483  0.48504  1.0000
  H   H1321     1.0  0.36703  0.12571  0.46744  1.0000
  H   H1322     1.0  0.41536  0.06908  0.42471  1.0000
  H   H1323     1.0  0.41894  0.09055  0.43067  1.0000
  H   H1324     1.0  0.43606  0.06809  0.43415  1.0000
  H   H1325     1.0  0.37798  0.05900  0.51123  1.0000
  H   H1326     1.0  0.40191  0.05931  0.49680  1.0000
  H   H1327     1.0  0.36477  0.05150  0.45199  1.0000
  H   H1328     1.0  0.39093  0.04590  0.44561  1.0000
  H   H1329     1.0  0.37768  0.05770  0.42706  1.0000
  S   S231      1.0  0.29528  0.11246  0.63233  1.0000
  H   H1330     1.0  0.35860  0.17225  0.36880  1.0000
  H   H1331     1.0  0.28849  0.07036  0.31519  1.0000
  C   C772      1.0  0.31214  0.99951  0.32304  1.0000
  C   C773      1.0  0.44579  0.18000  0.62911  1.0000
  H   H1332     1.0  0.39238  0.15789  0.37182  1.0000
  S   S232      1.0  0.24333  0.02033  0.40385  1.0000
  H   H1333     1.0  0.32681  0.04592  0.59640  1.0000
  C   C774      1.0  0.25000  0.21132  0.50343  1.0000
  H   H1334     1.0  0.29409  0.06606  0.37349  1.0000
  S   S233      1.0  0.31573  0.05629  0.64586  1.0000
  C   C775      1.0  0.28843  0.08661  0.56898  1.0000
  H   H1335     1.0  0.33166  0.13127  0.37233  1.0000
  H   H1336     1.0  0.32956  0.17578  0.35795  1.0000
  N   N54       1.0  0.29472  0.05789  0.40418  1.0000
  C   C776      1.0  0.32360  0.05357  0.37472  1.0000
  H   H1337     1.0  0.30159  0.08569  0.42382  1.0000
  N   N55       1.0  0.35630  0.15655  0.34787  1.0000
  C   C777      1.0  0.27090  0.17391  0.60933  1.0000
  C   C778      1.0  0.31402  0.07474  0.41811  1.0000
  C   C779      1.0  0.30386  0.06540  0.38332  1.0000
  H   H1338     1.0  0.32151  0.04156  0.36899  1.0000
  N   N56       1.0  0.28229  0.07709  0.59010  1.0000
  H   H1339     1.0  0.29750  0.06150  0.61362  1.0000
  H   H1340     1.0  0.26102  0.08964  0.55924  1.0000
  C   C780      1.0  0.27013  0.09296  0.60066  1.0000
  C   C781      1.0  0.27077  0.06206  0.59108  1.0000
  C   C782      1.0  0.24679  0.03859  0.44984  1.0000
  H   H1341     1.0  0.30770  0.01701  0.42462  1.0000
  C   C783      1.0  0.30809  0.02845  0.33581  1.0000
  H   H1342     1.0  0.28782  0.17342  0.57444  1.0000
  H   H1343     1.0  0.27470  0.07995  0.63071  1.0000
  C   C784      1.0  0.28233  0.18776  0.61247  1.0000
  H   H1344     1.0  0.26764  0.05072  0.31716  1.0000
  H   H1345     1.0  0.31043  0.14987  0.37613  1.0000
  H   H1346     1.0  0.45969  0.18517  0.62276  1.0000
  H   H1347     1.0  0.25431  0.21144  0.59643  1.0000
  H   H1348     1.0  0.25208  0.18824  0.55574  1.0000
  H   H1349     1.0  0.28176  0.16033  0.60713  1.0000
  H   H1350     1.0  0.39199  0.16901  0.34692  1.0000
  C   C785      1.0  0.25979  0.14591  0.59288  1.0000
  H   H1351     1.0  0.29213  0.19343  0.59888  1.0000
  C   C786      1.0  0.25130  0.06880  0.46494  1.0000
  C   C787      1.0  0.24807  0.16665  0.59409  1.0000
  S   S234      1.0  0.40814  0.09774  0.34060  1.0000
  C   C788      1.0  0.36412  0.13629  0.34381  1.0000
  H   H1352     1.0  0.37984  0.13457  0.33690  1.0000
  C   C789      1.0  0.25197  0.16116  0.46405  1.0000
  S   S235      1.0  0.43861  0.12732  0.33212  1.0000
  H   H1353     1.0  0.24502  0.02685  0.44416  1.0000
  Fe  Fe118     1.0  0.43414  0.07535  0.33146  1.0000
  C   C790      1.0  0.24616  0.20027  0.59663  1.0000
  H   H1354     1.0  0.26973  0.19810  0.47973  1.0000
  C   C791      1.0  0.35484  0.12980  0.33021  1.0000
  C   C792      1.0  0.25504  0.19741  0.48901  1.0000
  H   H1355     1.0  0.25288  0.08049  0.47082  1.0000
  H   H1356     1.0  0.33436  0.01625  0.31743  1.0000
  H   H1357     1.0  0.32665  0.16077  0.34373  1.0000
  H   H1358     1.0  0.41483  0.16017  0.31515  1.0000
  C   C793      1.0  0.24210  0.15535  0.48318  1.0000
  H   H1359     1.0  0.25473  0.04221  0.61355  1.0000
  H   H1360     1.0  0.26484  0.11211  0.56325  1.0000
  H   H1361     1.0  0.33912  0.13571  0.33131  1.0000
  H   H1362     1.0  0.27246  0.19992  0.61900  1.0000
  C   C794      1.0  0.26951  0.04564  0.60958  1.0000
  H   H1363     1.0  0.39098  0.16591  0.64028  1.0000
  Fe  Fe119     1.0  0.34492  0.11293  0.64321  1.0000
  C   C795      1.0  0.31967  0.01480  0.32479  1.0000
  H   H1364     1.0  0.24704  0.08541  0.40525  1.0000
  H   H1365     1.0  0.26323  0.07858  0.38386  1.0000
  H   H1366     1.0  0.29158  0.17953  0.62318  1.0000
  H   H1367     1.0  0.26087  0.16990  0.62341  1.0000
  H   H1368     1.0  0.25675  0.09993  0.59478  1.0000
  H   H1369     1.0  0.25563  0.06925  0.58941  1.0000
  H   H1370     1.0  0.25511  0.23594  0.52425  1.0000
  H   H1371     1.0  0.25524  0.10031  0.62866  1.0000
  H   H1372     1.0  0.24182  0.07503  0.32514  1.0000
  H   H1373     1.0  0.25389  0.06040  0.40396  1.0000
  Fe  Fe120     1.0  0.42180  0.11820  0.31516  1.0000
  H   H1374     1.0  0.24103  0.21568  0.56746  1.0000
  H   H1375     1.0  0.25717  0.31790  0.64778  1.0000
  H   H1376     1.0  0.36260  0.13336  0.31480  1.0000
  H   H1377     1.0  0.36712  0.37769  0.86616  1.0000
  C   C796      1.0  0.27940  0.06106  0.66996  1.0000
  H   H1378     1.0  0.34656  0.07289  0.79070  1.0000
  H   H1379     1.0  0.25159  0.06303  0.69013  1.0000
  S   S236      1.0  0.27578  0.01734  0.76916  1.0000
  H   H1380     1.0  0.27139  0.29270  0.72933  1.0000
  Fe  Fe121     1.0  0.29236  0.36422  0.83057  1.0000
  S   S237      1.0  0.28236  0.37947  0.85570  1.0000
  C   C797      1.0  0.48038  0.21112  0.79677  1.0000
  Fe  Fe122     1.0  0.33430  0.35533  0.83480  1.0000
  S   S238      1.0  0.32762  0.37008  0.86026  1.0000
  S   S239      1.0  0.36460  0.34211  0.82092  1.0000
  Fe  Fe123     1.0  0.30237  0.35469  0.87050  1.0000
  S   S240      1.0  0.29269  0.33975  0.90157  1.0000
  Fe  Fe124     1.0  0.30827  0.39355  0.84288  1.0000
  S   S241      1.0  0.30175  0.42648  0.83751  1.0000
  S   S242      1.0  0.31054  0.33813  0.84632  1.0000
  S   S243      1.0  0.31687  0.37995  0.81660  1.0000
  Fe  Fe125     1.0  0.42176  0.20782  0.87033  1.0000
  S   S244      1.0  0.40621  0.23576  0.85478  1.0000
  S   S245      1.0  0.40676  0.18306  0.88602  1.0000
  Fe  Fe126     1.0  0.46140  0.21920  0.85491  1.0000
  S   S246      1.0  0.44921  0.24848  0.83807  1.0000
  C   C798      1.0  0.25914  0.03676  0.67874  1.0000
  Fe  Fe127     1.0  0.42526  0.24952  0.86485  1.0000
  S   S247      1.0  0.40983  0.27567  0.87800  1.0000
  Fe  Fe128     1.0  0.43119  0.23220  0.82965  1.0000
  S   S248      1.0  0.42760  0.23556  0.79911  1.0000
  S   S249      1.0  0.43906  0.22155  0.88266  1.0000
  S   S250      1.0  0.44508  0.20297  0.84432  1.0000
  H   H1381     1.0  0.24634  0.23401  0.91358  1.0000
  S   S251      1.0  0.33243  0.20626  0.94902  1.0000
  Fe  Fe129     1.0  0.32430  0.13687  0.96223  1.0000
  S   S252      1.0  0.34020  0.11176  0.94711  1.0000
  S   S253      1.0  0.30912  0.16488  0.94632  1.0000
  Fe  Fe130     1.0  0.42281  0.11388  0.75412  1.0000
  S   S254      1.0  0.39311  0.13205  0.76105  1.0000
  S   S255      1.0  0.42863  0.08127  0.76081  1.0000
  S   S256      1.0  0.41280  0.16984  0.73821  1.0000
  Fe  Fe131     1.0  0.40821  0.15173  0.76846  1.0000
  S   S257      1.0  0.39618  0.16278  0.79632  1.0000
  Fe  Fe132     1.0  0.40025  0.14821  0.73028  1.0000
  S   S258      1.0  0.37633  0.15747  0.71309  1.0000
  S   S259      1.0  0.43748  0.13197  0.76448  1.0000
  Fe  Fe133     1.0  0.31440  0.07772  0.86372  1.0000
  S   S260      1.0  0.30605  0.10403  0.87779  1.0000
  Fe  Fe134     1.0  0.31325  0.06821  0.82543  1.0000
  S   S261      1.0  0.30210  0.08048  0.79755  1.0000
  Fe  Fe135     1.0  0.34848  0.05113  0.84403  1.0000
  S   S262      1.0  0.38055  0.03938  0.83882  1.0000
  S   S263      1.0  0.33361  0.08178  0.83390  1.0000
  H   H1382     1.0  0.40651  0.19955  0.70029  1.0000
  H   H1383     1.0  0.48910  0.21276  0.75878  1.0000
  C   C799      1.0  0.29340  0.04972  0.65787  1.0000
  H   H1384     1.0  0.28516  0.10357  0.97560  1.0000
  H   H1385     1.0  0.32662  0.10777  0.77476  1.0000
  H   H1386     1.0  0.35070  0.05399  0.67767  1.0000
  C   C800      1.0  0.41488  0.07019  0.78257  1.0000
  C   C801      1.0  0.42043  0.05015  0.78939  1.0000
  C   C802      1.0  0.40987  0.04084  0.80675  1.0000
  C   C803      1.0  0.39336  0.05142  0.81707  1.0000
  C   C804      1.0  0.38755  0.07143  0.81015  1.0000
  C   C805      1.0  0.39849  0.08087  0.79305  1.0000
  H   H1387     1.0  0.43311  0.04186  0.78137  1.0000
  H   H1388     1.0  0.41445  0.02540  0.81210  1.0000
  H   H1389     1.0  0.37497  0.07970  0.81822  1.0000
  H   H1390     1.0  0.39424  0.09634  0.78805  1.0000
  C   C806      1.0  0.31767  0.10593  0.89564  1.0000
  C   C807      1.0  0.31538  0.12428  0.89992  1.0000
  C   C808      1.0  0.32262  0.12624  0.91538  1.0000
  C   C809      1.0  0.33223  0.10983  0.92672  1.0000
  C   C810      1.0  0.33535  0.09156  0.92185  1.0000
  C   C811      1.0  0.32803  0.08958  0.90637  1.0000
  H   H1391     1.0  0.30767  0.13704  0.89145  1.0000
  H   H1392     1.0  0.32063  0.14044  0.91859  1.0000
  H   H1393     1.0  0.34295  0.07882  0.93045  1.0000
  H   H1394     1.0  0.32989  0.07534  0.90317  1.0000
  C   C812      1.0  0.41858  0.21560  0.79818  1.0000
  C   C813      1.0  0.40944  0.20465  0.81533  1.0000
  C   C814      1.0  0.40237  0.18859  0.81461  1.0000
  C   C815      1.0  0.40480  0.18318  0.79679  1.0000
  C   C816      1.0  0.41412  0.19402  0.77965  1.0000
  C   C817      1.0  0.42079  0.21038  0.78031  1.0000
  H   H1395     1.0  0.40766  0.20856  0.82920  1.0000
  H   H1396     1.0  0.39526  0.18022  0.82793  1.0000
  H   H1397     1.0  0.41608  0.18994  0.76586  1.0000
  H   H1398     1.0  0.42787  0.21881  0.76702  1.0000
  C   C818      1.0  0.38495  0.19039  0.90179  1.0000
  C   C819      1.0  0.37902  0.20962  0.90453  1.0000
  C   C820      1.0  0.36237  0.21474  0.91858  1.0000
  C   C821      1.0  0.35176  0.20062  0.92986  1.0000
  C   C822      1.0  0.35740  0.18157  0.92665  1.0000
  C   C823      1.0  0.37397  0.17646  0.91265  1.0000
  H   H1399     1.0  0.38760  0.22037  0.89632  1.0000
  H   H1400     1.0  0.35811  0.22946  0.92112  1.0000
  H   H1401     1.0  0.34938  0.17054  0.93535  1.0000
  H   H1402     1.0  0.37859  0.16157  0.91062  1.0000
  H   H1403     1.0  0.33762  0.05357  0.72927  1.0000
  C   C824      1.0  0.31647  0.44108  0.84044  1.0000
  C   C825      1.0  0.33464  0.43310  0.84538  1.0000
  C   C826      1.0  0.34609  0.44541  0.84713  1.0000
  C   C827      1.0  0.33927  0.46568  0.84420  1.0000
  H   H1404     1.0  0.27933  0.39623  0.78555  1.0000
  C   C828      1.0  0.30973  0.46132  0.83742  1.0000
  H   H1405     1.0  0.33972  0.41750  0.84794  1.0000
  H   H1406     1.0  0.36012  0.43927  0.85101  1.0000
  H   H1407     1.0  0.25248  0.43300  0.77128  1.0000
  H   H1408     1.0  0.32455  0.11069  0.74049  1.0000
  C   C829      1.0  0.39736  0.29420  0.86214  1.0000
  C   C830      1.0  0.37867  0.30414  0.86928  1.0000
  C   C831      1.0  0.36841  0.31876  0.85665  1.0000
  C   C832      1.0  0.37707  0.32382  0.83697  1.0000
  C   C833      1.0  0.39591  0.31417  0.82992  1.0000
  C   C834      1.0  0.40594  0.29917  0.84242  1.0000
  H   H1409     1.0  0.37202  0.30032  0.88455  1.0000
  H   H1410     1.0  0.35387  0.32617  0.86220  1.0000
  H   H1411     1.0  0.40269  0.31812  0.81472  1.0000
  H   H1412     1.0  0.42040  0.29159  0.83689  1.0000
  H   H1413     1.0  0.26870  0.21411  0.94501  1.0000
  H   H1414     1.0  0.27006  0.12971  0.95327  1.0000
  C   C835      1.0  0.34175  0.11012  0.76831  1.0000
  H   H1415     1.0  0.40229  0.12335  0.70005  1.0000
  C   C836      1.0  0.28248  0.03515  0.77720  1.0000
  C   C837      1.0  0.27236  0.05449  0.77456  1.0000
  C   C838      1.0  0.27858  0.06848  0.78059  1.0000
  C   C839      1.0  0.29455  0.06302  0.78974  1.0000
  C   C840      1.0  0.30472  0.04372  0.79214  1.0000
  C   C841      1.0  0.29881  0.02987  0.78573  1.0000
  H   H1416     1.0  0.27213  0.31635  0.93474  1.0000
  C   C842      1.0  0.48932  0.19986  0.75320  1.0000
  H   H1417     1.0  0.31738  0.03950  0.79858  1.0000
  H   H1418     1.0  0.30693  0.01502  0.78745  1.0000
  C   C843      1.0  0.25614  0.35533  0.76949  1.0000
  H   H1419     1.0  0.36491  0.40617  0.81126  1.0000
  H   H1420     1.0  0.37591  0.01166  0.81149  1.0000
  C   C844      1.0  0.27288  0.02584  0.66616  1.0000
  C   C845      1.0  0.39547  0.14898  0.95704  1.0000
  H   H1421     1.0  0.47753  0.12597  0.74709  1.0000
  C   C846      1.0  0.27065  0.09409  0.92962  1.0000
  H   H1422     1.0  0.37960  0.38268  0.80911  1.0000
  H   H1423     1.0  0.39393  0.40399  0.82229  1.0000
  C   C847      1.0  0.27139  0.34020  0.76440  1.0000
  C   C848      1.0  0.28896  0.25492  0.93032  1.0000
  C   C849      1.0  0.37362  0.12260  0.66957  1.0000
  H   H1424     1.0  0.30295  0.03048  0.69188  1.0000
  C   C850      1.0  0.26636  0.31692  0.92221  1.0000
  Fe  Fe136     1.0  0.28467  0.16247  0.97218  1.0000
  H   H1425     1.0  0.40362  0.15272  0.94184  1.0000
  H   H1426     1.0  0.27040  0.01226  0.66460  1.0000
  S   S264      1.0  0.42923  0.12876  0.72267  1.0000
  N   N57       1.0  0.25595  0.43611  0.79936  1.0000
  H   H1427     1.0  0.31806  0.29715  0.66445  1.0000
  H   H1428     1.0  0.28654  0.09261  0.92344  1.0000
  H   H1429     1.0  0.28189  0.07470  0.67141  1.0000
  H   H1430     1.0  0.33401  0.03693  0.75203  1.0000
  H   H1431     1.0  0.31414  0.05577  0.74623  1.0000
  H   H1432     1.0  0.40895  0.21498  0.92596  1.0000
  H   H1433     1.0  0.29071  0.08279  0.70355  1.0000
  N   N58       1.0  0.26241  0.11347  0.93575  1.0000
  C   C851      1.0  0.32687  0.04562  0.73981  1.0000
  C   C852      1.0  0.27131  0.29369  0.71378  1.0000
  H   H1434     1.0  0.25207  0.29843  0.68307  1.0000
  H   H1435     1.0  0.28428  0.04648  0.73544  1.0000
  H   H1436     1.0  0.26537  0.21948  0.97792  1.0000
  C   C853      1.0  0.47699  0.15853  0.79664  1.0000
  H   H1437     1.0  0.39512  0.16929  0.67163  1.0000
  C   C854      1.0  0.38367  0.39512  0.83238  1.0000
  Fe  Fe137     1.0  0.31086  0.03681  0.86217  1.0000
  H   H1438     1.0  0.24217  0.30819  0.84093  1.0000
  C   C855      1.0  0.27724  0.45664  0.77133  1.0000
  C   C856      1.0  0.26290  0.45504  0.79114  1.0000
  H   H1439     1.0  0.41650  0.36942  0.86115  1.0000
  H   H1440     1.0  0.41458  0.16595  0.69549  1.0000
  C   C857      1.0  0.40632  0.17351  0.65855  1.0000
  H   H1441     1.0  0.33409  0.02076  0.72645  1.0000
  H   H1442     1.0  0.34189  0.03271  0.67954  1.0000
  H   H1443     1.0  0.28282  0.32013  0.70518  1.0000
  H   H1444     1.0  0.31465  0.06012  0.68556  1.0000
  N   N59       1.0  0.27703  0.24141  0.92846  1.0000
  H   H1445     1.0  0.29951  0.07802  0.72579  1.0000
  C   C858      1.0  0.26235  0.05442  0.68063  1.0000
  C   C859      1.0  0.30834  0.02455  0.70565  1.0000
  C   C860      1.0  0.25381  0.35527  0.68220  1.0000
  H   H1446     1.0  0.25731  0.32380  0.71106  1.0000
  H   H1447     1.0  0.25840  0.28823  0.71360  1.0000
  H   H1448     1.0  0.35215  0.03526  0.69903  1.0000
  H   H1449     1.0  0.28536  0.24274  0.89705  1.0000
  H   H1450     1.0  0.29869  0.32240  0.77043  1.0000
  S   S265      1.0  0.29257  0.06662  0.85442  1.0000
  C   C861      1.0  0.26491  0.23233  0.96570  1.0000
  H   H1451     1.0  0.34995  0.99516  0.83678  1.0000
  C   C862      1.0  0.26136  0.09000  0.91446  1.0000
  Fe  Fe138     1.0  0.24763  0.02536  0.75863  1.0000
  N   N60       1.0  0.36020  0.27226  0.82346  1.0000
  C   C863      1.0  0.35635  0.25873  0.84310  1.0000
  C   C864      1.0  0.35482  0.26392  0.80893  1.0000
  C   C865      1.0  0.34745  0.29205  0.82517  1.0000
  C   C866      1.0  0.38145  0.27326  0.81852  1.0000
  C   C867      1.0  0.35770  0.26610  0.86089  1.0000
  C   C868      1.0  0.36724  0.24399  0.80528  1.0000
  C   C869      1.0  0.34255  0.30593  0.80625  1.0000
  C   C870      1.0  0.38926  0.28494  0.79829  1.0000
  H   H1452     1.0  0.34157  0.25534  0.84623  1.0000
  H   H1453     1.0  0.36672  0.24448  0.84330  1.0000
  H   H1454     1.0  0.35574  0.27377  0.79440  1.0000
  H   H1455     1.0  0.33930  0.26243  0.81359  1.0000
  H   H1456     1.0  0.33305  0.29049  0.83488  1.0000
  H   H1457     1.0  0.35401  0.30007  0.83222  1.0000
  H   H1458     1.0  0.38483  0.27990  0.82915  1.0000
  H   H1459     1.0  0.39093  0.25850  0.82031  1.0000
  H   H1460     1.0  0.35521  0.25460  0.87421  1.0000
  H   H1461     1.0  0.37227  0.26900  0.85970  1.0000
  H   H1462     1.0  0.34650  0.27930  0.86344  1.0000
  H   H1463     1.0  0.36612  0.23230  0.81855  1.0000
  H   H1464     1.0  0.36198  0.23944  0.79433  1.0000
  H   H1465     1.0  0.38273  0.24481  0.79909  1.0000
  H   H1466     1.0  0.33520  0.32051  0.80954  1.0000
  H   H1467     1.0  0.33218  0.30090  0.80065  1.0000
  H   H1468     1.0  0.35550  0.30813  0.79466  1.0000
  H   H1469     1.0  0.38692  0.30063  0.79854  1.0000
  H   H1470     1.0  0.38314  0.28318  0.78652  1.0000
  H   H1471     1.0  0.40515  0.27927  0.79408  1.0000
  C   C871      1.0  0.40561  0.38234  0.85594  1.0000
  C   C872      1.0  0.41658  0.39912  0.84592  1.0000
  H   H1472     1.0  0.37418  0.40491  0.84217  1.0000
  H   H1473     1.0  0.39594  0.38696  0.86935  1.0000
  H   H1474     1.0  0.40630  0.41340  0.84411  1.0000
  H   H1475     1.0  0.42606  0.39714  0.83170  1.0000
  C   C873      1.0  0.24982  0.14222  0.65650  1.0000
  H   H1476     1.0  0.26571  0.01351  0.82308  1.0000
  H   H1477     1.0  0.26917  0.08176  0.94232  1.0000
  C   C874      1.0  0.26320  0.12934  0.91748  1.0000
  H   H1478     1.0  0.43822  0.14405  0.65370  1.0000
  H   H1479     1.0  0.45524  0.14908  0.68654  1.0000
  H   H1480     1.0  0.25025  0.46727  0.78956  1.0000
  H   H1481     1.0  0.29290  0.00095  0.71110  1.0000
  H   H1482     1.0  0.36108  0.98565  0.88950  1.0000
  H   H1483     1.0  0.27960  0.01985  0.72372  1.0000
  H   H1484     1.0  0.29689  0.47660  0.79605  1.0000
  C   C875      1.0  0.26593  0.14935  0.91896  1.0000
  C   C876      1.0  0.27086  0.99773  0.82293  1.0000
  C   C877      1.0  0.24404  0.43350  0.78626  1.0000
  H   H1485     1.0  0.29145  0.44669  0.77248  1.0000
  H   H1486     1.0  0.26897  0.34971  0.94378  1.0000
  H   H1487     1.0  0.38695  0.21920  0.94336  1.0000
  H   H1488     1.0  0.42673  0.14092  0.67840  1.0000
  C   C878      1.0  0.27037  0.31511  0.70300  1.0000
  H   H1489     1.0  0.24730  0.31717  0.87685  1.0000
  H   H1490     1.0  0.28439  0.99648  0.81167  1.0000
  C   C879      1.0  0.25236  0.31736  0.88957  1.0000
  H   H1491     1.0  0.24314  0.37447  0.78946  1.0000
  H   H1492     1.0  0.28521  0.29100  0.67498  1.0000
  H   H1493     1.0  0.25740  0.35886  0.69475  1.0000
  C   C880      1.0  0.36522  0.99259  0.83860  1.0000
  H   H1494     1.0  0.28059  0.26402  0.94119  1.0000
  H   H1495     1.0  0.28431  0.08529  0.96377  1.0000
  C   C881      1.0  0.38946  0.11740  0.67892  1.0000
  C   C882      1.0  0.29082  0.05277  0.72025  1.0000
  C   C883      1.0  0.27281  0.41932  0.80239  1.0000
  H   H1496     1.0  0.25263  0.18180  0.67202  1.0000
  C   C884      1.0  0.27500  0.11556  0.94848  1.0000
  S   S266      1.0  0.24421  0.00353  0.74345  1.0000
  C   C885      1.0  0.28377  0.41009  0.78448  1.0000
  H   H1497     1.0  0.27422  0.08079  0.72658  1.0000
  H   H1498     1.0  0.26919  0.07570  0.91073  1.0000
  C   C886      1.0  0.36215  0.14254  0.87748  1.0000
  C   C887      1.0  0.28633  0.34243  0.79014  1.0000
  C   C888      1.0  0.39008  0.12750  0.69290  1.0000
  C   C889      1.0  0.28905  0.07476  0.71895  1.0000
  H   H1499     1.0  0.28368  0.42380  0.80786  1.0000
  H   H1500     1.0  0.47857  0.21593  0.81064  1.0000
  H   H1501     1.0  0.37063  0.36108  0.85065  1.0000
  S   S267      1.0  0.33072  0.04773  0.87448  1.0000
  C   C890      1.0  0.37104  0.39185  0.81975  1.0000
  C   C891      1.0  0.35832  0.13784  0.67441  1.0000
  C   C892      1.0  0.25085  0.30771  0.92436  1.0000
  S   S268      1.0  0.29810  0.01012  0.87806  1.0000
  C   C893      1.0  0.45608  0.14571  0.67223  1.0000
  C   C894      1.0  0.27060  0.34019  0.67320  1.0000
  C   C895      1.0  0.27036  0.35678  0.79586  1.0000
  H   H1502     1.0  0.29956  0.40613  0.78455  1.0000
  S   S269      1.0  0.35382  0.48088  0.84644  1.0000
  C   C896      1.0  0.37808  0.99579  0.81794  1.0000
  H   H1503     1.0  0.35845  0.38550  0.82868  1.0000
  H   H1504     1.0  0.37270  0.34368  0.88342  1.0000
  C   C897      1.0  0.34299  0.04289  0.68817  1.0000
  C   C898      1.0  0.42232  0.37027  0.81487  1.0000
  H   H1505     1.0  0.34603  0.14192  0.66731  1.0000
  C   C899      1.0  0.25548  0.36336  0.78529  1.0000
  H   H1506     1.0  0.27126  0.45440  0.75962  1.0000
  H   H1507     1.0  0.27198  0.24267  0.96899  1.0000
  C   C900      1.0  0.47384  0.19146  0.80140  1.0000
  H   H1508     1.0  0.41920  0.18185  0.94295  1.0000
  C   C901      1.0  0.24539  0.32241  0.65987  1.0000
  C   C902      1.0  0.32106  0.47359  0.83932  1.0000
  H   H1509     1.0  0.45218  0.14428  0.80472  1.0000
  Fe  Fe139     1.0  0.30144  0.12675  0.65351  1.0000
  H   H1510     1.0  0.26275  0.10089  0.90056  1.0000
  C   C903      1.0  0.40115  0.15844  0.97112  1.0000
  H   H1511     1.0  0.24537  0.37731  0.96544  1.0000
  H   H1512     1.0  0.25072  0.26214  0.93733  1.0000
  S   S270      1.0  0.25557  0.16828  0.96432  1.0000
  H   H1513     1.0  0.45791  0.19527  0.80193  1.0000
  C   C904      1.0  0.28662  0.30656  0.67072  1.0000
  H   H1514     1.0  0.39763  0.35620  0.82583  1.0000
  S   S271      1.0  0.32163  0.10040  0.66619  1.0000
  H   H1515     1.0  0.27411  0.99045  0.83749  1.0000
  N   N61       1.0  0.35095  0.09934  0.75180  1.0000
  C   C905      1.0  0.34746  0.07882  0.75909  1.0000
  C   C906      1.0  0.34059  0.10941  0.73521  1.0000
  C   C907      1.0  0.37232  0.10015  0.74589  1.0000
  C   C908      1.0  0.35535  0.06740  0.77752  1.0000
  C   C909      1.0  0.34630  0.10010  0.71717  1.0000
  C   C910      1.0  0.38612  0.08417  0.73536  1.0000
  H   H1516     1.0  0.35374  0.06981  0.74791  1.0000
  H   H1517     1.0  0.33158  0.07891  0.76237  1.0000
  H   H1518     1.0  0.31439  0.21958  0.89491  1.0000
  H   H1519     1.0  0.34308  0.12456  0.72949  1.0000
  H   H1520     1.0  0.37444  0.11454  0.73652  1.0000
  H   H1521     1.0  0.37815  0.09885  0.75906  1.0000
  H   H1522     1.0  0.35420  0.05191  0.78011  1.0000
  H   H1523     1.0  0.37083  0.06776  0.77611  1.0000
  H   H1524     1.0  0.33696  0.10866  0.70666  1.0000
  H   H1525     1.0  0.34397  0.08502  0.72058  1.0000
  H   H1526     1.0  0.36143  0.10087  0.70946  1.0000
  H   H1527     1.0  0.39782  0.09066  0.72447  1.0000
  H   H1528     1.0  0.37938  0.07743  0.72742  1.0000
  H   H1529     1.0  0.39383  0.07264  0.74574  1.0000
  N   N62       1.0  0.37442  0.11763  0.85475  1.0000
  C   C911      1.0  0.38418  0.09650  0.85536  1.0000
  C   C912      1.0  0.38814  0.12985  0.84068  1.0000
  C   C913      1.0  0.35575  0.12108  0.84750  1.0000
  C   C914      1.0  0.37023  0.12131  0.87515  1.0000
  C   C915      1.0  0.37183  0.08141  0.86784  1.0000
  C   C916      1.0  0.40807  0.12755  0.84580  1.0000
  C   C917      1.0  0.34877  0.14150  0.83556  1.0000
  C   C918      1.0  0.35913  0.14817  0.68810  1.0000
  H   H1530     1.0  0.38891  0.09345  0.84033  1.0000
  H   H1531     1.0  0.39762  0.09286  0.86133  1.0000
  H   H1532     1.0  0.38164  0.14564  0.83900  1.0000
  H   H1533     1.0  0.39100  0.12663  0.82583  1.0000
  H   H1534     1.0  0.35706  0.11100  0.83768  1.0000
  H   H1535     1.0  0.34351  0.11774  0.85982  1.0000
  H   H1536     1.0  0.35944  0.11283  0.88503  1.0000
  H   H1537     1.0  0.38354  0.11604  0.88146  1.0000
  H   H1538     1.0  0.36945  0.08121  0.88363  1.0000
  H   H1539     1.0  0.35762  0.08367  0.86371  1.0000
  H   H1540     1.0  0.37986  0.06663  0.86566  1.0000
  H   H1541     1.0  0.40667  0.13083  0.86029  1.0000
  H   H1542     1.0  0.41730  0.11295  0.84481  1.0000
  H   H1543     1.0  0.41603  0.13824  0.83491  1.0000
  H   H1544     1.0  0.35830  0.14392  0.82083  1.0000
  H   H1545     1.0  0.34801  0.15348  0.84276  1.0000
  C   C919      1.0  0.43593  0.15009  0.66688  1.0000
  H   H1546     1.0  0.26774  0.40728  0.81409  1.0000
  C   C920      1.0  0.31076  0.99279  0.84599  1.0000
  H   H1547     1.0  0.25980  0.05870  0.76785  1.0000
  H   H1548     1.0  0.25787  0.45280  0.83171  1.0000
  H   H1549     1.0  0.41724  0.15377  0.96955  1.0000
  C   C921      1.0  0.45524  0.15908  0.79804  1.0000
  C   C922      1.0  0.28681  0.33407  0.77439  1.0000
  C   C923      1.0  0.25145  0.43968  0.83516  1.0000
  H   H1550     1.0  0.31225  0.00702  0.83734  1.0000
  H   H1551     1.0  0.31055  0.32195  0.66683  1.0000
  H   H1552     1.0  0.27558  0.12480  0.90576  1.0000
  H   H1553     1.0  0.34759  0.14799  0.87380  1.0000
  H   H1554     1.0  0.39586  0.33780  0.86810  1.0000
  H   H1555     1.0  0.29786  0.33727  0.79828  1.0000
  S   S272      1.0  0.26725  0.36573  0.81708  1.0000
  H   H1556     1.0  0.29562  0.46756  0.83373  1.0000
  H   H1557     1.0  0.30209  0.24665  0.93625  1.0000
  H   H1558     1.0  0.28477  0.28394  0.70789  1.0000
  Fe  Fe140     1.0  0.32067  0.17917  0.96367  1.0000
  H   H1559     1.0  0.46649  0.15346  0.66082  1.0000
  H   H1560     1.0  0.26203  0.09860  0.97675  1.0000
  C   C924      1.0  0.37367  0.18717  0.97195  1.0000
  H   H1561     1.0  0.39291  0.19730  0.68405  1.0000
  H   H1562     1.0  0.36957  0.20332  0.96851  1.0000
  H   H1563     1.0  0.33724  0.13802  0.77673  1.0000
  C   C925      1.0  0.24170  0.11340  0.94662  1.0000
  H   H1564     1.0  0.34745  0.16025  0.69143  1.0000
  H   H1565     1.0  0.40764  0.14580  0.65037  1.0000
  H   H1566     1.0  0.42537  0.36162  0.80338  1.0000
  H   H1567     1.0  0.30306  0.27931  0.91496  1.0000
  H   H1568     1.0  0.41440  0.34995  0.84091  1.0000
  H   H1569     1.0  0.46222  0.12986  0.67353  1.0000
  H   H1570     1.0  0.25000  0.13194  0.91128  1.0000
  H   H1571     1.0  0.40063  0.18908  0.65252  1.0000
  H   H1572     1.0  0.27772  0.22133  0.91063  1.0000
  H   H1573     1.0  0.41940  0.18977  0.97371  1.0000
  C   C926      1.0  0.29009  0.03215  0.65602  1.0000
  H   H1574     1.0  0.37966  0.15267  0.95733  1.0000
  C   C927      1.0  0.40652  0.36278  0.83184  1.0000
  H   H1575     1.0  0.32249  0.01456  0.70182  1.0000
  C   C928      1.0  0.25720  0.25323  0.92592  1.0000
  C   C929      1.0  0.40219  0.21101  0.94166  1.0000
  H   H1576     1.0  0.40037  0.99733  0.84467  1.0000
  C   C930      1.0  0.34940  0.98656  0.88184  1.0000
  H   H1577     1.0  0.24419  0.40266  0.80095  1.0000
  C   C931      1.0  0.37505  0.14312  0.69728  1.0000
  H   H1578     1.0  0.41373  0.20912  0.67495  1.0000
  H   H1579     1.0  0.41786  0.38549  0.80740  1.0000
  H   H1580     1.0  0.44553  0.16894  0.80754  1.0000
  S   S273      1.0  0.26989  0.32807  0.74682  1.0000
  S   S274      1.0  0.33021  0.03785  0.83257  1.0000
  C   C932      1.0  0.32082  0.03170  0.73068  1.0000
  C   C933      1.0  0.38545  0.34984  0.87433  1.0000
  H   H1581     1.0  0.43601  0.36857  0.81988  1.0000
  C   C934      1.0  0.29442  0.01146  0.71917  1.0000
  C   C935      1.0  0.27430  0.32707  0.90386  1.0000
  C   C936      1.0  0.27645  0.09969  0.96712  1.0000
  H   H1582     1.0  0.39598  0.18535  0.93729  1.0000
  H   H1583     1.0  0.27332  0.33500  0.87334  1.0000
  H   H1584     1.0  0.30762  0.20552  0.91921  1.0000
  C   C937      1.0  0.32276  0.05330  0.69754  1.0000
  S   S275      1.0  0.46863  0.16042  0.71771  1.0000
  H   H1585     1.0  0.28049  0.14842  0.92182  1.0000
  H   H1586     1.0  0.40127  0.10553  0.67531  1.0000
  C   C938      1.0  0.40356  0.18870  0.94719  1.0000
  C   C939      1.0  0.30285  0.99056  0.86597  1.0000
  H   H1587     1.0  0.42605  0.39993  0.85544  1.0000
  H   H1588     1.0  0.28057  0.05229  0.71136  1.0000
  H   H1589     1.0  0.36552  0.00459  0.84536  1.0000
  H   H1590     1.0  0.27041  0.45821  0.80120  1.0000
  Fe  Fe141     1.0  0.44138  0.14869  0.73356  1.0000
  H   H1591     1.0  0.29010  0.11564  0.94002  1.0000
  C   C940      1.0  0.26729  0.32724  0.88754  1.0000
  H   H1592     1.0  0.30011  0.00279  0.73224  1.0000
  H   H1593     1.0  0.32847  0.13988  0.75531  1.0000
  H   H1594     1.0  0.30638  0.26172  0.90046  1.0000
  C   C941      1.0  0.29568  0.26931  0.91144  1.0000
  C   C942      1.0  0.24233  0.43799  0.81876  1.0000
  H   H1595     1.0  0.24589  0.08898  0.92028  1.0000
  N   N63       1.0  0.39393  0.37698  0.84423  1.0000
  H   H1596     1.0  0.39188  0.35441  0.88436  1.0000
  H   H1597     1.0  0.31137  0.02337  0.74275  1.0000
  H   H1598     1.0  0.36027  0.14315  0.89306  1.0000
  S   S276      1.0  0.27903  0.14497  0.67273  1.0000
  C   C943      1.0  0.37842  0.36705  0.85844  1.0000
  H   H1599     1.0  0.34519  0.00146  0.87340  1.0000
  H   H1600     1.0  0.47953  0.15285  0.81175  1.0000
  H   H1601     1.0  0.26507  0.15962  0.90478  1.0000
  H   H1602     1.0  0.46230  0.19228  0.77003  1.0000
  H   H1603     1.0  0.35424  0.13649  0.75413  1.0000
  H   H1604     1.0  0.32519  0.06564  0.70247  1.0000
  C   C944      1.0  0.25710  0.15381  0.66459  1.0000
  H   H1605     1.0  0.37221  0.15236  0.86894  1.0000
  H   H1606     1.0  0.33392  0.14244  0.83339  1.0000
  H   H1607     1.0  0.31643  0.22764  0.91507  1.0000
  H   H1608     1.0  0.43504  0.17727  0.68794  1.0000
  H   H1609     1.0  0.25726  0.12735  0.65609  1.0000
  N   N64       1.0  0.31082  0.04086  0.71373  1.0000
  H   H1610     1.0  0.39933  0.13289  0.96160  1.0000
  H   H1611     1.0  0.47490  0.18436  0.81675  1.0000
  H   H1612     1.0  0.25828  0.26398  0.91187  1.0000
  H   H1613     1.0  0.41021  0.21617  0.94984  1.0000
  H   H1614     1.0  0.29051  0.21762  0.94876  1.0000
  H   H1615     1.0  0.34977  0.10443  0.78047  1.0000
  H   H1616     1.0  0.26236  0.42643  0.83918  1.0000
  H   H1617     1.0  0.27073  0.08344  0.77859  1.0000
  H   H1618     1.0  0.27197  0.34367  0.65708  1.0000
  C   C945      1.0  0.34051  0.13238  0.76309  1.0000
  H   H1619     1.0  0.28407  0.34346  0.67518  1.0000
  H   H1620     1.0  0.24459  0.36069  0.76140  1.0000
  H   H1621     1.0  0.28334  0.27854  0.90491  1.0000
  C   C946      1.0  0.30725  0.22048  0.91025  1.0000
  H   H1622     1.0  0.47132  0.22245  0.78747  1.0000
  C   C947      1.0  0.28614  0.23204  0.91105  1.0000
  H   H1623     1.0  0.28023  0.47160  0.76675  1.0000
  C   C948      1.0  0.27570  0.22553  0.94654  1.0000
  C   C949      1.0  0.24205  0.24165  0.92593  1.0000
  H   H1624     1.0  0.28242  0.41940  0.77008  1.0000
  C   C950      1.0  0.25117  0.31447  0.67991  1.0000
  N   N65       1.0  0.39546  0.18036  0.96823  1.0000
  C   C951      1.0  0.42140  0.17693  0.68378  1.0000
  H   H1625     1.0  0.36741  0.18216  0.96213  1.0000
  N   N66       1.0  0.42558  0.17116  0.66424  1.0000
  C   C952      1.0  0.24378  0.30802  0.90800  1.0000
  H   H1626     1.0  0.28672  0.31067  0.65482  1.0000
  H   H1627     1.0  0.25125  0.36880  0.67100  1.0000
  H   H1628     1.0  0.45126  0.16307  0.78353  1.0000
  C   C953      1.0  0.40787  0.19692  0.68549  1.0000
  H   H1629     1.0  0.25469  0.15591  0.93017  1.0000
  C   C954      1.0  0.30703  0.30729  0.67289  1.0000
  N   N67       1.0  0.26969  0.31911  0.68171  1.0000
  C   C955      1.0  0.26452  0.36576  0.94063  1.0000
  H   H1630     1.0  0.30892  0.30242  0.68820  1.0000
  H   H1631     1.0  0.24934  0.23881  0.96572  1.0000
  H   H1632     1.0  0.45035  0.18556  0.65546  1.0000
  H   H1633     1.0  0.48692  0.24283  0.86149  1.0000
  H   H1634     1.0  0.38550  0.99620  0.86876  1.0000
  H   H1635     1.0  0.24186  0.99331  0.83010  1.0000
  C   C956      1.0  0.24707  0.17287  0.66566  1.0000
  C   C957      1.0  0.48827  0.15143  0.72988  1.0000
  H   H1636     1.0  0.31430  0.48170  0.77396  1.0000
  H   H1637     1.0  0.27553  0.37119  0.94487  1.0000
  S   S277      1.0  0.37364  0.11019  0.65157  1.0000
  H   H1638     1.0  0.24459  0.30016  0.93857  1.0000
  S   S278      1.0  0.33820  0.15134  0.97772  1.0000
  H   H1639     1.0  0.26547  0.37073  0.92463  1.0000
  C   C958      1.0  0.40436  0.18765  0.98108  1.0000
  C   C959      1.0  0.25479  0.99004  0.81851  1.0000
  C   C960      1.0  0.47801  0.18523  0.76822  1.0000
  H   H1640     1.0  0.47970  0.17299  0.76082  1.0000
  H   H1641     1.0  0.48239  0.20520  0.74028  1.0000
  N   N68       1.0  0.48376  0.17759  0.78783  1.0000
  H   H1642     1.0  0.48551  0.14713  0.78818  1.0000
  H   H1643     1.0  0.24750  0.33146  0.95868  1.0000
  C   C961      1.0  0.43788  0.18448  0.64972  1.0000
  H   H1644     1.0  0.37380  0.98865  0.80825  1.0000
  C   C962      1.0  0.39651  0.98756  0.85894  1.0000
  H   H1645     1.0  0.39376  0.99036  0.81800  1.0000
  H   H1646     1.0  0.24092  0.09993  0.95811  1.0000
  H   H1647     1.0  0.48865  0.26370  0.80742  1.0000
  C   C963      1.0  0.24400  0.37346  0.95197  1.0000
  H   H1648     1.0  0.25083  0.99939  0.80473  1.0000
  C   C964      1.0  0.48883  0.13421  0.74399  1.0000
  H   H1649     1.0  0.37901  0.89742  0.29465  1.0000
  C   C965      1.0  0.27112  0.52320  0.15894  1.0000
  H   H1650     1.0  0.46584  0.67175  0.19450  1.0000
  H   H1651     1.0  0.30060  0.51053  0.16207  1.0000
  C   C966      1.0  0.27531  0.52060  0.28720  1.0000
  H   H1652     1.0  0.25957  0.60753  0.01776  1.0000
  H   H1653     1.0  0.27661  0.48626  0.13796  1.0000
  S   S279      1.0  0.37218  0.97561  0.21945  1.0000
  H   H1654     1.0  0.26341  0.79995  0.11955  1.0000
  H   H1655     1.0  0.26271  0.64334  0.03162  1.0000
  Fe  Fe142     1.0  0.32788  0.88931  0.22397  1.0000
  S   S280      1.0  0.33210  0.87286  0.25372  1.0000
  S   S281      1.0  0.31461  0.92130  0.22257  1.0000
  Fe  Fe143     1.0  0.34172  0.85258  0.20657  1.0000
  S   S282      1.0  0.34703  0.83337  0.23501  1.0000
  S   S283      1.0  0.35097  0.83851  0.18020  1.0000
  Fe  Fe144     1.0  0.31879  0.85061  0.24813  1.0000
  S   S284      1.0  0.29649  0.83543  0.26996  1.0000
  Fe  Fe145     1.0  0.35996  0.85719  0.23791  1.0000
  S   S285      1.0  0.38788  0.85017  0.24844  1.0000
  S   S286      1.0  0.31209  0.86820  0.21944  1.0000
  S   S287      1.0  0.35703  0.87537  0.20841  1.0000
  S   S288      1.0  0.39511  0.65420  0.26282  1.0000
  Fe  Fe146     1.0  0.41626  0.66757  0.20753  1.0000
  S   S289      1.0  0.38595  0.68066  0.22084  1.0000
  S   S290      1.0  0.43128  0.67433  0.17624  1.0000
  Fe  Fe147     1.0  0.39900  0.68357  0.24456  1.0000
  S   S291      1.0  0.38907  0.71060  0.25749  1.0000
  Fe  Fe148     1.0  0.38448  0.65025  0.23771  1.0000
  S   S292      1.0  0.35582  0.64171  0.24039  1.0000
  S   S293      1.0  0.42965  0.67328  0.22956  1.0000
  Fe  Fe149     1.0  0.31482  0.75893  0.10624  1.0000
  S   S294      1.0  0.29317  0.75445  0.13452  1.0000
  S   S295      1.0  0.30385  0.77441  0.07844  1.0000
  Fe  Fe150     1.0  0.34893  0.73923  0.12613  1.0000
  S   S296      1.0  0.33023  0.73270  0.15594  1.0000
  S   S297      1.0  0.38140  0.73211  0.11763  1.0000
  Fe  Fe151     1.0  0.31142  0.72448  0.14025  1.0000
  S   S298      1.0  0.29821  0.69776  0.15024  1.0000
  Fe  Fe152     1.0  0.31377  0.76323  0.14759  1.0000
  S   S299      1.0  0.30144  0.78261  0.16968  1.0000
  S   S300      1.0  0.33168  0.72823  0.11121  1.0000
  S   S301      1.0  0.33391  0.77046  0.11883  1.0000
  H   H1656     1.0  0.28964  0.62101  0.99672  1.0000
  C   C967      1.0  0.28567  0.84272  0.12145  1.0000
  H   H1657     1.0  0.32983  0.98114  0.22920  1.0000
  C   C968      1.0  0.41192  0.62567  0.30782  1.0000
  H   H1658     1.0  0.39787  0.63589  0.30664  1.0000
  C   C969      1.0  0.28752  0.63698  0.99506  1.0000
  Fe  Fe153     1.0  0.28348  0.57542  0.20319  1.0000
  C   C970      1.0  0.27359  0.49516  0.27146  1.0000
  Fe  Fe154     1.0  0.31205  0.56395  0.16754  1.0000
  S   S302      1.0  0.33068  0.54034  0.18538  1.0000
  S   S303      1.0  0.32319  0.56683  0.13527  1.0000
  Fe  Fe155     1.0  0.32650  0.56285  0.20336  1.0000
  S   S304      1.0  0.35316  0.56658  0.21175  1.0000
  S   S305      1.0  0.28422  0.55485  0.18441  1.0000
  S   S306      1.0  0.30962  0.58697  0.18419  1.0000
  C   C971      1.0  0.28478  0.60113  0.09212  1.0000
  C   C972      1.0  0.30335  0.59060  0.08584  1.0000
  C   C973      1.0  0.31484  0.58004  0.09934  1.0000
  C   C974      1.0  0.30777  0.57975  0.11924  1.0000
  C   C975      1.0  0.28897  0.58984  0.12573  1.0000
  C   C976      1.0  0.27747  0.60065  0.11210  1.0000
  H   H1659     1.0  0.30903  0.59089  0.07045  1.0000
  H   H1660     1.0  0.32936  0.57220  0.09432  1.0000
  H   H1661     1.0  0.28343  0.58952  0.14114  1.0000
  H   H1662     1.0  0.26300  0.60850  0.11706  1.0000
  H   H1663     1.0  0.25680  0.54427  0.26291  1.0000
  C   C977      1.0  0.26916  0.71566  0.10608  1.0000
  C   C978      1.0  0.28149  0.71444  0.11855  1.0000
  C   C979      1.0  0.28177  0.69984  0.13538  1.0000
  C   C980      1.0  0.26950  0.68645  0.13978  1.0000
  C   C981      1.0  0.25731  0.68748  0.12709  1.0000
  H   H1664     1.0  0.33193  0.78273  0.02227  1.0000
  H   H1665     1.0  0.29099  0.72471  0.11486  1.0000
  H   H1666     1.0  0.26959  0.67519  0.15285  1.0000
  H   H1667     1.0  0.26941  0.79522  0.14323  1.0000
  C   C982      1.0  0.35521  0.62053  0.23290  1.0000
  C   C983      1.0  0.33738  0.61763  0.23105  1.0000
  C   C984      1.0  0.33652  0.60122  0.22446  1.0000
  C   C985      1.0  0.35348  0.58745  0.21997  1.0000
  C   C986      1.0  0.37127  0.59031  0.22194  1.0000
  C   C987      1.0  0.37217  0.60683  0.22827  1.0000
  H   H1668     1.0  0.32419  0.62815  0.23464  1.0000
  H   H1669     1.0  0.32274  0.59912  0.22307  1.0000
  H   H1670     1.0  0.38443  0.57968  0.21854  1.0000
  H   H1671     1.0  0.38596  0.60884  0.22971  1.0000
  C   C988      1.0  0.41679  0.69013  0.16039  1.0000
  C   C989      1.0  0.42583  0.69783  0.14151  1.0000
  C   C990      1.0  0.41475  0.71068  0.12856  1.0000
  C   C991      1.0  0.39454  0.71576  0.13434  1.0000
  C   C992      1.0  0.38537  0.70784  0.15315  1.0000
  C   C993      1.0  0.39653  0.69508  0.16621  1.0000
  H   H1672     1.0  0.44147  0.69399  0.13689  1.0000
  H   H1673     1.0  0.42188  0.71672  0.11400  1.0000
  H   H1674     1.0  0.36977  0.71162  0.15764  1.0000
  H   H1675     1.0  0.38944  0.68890  0.18060  1.0000
  C   C994      1.0  0.33707  0.82301  0.17747  1.0000
  C   C995      1.0  0.34439  0.81198  0.16284  1.0000
  C   C996      1.0  0.33369  0.79938  0.16040  1.0000
  C   C997      1.0  0.31547  0.79795  0.17245  1.0000
  C   C998      1.0  0.30810  0.80906  0.18700  1.0000
  C   C999      1.0  0.31891  0.82146  0.18959  1.0000
  H   H1676     1.0  0.35845  0.81314  0.15341  1.0000
  H   H1677     1.0  0.33952  0.79086  0.14917  1.0000
  H   H1678     1.0  0.29397  0.80807  0.19632  1.0000
  H   H1679     1.0  0.31314  0.82993  0.20089  1.0000
  H   H1680     1.0  0.26988  0.61506  0.98283  1.0000
  C   C1000     1.0  0.43628  0.70202  0.28085  1.0000
  C   C1001     1.0  0.42400  0.70171  0.26891  1.0000
  C   C1002     1.0  0.40459  0.71143  0.27220  1.0000
  C   C1003     1.0  0.39766  0.72193  0.28724  1.0000
  H   H1681     1.0  0.25968  0.81927  0.13232  1.0000
  H   H1682     1.0  0.45129  0.69459  0.27817  1.0000
  H   H1683     1.0  0.42964  0.69404  0.25709  1.0000
  H   H1684     1.0  0.41223  0.80499  0.30380  1.0000
  N   N69       1.0  0.30089  0.51422  0.13139  1.0000
  H   H1685     1.0  0.32501  0.51769  0.10668  1.0000
  C   C1004     1.0  0.39966  0.81187  0.29733  1.0000
  C   C1005     1.0  0.40158  0.82539  0.27957  1.0000
  C   C1006     1.0  0.38535  0.83419  0.27113  1.0000
  C   C1007     1.0  0.36715  0.82986  0.28066  1.0000
  C   C1008     1.0  0.36518  0.81657  0.29850  1.0000
  H   H1686     1.0  0.26920  0.72695  0.09301  1.0000
  H   H1687     1.0  0.41567  0.82881  0.27227  1.0000
  H   H1688     1.0  0.35459  0.83654  0.27421  1.0000
  H   H1689     1.0  0.32652  0.49526  0.18505  1.0000
  H   H1690     1.0  0.32515  0.65543  0.19943  1.0000
  H   H1691     1.0  0.32018  0.84789  0.28957  1.0000
  C   C1009     1.0  0.35590  0.96114  0.21945  1.0000
  C   C1010     1.0  0.33576  0.96715  0.22518  1.0000
  C   C1011     1.0  0.32317  0.95510  0.22548  1.0000
  C   C1012     1.0  0.33065  0.93678  0.22045  1.0000
  C   C1013     1.0  0.35076  0.93088  0.21446  1.0000
  C   C1014     1.0  0.36330  0.94315  0.21370  1.0000
  H   H1692     1.0  0.29048  0.85671  0.11416  1.0000
  H   H1693     1.0  0.30763  0.95981  0.23000  1.0000
  H   H1694     1.0  0.35667  0.91689  0.21036  1.0000
  H   H1695     1.0  0.37884  0.93849  0.20902  1.0000
  C   C1015     1.0  0.29307  0.83884  0.29383  1.0000
  H   H1696     1.0  0.36139  0.62549  0.19275  1.0000
  C   C1016     1.0  0.46557  0.65168  0.26171  1.0000
  H   H1697     1.0  0.36933  0.74737  0.99288  1.0000
  C   C1017     1.0  0.31494  0.73563  0.03398  1.0000
  C   C1018     1.0  0.32612  0.73090  0.04827  1.0000
  C   C1019     1.0  0.32291  0.74290  0.06165  1.0000
  C   C1020     1.0  0.30830  0.75966  0.06110  1.0000
  C   C1021     1.0  0.29735  0.76475  0.04645  1.0000
  C   C1022     1.0  0.30062  0.75270  0.03291  1.0000
  H   H1698     1.0  0.33208  0.73933  0.07212  1.0000
  H   H1699     1.0  0.28614  0.77782  0.04580  1.0000
  H   H1700     1.0  0.28291  0.90336  0.25862  1.0000
  S   S307      1.0  0.41410  0.63690  0.22259  1.0000
  H   H1701     1.0  0.24671  0.69512  0.00477  1.0000
  C   C1023     1.0  0.26957  0.80567  0.12901  1.0000
  H   H1702     1.0  0.34098  0.81570  0.08134  1.0000
  S   S308      1.0  0.25415  0.59265  0.21480  1.0000
  H   H1703     1.0  0.45160  0.66118  0.26084  1.0000
  H   H1704     1.0  0.39221  0.75836  0.26228  1.0000
  H   H1705     1.0  0.27581  0.66931  0.00783  1.0000
  H   H1706     1.0  0.32313  0.82019  0.11305  1.0000
  S   S309      1.0  0.27157  0.61518  0.07444  1.0000
  H   H1707     1.0  0.39946  0.81666  0.22366  1.0000
  H   H1708     1.0  0.37767  0.92534  0.30458  1.0000
  H   H1709     1.0  0.30772  0.83261  0.13992  1.0000
  H   H1710     1.0  0.27806  0.61009  0.02918  1.0000
  H   H1711     1.0  0.39275  0.88932  0.25716  1.0000
  H   H1712     1.0  0.36621  0.95048  0.30246  1.0000
  H   H1713     1.0  0.46845  0.61895  0.21125  1.0000
  C   C1024     1.0  0.27655  0.89198  0.27015  1.0000
  H   H1714     1.0  0.26952  0.84675  0.12415  1.0000
  H   H1715     1.0  0.48181  0.66347  0.22097  1.0000
  C   C1025     1.0  0.24400  0.51179  0.29232  1.0000
  H   H1716     1.0  0.48879  0.60467  0.26161  1.0000
  H   H1717     1.0  0.41013  0.77073  0.27897  1.0000
  S   S310      1.0  0.29330  0.50370  0.21645  1.0000
  H   H1718     1.0  0.39747  0.81383  0.20062  1.0000
  H   H1719     1.0  0.28066  0.55221  0.12257  1.0000
  H   H1720     1.0  0.29622  0.79737  0.10949  1.0000
  H   H1721     1.0  0.32980  0.71740  0.23793  1.0000
  H   H1722     1.0  0.31656  0.53779  0.11851  1.0000
  C   C1026     1.0  0.36440  0.90012  0.29104  1.0000
  C   C1027     1.0  0.40998  0.72208  0.29935  1.0000
  C   C1028     1.0  0.32395  0.77842  0.98222  1.0000
  H   H1723     1.0  0.34335  0.49931  0.13222  1.0000
  H   H1724     1.0  0.33158  0.51694  0.14768  1.0000
  C   C1029     1.0  0.24328  0.91270  0.27253  1.0000
  H   H1725     1.0  0.26380  0.87571  0.24720  1.0000
  H   H1726     1.0  0.33081  0.73287  0.20634  1.0000
  H   H1727     1.0  0.24795  0.67709  0.13043  1.0000
  C   C1030     1.0  0.24551  0.67971  0.00704  1.0000
  C   C1031     1.0  0.25458  0.64534  0.98639  1.0000
  H   H1728     1.0  0.28765  0.82267  0.08253  1.0000
  N   N70       1.0  0.29353  0.82801  0.10843  1.0000
  H   H1729     1.0  0.24294  0.90474  0.30484  1.0000
  S   S311      1.0  0.24247  0.66628  0.06587  1.0000
  H   H1730     1.0  0.28560  0.87777  0.26707  1.0000
  H   H1731     1.0  0.26681  0.53277  0.29464  1.0000
  H   H1732     1.0  0.40443  0.72974  0.31128  1.0000
  H   H1733     1.0  0.38266  0.72954  0.28986  1.0000
  C   C1032     1.0  0.37199  0.74445  0.18286  1.0000
  C   C1033     1.0  0.25546  0.89045  0.24952  1.0000
  C   C1034     1.0  0.37680  0.78776  0.26069  1.0000
  H   H1734     1.0  0.32247  0.80184  0.08711  1.0000
  C   C1035     1.0  0.38752  0.90360  0.24808  1.0000
  H   H1735     1.0  0.31884  0.93331  0.28476  1.0000
  H   H1736     1.0  0.29198  0.75645  0.02188  1.0000
  S   S312      1.0  0.31969  0.71972  0.01783  1.0000
  H   H1737     1.0  0.28653  0.84914  0.14898  1.0000
  H   H1738     1.0  0.37750  0.78450  0.27636  1.0000
  H   H1739     1.0  0.32032  0.82492  0.07024  1.0000
  N   N71       1.0  0.25566  0.89314  0.26950  1.0000
  H   H1740     1.0  0.39232  0.91931  0.26677  1.0000
  Fe  Fe156     1.0  0.30838  0.72725  0.99010  1.0000
  C   C1036     1.0  0.25925  0.57822  0.27137  1.0000
  C   C1037     1.0  0.26339  0.58388  0.25095  1.0000
  H   H1741     1.0  0.26815  0.52519  0.17421  1.0000
  H   H1742     1.0  0.27971  0.90318  0.22941  1.0000
  H   H1743     1.0  0.24954  0.87572  0.29901  1.0000
  Fe  Fe157     1.0  0.24514  0.63656  0.08485  1.0000
  N   N72       1.0  0.26637  0.64643  0.00037  1.0000
  S   S313      1.0  0.44907  0.62230  0.25923  1.0000
  Fe  Fe158     1.0  0.30259  0.53284  0.20371  1.0000
  C   C1038     1.0  0.35035  0.78755  0.99280  1.0000
  C   C1039     1.0  0.24640  0.49625  0.31103  1.0000
  N   N73       1.0  0.41006  0.77525  0.23890  1.0000
  C   C1040     1.0  0.42375  0.75586  0.23740  1.0000
  C   C1041     1.0  0.41904  0.78604  0.24846  1.0000
  C   C1042     1.0  0.40896  0.78641  0.21843  1.0000
  C   C1043     1.0  0.41909  0.74356  0.22527  1.0000
  C   C1044     1.0  0.42311  0.77546  0.26878  1.0000
  H   H1744     1.0  0.31469  0.91835  0.27082  1.0000
  H   H1745     1.0  0.42408  0.74638  0.25213  1.0000
  H   H1746     1.0  0.41008  0.80060  0.25007  1.0000
  H   H1747     1.0  0.43313  0.78919  0.23908  1.0000
  H   H1748     1.0  0.42378  0.78808  0.20984  1.0000
  H   H1749     1.0  0.40328  0.77840  0.21060  1.0000
  H   H1750     1.0  0.48184  0.69779  0.19323  1.0000
  H   H1751     1.0  0.42359  0.74918  0.20939  1.0000
  H   H1752     1.0  0.42748  0.72840  0.22842  1.0000
  H   H1753     1.0  0.40350  0.74276  0.22887  1.0000
  H   H1754     1.0  0.43538  0.76275  0.26797  1.0000
  H   H1755     1.0  0.42758  0.78563  0.27515  1.0000
  H   H1756     1.0  0.27065  0.57560  0.27940  1.0000
  H   H1757     1.0  0.26557  0.72025  0.05364  1.0000
  H   H1758     1.0  0.27680  0.86584  0.08673  1.0000
  H   H1759     1.0  0.34858  0.87650  0.29551  1.0000
  C   C1045     1.0  0.48329  0.69257  0.17970  1.0000
  H   H1760     1.0  0.27096  0.52842  0.24732  1.0000
  H   H1761     1.0  0.26287  0.53637  0.15072  1.0000
  S   S314      1.0  0.43443  0.76287  0.31431  1.0000
  H   H1762     1.0  0.35108  0.81313  0.30573  1.0000
  C   C1046     1.0  0.25720  0.70211  0.11021  1.0000
  C   C1047     1.0  0.29342  0.52776  0.27373  1.0000
  H   H1763     1.0  0.29981  0.80209  0.13062  1.0000
  H   H1764     1.0  0.36158  0.74307  0.17467  1.0000
  C   C1048     1.0  0.42887  0.63623  0.30457  1.0000
  H   H1765     1.0  0.36373  0.72217  0.20704  1.0000
  H   H1766     1.0  0.28922  0.54233  0.26467  1.0000
  H   H1767     1.0  0.40031  0.90724  0.23668  1.0000
  H   H1768     1.0  0.37922  0.80265  0.25400  1.0000
  C   C1049     1.0  0.32491  0.91954  0.27938  1.0000
  H   H1769     1.0  0.46583  0.64037  0.22036  1.0000
  C   C1050     1.0  0.37998  0.91972  0.26012  1.0000
  C   C1051     1.0  0.46834  0.63206  0.26093  1.0000
  H   H1770     1.0  0.34775  0.90842  0.25729  1.0000
  H   H1771     1.0  0.34353  0.93371  0.25481  1.0000
  H   H1772     1.0  0.37815  0.93397  0.24962  1.0000
  H   H1773     1.0  0.28071  0.50868  0.29883  1.0000
  C   C1052     1.0  0.31937  0.52164  0.12130  1.0000
  H   H1774     1.0  0.24396  0.61813  0.99227  1.0000
  N   N74       1.0  0.34707  0.74962  0.21475  1.0000
  C   C1053     1.0  0.36540  0.73744  0.20509  1.0000
  C   C1054     1.0  0.34417  0.74157  0.23643  1.0000
  C   C1055     1.0  0.35002  0.77043  0.21023  1.0000
  C   C1056     1.0  0.27581  0.83569  0.30703  1.0000
  H   H1775     1.0  0.27449  0.88448  0.30222  1.0000
  H   H1776     1.0  0.28057  0.71138  0.03274  1.0000
  C   C1057     1.0  0.33936  0.78319  0.22544  1.0000
  C   C1058     1.0  0.30986  0.75672  0.21658  1.0000
  H   H1777     1.0  0.37778  0.73648  0.21201  1.0000
  H   H1778     1.0  0.29572  0.63877  0.00538  1.0000
  H   H1779     1.0  0.33115  0.75019  0.24454  1.0000
  H   H1780     1.0  0.35670  0.74270  0.24206  1.0000
  H   H1781     1.0  0.36567  0.77079  0.20836  1.0000
  H   H1782     1.0  0.34606  0.77846  0.19606  1.0000
  C   C1059     1.0  0.28675  0.52194  0.11785  1.0000
  H   H1783     1.0  0.29975  0.85552  0.07255  1.0000
  H   H1784     1.0  0.29691  0.53507  0.14974  1.0000
  H   H1785     1.0  0.37435  0.75962  0.17883  1.0000
  C   C1060     1.0  0.26365  0.90542  0.23192  1.0000
  H   H1786     1.0  0.33812  0.71659  0.25934  1.0000
  C   C1061     1.0  0.29325  0.52077  0.15064  1.0000
  H   H1787     1.0  0.38500  0.94327  0.28297  1.0000
  H   H1788     1.0  0.34541  0.77813  0.23887  1.0000
  H   H1789     1.0  0.32350  0.78397  0.22940  1.0000
  H   H1790     1.0  0.34166  0.79834  0.21927  1.0000
  H   H1791     1.0  0.26043  0.90327  0.21851  1.0000
  H   H1792     1.0  0.30752  0.77263  0.21519  1.0000
  C   C1062     1.0  0.24883  0.58688  0.24043  1.0000
  N   N75       1.0  0.31355  0.65027  0.10020  1.0000
  C   C1063     1.0  0.32138  0.63002  0.09619  1.0000
  C   C1064     1.0  0.29493  0.65837  0.09271  1.0000
  C   C1065     1.0  0.30932  0.65001  0.12172  1.0000
  C   C1066     1.0  0.32860  0.66258  0.09018  1.0000
  C   C1067     1.0  0.33872  0.61791  0.10550  1.0000
  C   C1068     1.0  0.29726  0.66390  0.07034  1.0000
  C   C1069     1.0  0.29490  0.63718  0.13461  1.0000
  C   C1070     1.0  0.32255  0.68427  0.09176  1.0000
  H   H1793     1.0  0.30977  0.62133  0.10111  1.0000
  H   H1794     1.0  0.32613  0.63050  0.08023  1.0000
  H   H1795     1.0  0.28646  0.67138  0.09865  1.0000
  H   H1796     1.0  0.28506  0.64772  0.09792  1.0000
  H   H1797     1.0  0.32292  0.64545  0.12752  1.0000
  H   H1798     1.0  0.30322  0.66496  0.12445  1.0000
  H   H1799     1.0  0.34189  0.65686  0.09645  1.0000
  H   H1800     1.0  0.33404  0.66167  0.07453  1.0000
  H   H1801     1.0  0.34327  0.60360  0.10098  1.0000
  H   H1802     1.0  0.35155  0.62490  0.10057  1.0000
  H   H1803     1.0  0.33473  0.61461  0.12166  1.0000
  H   H1804     1.0  0.30510  0.67608  0.06377  1.0000
  H   H1805     1.0  0.30451  0.65123  0.06338  1.0000
  H   H1806     1.0  0.28032  0.64216  0.13083  1.0000
  H   H1807     1.0  0.29293  0.63828  0.15005  1.0000
  H   H1808     1.0  0.30036  0.62159  0.13397  1.0000
  H   H1809     1.0  0.32475  0.68634  0.10567  1.0000
  H   H1810     1.0  0.30729  0.69077  0.09055  1.0000
  H   H1811     1.0  0.33135  0.69297  0.07938  1.0000
  S   S315      1.0  0.30017  0.55296  0.22366  1.0000
  H   H1812     1.0  0.36146  0.78799  0.26060  1.0000
  H   H1813     1.0  0.29925  0.75431  0.20920  1.0000
  H   H1814     1.0  0.34395  0.80290  0.99441  1.0000
  H   H1815     1.0  0.34350  0.93561  0.29655  1.0000
  H   H1816     1.0  0.30619  0.74944  0.23208  1.0000
  H   H1817     1.0  0.35683  0.77227  0.02124  1.0000
  H   H1818     1.0  0.26703  0.83403  0.09757  1.0000
  H   H1819     1.0  0.32333  0.76501  0.99361  1.0000
  C   C1071     1.0  0.42921  0.71170  0.29640  1.0000
  C   C1072     1.0  0.36227  0.88097  0.28666  1.0000
  H   H1820     1.0  0.35545  0.70995  0.23877  1.0000
  H   H1821     1.0  0.29417  0.54901  0.09859  1.0000
  S   S316      1.0  0.44435  0.70944  0.31260  1.0000
  C   C1073     1.0  0.48069  0.65887  0.26451  1.0000
  C   C1074     1.0  0.38148  0.80734  0.30668  1.0000
  C   C1075     1.0  0.33052  0.74830  0.20639  1.0000
  Fe  Fe159     1.0  0.42503  0.64364  0.24605  1.0000
  H   H1822     1.0  0.38611  0.73504  0.17772  1.0000
  C   C1076     1.0  0.26270  0.61529  0.02752  1.0000
  C   C1077     1.0  0.29170  0.83668  0.14140  1.0000
  H   H1823     1.0  0.37683  0.90229  0.24021  1.0000
  H   H1824     1.0  0.25744  0.86226  0.28050  1.0000
  H   H1825     1.0  0.31056  0.80051  0.00062  1.0000
  H   H1826     1.0  0.27734  0.85600  0.06631  1.0000
  H   H1827     1.0  0.28635  0.49770  0.25950  1.0000
  C   C1078     1.0  0.34174  0.72017  0.24314  1.0000
  H   H1828     1.0  0.43900  0.75790  0.23109  1.0000
  H   H1829     1.0  0.33208  0.75589  0.19082  1.0000
  N   N76       1.0  0.36030  0.65126  0.16979  1.0000
  C   C1079     1.0  0.38182  0.65022  0.16202  1.0000
  C   C1080     1.0  0.34983  0.65982  0.15311  1.0000
  C   C1081     1.0  0.35592  0.63129  0.17904  1.0000
  C   C1082     1.0  0.35361  0.66364  0.18507  1.0000
  C   C1083     1.0  0.39500  0.64026  0.17691  1.0000
  C   C1084     1.0  0.35118  0.68105  0.14297  1.0000
  C   C1085     1.0  0.33143  0.66863  0.19281  1.0000
  H   H1830     1.0  0.38705  0.64284  0.14938  1.0000
  H   H1831     1.0  0.38502  0.66507  0.15618  1.0000
  H   H1832     1.0  0.33412  0.65909  0.15791  1.0000
  H   H1833     1.0  0.35565  0.65119  0.14145  1.0000
  H   H1834     1.0  0.33996  0.63191  0.18343  1.0000
  H   H1835     1.0  0.36003  0.65627  0.19810  1.0000
  H   H1836     1.0  0.35887  0.67759  0.17964  1.0000
  H   H1837     1.0  0.39214  0.64842  0.18872  1.0000
  H   H1838     1.0  0.39377  0.62490  0.18330  1.0000
  H   H1839     1.0  0.41042  0.64018  0.16938  1.0000
  H   H1840     1.0  0.34235  0.68579  0.13153  1.0000
  H   H1841     1.0  0.34512  0.69121  0.15312  1.0000
  H   H1842     1.0  0.36625  0.68263  0.13554  1.0000
  H   H1843     1.0  0.32358  0.67795  0.18139  1.0000
  H   H1844     1.0  0.32856  0.67697  0.20453  1.0000
  H   H1845     1.0  0.34248  0.76035  0.01357  1.0000
  C   C1086     1.0  0.26559  0.66770  0.99943  1.0000
  H   H1846     1.0  0.28259  0.66906  0.06675  1.0000
  C   C1087     1.0  0.25846  0.52961  0.25992  1.0000
  C   C1088     1.0  0.37252  0.93859  0.29415  1.0000
  C   C1089     1.0  0.34505  0.91989  0.26578  1.0000
  H   H1847     1.0  0.35330  0.94968  0.27388  1.0000
  C   C1090     1.0  0.30652  0.84612  0.29937  1.0000
  H   H1848     1.0  0.31826  0.84237  0.09633  1.0000
  H   H1849     1.0  0.27787  0.58591  0.24336  1.0000
  H   H1850     1.0  0.26035  0.70063  0.04583  1.0000
  H   H1851     1.0  0.46944  0.63136  0.30402  1.0000
  C   C1091     1.0  0.28242  0.54430  0.11079  1.0000
  C   C1092     1.0  0.24827  0.87624  0.28400  1.0000
  H   H1852     1.0  0.30234  0.51751  0.26430  1.0000
  C   C1093     1.0  0.25783  0.63764  0.02111  1.0000
  C   C1094     1.0  0.39037  0.77148  0.25043  1.0000
  H   H1853     1.0  0.32517  0.90696  0.29182  1.0000
  C   C1095     1.0  0.28285  0.83378  0.09190  1.0000
  C   C1096     1.0  0.29074  0.80792  0.11937  1.0000
  C   C1097     1.0  0.39578  0.80678  0.21634  1.0000
  H   H1854     1.0  0.38029  0.80567  0.22147  1.0000
  C   C1098     1.0  0.31508  0.82743  0.10108  1.0000
  H   H1855     1.0  0.47844  0.67391  0.26555  1.0000
  H   H1856     1.0  0.27258  0.51750  0.12458  1.0000
  C   C1099     1.0  0.33623  0.51474  0.13244  1.0000
  N   N77       1.0  0.26259  0.51404  0.27753  1.0000
  C   C1100     1.0  0.34487  0.77486  0.01333  1.0000
  H   H1857     1.0  0.25878  0.75330  0.05733  1.0000
  N   N78       1.0  0.36160  0.91835  0.27548  1.0000
  C   C1101     1.0  0.26532  0.71466  0.04084  1.0000
  H   H1858     1.0  0.34759  0.52353  0.12508  1.0000
  H   H1859     1.0  0.26549  0.82976  0.30295  1.0000
  C   C1102     1.0  0.28447  0.85396  0.07876  1.0000
  H   H1860     1.0  0.35979  0.60175  0.17506  1.0000
  C   C1103     1.0  0.36408  0.61564  0.16643  1.0000
  C   C1104     1.0  0.35676  0.93596  0.28475  1.0000
  H   H1861     1.0  0.33752  0.71797  0.04885  1.0000
  H   H1862     1.0  0.38018  0.61255  0.16257  1.0000
  H   H1863     1.0  0.25700  0.92068  0.23326  1.0000
  H   H1864     1.0  0.28493  0.82454  0.15101  1.0000
  H   H1865     1.0  0.35796  0.61941  0.15311  1.0000
  H   H1866     1.0  0.26147  0.74085  0.01940  1.0000
  C   C1105     1.0  0.46951  0.63457  0.20688  1.0000
  H   H1867     1.0  0.30285  0.52954  0.28281  1.0000
  H   H1868     1.0  0.38226  0.76802  0.24103  1.0000
  H   H1869     1.0  0.36300  0.88116  0.27123  1.0000
  H   H1870     1.0  0.29222  0.51548  0.10455  1.0000
  H   H1871     1.0  0.26877  0.54889  0.10511  1.0000
  H   H1872     1.0  0.45844  0.64201  0.19788  1.0000
  C   C1106     1.0  0.32500  0.81684  0.08400  1.0000
  H   H1873     1.0  0.47837  0.66837  0.17073  1.0000
  H   H1874     1.0  0.44224  0.62470  0.30309  1.0000
  H   H1875     1.0  0.35373  0.90216  0.30483  1.0000
  H   H1876     1.0  0.41502  0.61733  0.29605  1.0000
  H   H1877     1.0  0.27499  0.90989  0.29109  1.0000
  C   C1107     1.0  0.28043  0.89463  0.28915  1.0000
  C   C1108     1.0  0.48654  0.61987  0.26221  1.0000
  H   H1878     1.0  0.24557  0.76370  0.00010  1.0000
  H   H1879     1.0  0.29640  0.89141  0.28818  1.0000
  H   H1880     1.0  0.42947  0.64614  0.28996  1.0000
  H   H1881     1.0  0.31740  0.48613  0.14309  1.0000
  H   H1882     1.0  0.25137  0.92451  0.26452  1.0000
  H   H1883     1.0  0.36642  0.78634  0.98938  1.0000
  H   H1884     1.0  0.25358  0.61101  0.04216  1.0000
  H   H1885     1.0  0.47154  0.70214  0.17237  1.0000
  H   H1886     1.0  0.34813  0.74148  0.98840  1.0000
  C   C1109     1.0  0.24744  0.76087  0.04864  1.0000
  S   S317      1.0  0.32550  0.98416  0.30702  1.0000
  C   C1110     1.0  0.30600  0.49229  0.13432  1.0000
  H   H1887     1.0  0.26518  0.51044  0.15945  1.0000
  H   H1888     1.0  0.25451  0.76523  0.03325  1.0000
  H   H1889     1.0  0.37422  0.86897  0.29121  1.0000
  C   C1111     1.0  0.48025  0.67149  0.18438  1.0000
  H   H1890     1.0  0.29400  0.78812  0.99653  1.0000
  H   H1891     1.0  0.47786  0.64891  0.31114  1.0000
  H   H1892     1.0  0.26290  0.48943  0.24810  1.0000
  C   C1112     1.0  0.30718  0.79442  0.98959  1.0000
  C   C1113     1.0  0.25292  0.72950  0.02712  1.0000
  S   S318      1.0  0.24282  0.70367  0.09357  1.0000
  H   H1893     1.0  0.44781  0.66395  0.29851  1.0000
  H   H1894     1.0  0.25254  0.72217  0.01549  1.0000
  H   H1895     1.0  0.41211  0.67361  0.30474  1.0000
  C   C1114     1.0  0.44650  0.65563  0.31379  1.0000
  C   C1115     1.0  0.25576  0.62515  0.98225  1.0000
  S   S319      1.0  0.29334  0.70670  0.98391  1.0000
  H   H1896     1.0  0.47920  0.73814  0.30919  1.0000
  H   H1897     1.0  0.27029  0.67538  0.98418  1.0000
  H   H1898     1.0  0.24173  0.64204  0.02409  1.0000
  H   H1899     1.0  0.31235  0.48773  0.12004  1.0000
  C   C1116     1.0  0.49017  0.63647  0.19523  1.0000
  C   C1117     1.0  0.36164  0.74710  0.98157  1.0000
  H   H1900     1.0  0.24341  0.77217  0.52756  1.0000
  C   C1118     1.0  0.27167  0.58321  0.38753  1.0000
  H   H1901     1.0  0.24474  0.77478  0.37329  1.0000
  C   C1119     1.0  0.26328  0.80573  0.50538  1.0000
  C   C1120     1.0  0.27118  0.84143  0.32499  1.0000
  H   H1902     1.0  0.28330  0.80086  0.55757  1.0000
  H   H1903     1.0  0.35277  0.69993  0.57768  1.0000
  H   H1904     1.0  0.30109  0.64332  0.37391  1.0000
  C   C1121     1.0  0.32024  0.81681  0.37313  1.0000
  Fe  Fe160     1.0  0.30554  0.75676  0.61424  1.0000
  S   S320      1.0  0.31577  0.76557  0.58156  1.0000
  C   C1122     1.0  0.35693  0.76700  0.37891  1.0000
  S   S321      1.0  0.32097  0.72953  0.63164  1.0000
  H   H1905     1.0  0.33726  0.71920  0.58885  1.0000
  H   H1906     1.0  0.31396  0.65961  0.56146  1.0000
  H   H1907     1.0  0.31150  0.82303  0.36161  1.0000
  S   S322      1.0  0.45092  0.73350  0.35222  1.0000
  H   H1908     1.0  0.28939  0.63386  0.40551  1.0000
  Fe  Fe161     1.0  0.42162  0.74439  0.36992  1.0000
  S   S323      1.0  0.41225  0.73674  0.40255  1.0000
  S   S324      1.0  0.42176  0.77597  0.35656  1.0000
  C   C1123     1.0  0.33334  0.79726  0.36912  1.0000
  Fe  Fe162     1.0  0.26421  0.73513  0.47242  1.0000
  S   S325      1.0  0.26608  0.75448  0.49123  1.0000
  C   C1124     1.0  0.30208  0.66970  0.56906  1.0000
  Fe  Fe163     1.0  0.30784  0.72808  0.45564  1.0000
  S   S326      1.0  0.31350  0.74646  0.47356  1.0000
  S   S327      1.0  0.32919  0.71424  0.43192  1.0000
  Fe  Fe164     1.0  0.29234  0.73198  0.49799  1.0000
  S   S328      1.0  0.29327  0.71961  0.52970  1.0000
  Fe  Fe165     1.0  0.28676  0.76706  0.46519  1.0000
  S   S329      1.0  0.28642  0.79882  0.45282  1.0000
  S   S330      1.0  0.28901  0.71161  0.48079  1.0000
  S   S331      1.0  0.28245  0.74972  0.44572  1.0000
  C   C1125     1.0  0.27185  0.95981  0.37032  1.0000
  H   H1909     1.0  0.31693  0.92782  0.33454  1.0000
  H   H1910     1.0  0.41925  0.64038  0.36869  1.0000
  H   H1911     1.0  0.30948  0.77577  0.39566  1.0000
  H   H1912     1.0  0.38561  0.79887  0.39336  1.0000
  H   H1913     1.0  0.40095  0.66857  0.34953  1.0000
  C   C1126     1.0  0.24679  0.80544  0.45687  1.0000
  C   C1127     1.0  0.38939  0.73006  0.41087  1.0000
  C   C1128     1.0  0.37707  0.73570  0.42770  1.0000
  C   C1129     1.0  0.35851  0.73104  0.43422  1.0000
  C   C1130     1.0  0.35233  0.72039  0.42414  1.0000
  C   C1131     1.0  0.36478  0.71452  0.40746  1.0000
  C   C1132     1.0  0.38322  0.71944  0.40076  1.0000
  H   H1914     1.0  0.38184  0.74381  0.43563  1.0000
  H   H1915     1.0  0.34916  0.73541  0.44720  1.0000
  H   H1916     1.0  0.36012  0.70618  0.39968  1.0000
  H   H1917     1.0  0.39277  0.71474  0.38798  1.0000
  C   C1133     1.0  0.25669  0.68743  0.44127  1.0000
  H   H1918     1.0  0.26919  0.79543  0.49522  1.0000
  C   C1134     1.0  0.26426  0.81066  0.44585  1.0000
  N   N79       1.0  0.27174  0.92490  0.36694  1.0000
  N   N80       1.0  0.34554  0.78623  0.38402  1.0000
  C   C1135     1.0  0.31636  0.77303  0.40826  1.0000
  C   C1136     1.0  0.26404  0.82548  0.42914  1.0000
  H   H1919     1.0  0.24741  0.80575  0.50966  1.0000
  H   H1920     1.0  0.24240  0.75318  0.43053  1.0000
  H   H1921     1.0  0.30467  0.77885  0.41979  1.0000
  Fe  Fe166     1.0  0.40676  0.77093  0.33537  1.0000
  C   C1137     1.0  0.26962  0.70124  0.62110  1.0000
  C   C1138     1.0  0.26416  0.66535  0.54180  1.0000
  S   S332      1.0  0.24264  0.66032  0.43163  1.0000
  H   H1922     1.0  0.27763  0.64933  0.36694  1.0000
  H   H1923     1.0  0.24318  0.64145  0.50529  1.0000
  C   C1139     1.0  0.41074  0.66378  0.31941  1.0000
  H   H1924     1.0  0.35830  0.64204  0.59882  1.0000
  H   H1925     1.0  0.29733  0.66758  0.61028  1.0000
  H   H1926     1.0  0.29742  0.94788  0.33843  1.0000
  C   C1140     1.0  0.30919  0.75322  0.56696  1.0000
  C   C1141     1.0  0.31880  0.75414  0.54738  1.0000
  C   C1142     1.0  0.31386  0.74414  0.53560  1.0000
  C   C1143     1.0  0.29916  0.73335  0.54337  1.0000
  C   C1144     1.0  0.28940  0.73271  0.56280  1.0000
  C   C1145     1.0  0.29446  0.74247  0.57459  1.0000
  H   H1927     1.0  0.33034  0.76229  0.54144  1.0000
  H   H1928     1.0  0.32173  0.74439  0.52071  1.0000
  H   H1929     1.0  0.27781  0.72466  0.56871  1.0000
  H   H1930     1.0  0.28690  0.74171  0.58955  1.0000
  H   H1931     1.0  0.27791  0.93358  0.39100  1.0000
  H   H1932     1.0  0.32086  0.75706  0.41329  1.0000
  H   H1933     1.0  0.33291  0.75233  0.38080  1.0000
  H   H1934     1.0  0.24415  0.93914  0.35906  1.0000
  H   H1935     1.0  0.34423  0.76279  0.35611  1.0000
  H   H1936     1.0  0.35638  0.74106  0.36952  1.0000
  S   S333      1.0  0.27710  0.85936  0.35123  1.0000
  H   H1937     1.0  0.32881  0.82774  0.37240  1.0000
  C   C1146     1.0  0.25484  0.67813  0.61367  1.0000
  H   H1938     1.0  0.30975  0.81497  0.38728  1.0000
  H   H1939     1.0  0.24747  0.64408  0.54320  1.0000
  C   C1147     1.0  0.25923  0.93335  0.35190  1.0000
  H   H1940     1.0  0.39723  0.65826  0.32170  1.0000
  Fe  Fe167     1.0  0.44961  0.76468  0.33696  1.0000
  C   C1148     1.0  0.28416  0.84963  0.33012  1.0000
  H   H1941     1.0  0.43639  0.61912  0.33805  1.0000
  C   C1149     1.0  0.26542  0.67122  0.64430  1.0000
  S   S334      1.0  0.40488  0.74003  0.34986  1.0000
  H   H1942     1.0  0.24685  0.79403  0.46980  1.0000
  C   C1150     1.0  0.26116  0.69582  0.60844  1.0000
  H   H1943     1.0  0.25313  0.74086  0.39071  1.0000
  H   H1944     1.0  0.30389  0.60816  0.37411  1.0000
  H   H1945     1.0  0.27011  0.76643  0.39084  1.0000
  C   C1151     1.0  0.26496  0.79720  0.38771  1.0000
  C   C1152     1.0  0.33363  0.78316  0.40451  1.0000
  H   H1946     1.0  0.25734  0.83988  0.33464  1.0000
  H   H1947     1.0  0.30225  0.91921  0.36822  1.0000
  H   H1948     1.0  0.32356  0.78863  0.36733  1.0000
  H   H1949     1.0  0.44608  0.66659  0.32216  1.0000
  H   H1950     1.0  0.24696  0.81608  0.53861  1.0000
  C   C1153     1.0  0.29309  0.91941  0.35794  1.0000
  H   H1951     1.0  0.38490  0.77516  0.39127  1.0000
  C   C1154     1.0  0.31965  0.65708  0.62657  1.0000
  H   H1952     1.0  0.25386  0.71037  0.51491  1.0000
  C   C1155     1.0  0.28913  0.61771  0.37513  1.0000
  H   H1953     1.0  0.34288  0.77403  0.41493  1.0000
  H   H1954     1.0  0.29283  0.67804  0.55839  1.0000
  C   C1156     1.0  0.28899  0.61808  0.40861  1.0000
  C   C1157     1.0  0.25049  0.65806  0.53338  1.0000
  H   H1955     1.0  0.48677  0.67890  0.35697  1.0000
  C   C1158     1.0  0.30215  0.85135  0.31762  1.0000
  H   H1956     1.0  0.36802  0.80248  0.36781  1.0000
  H   H1957     1.0  0.29262  0.66141  0.58115  1.0000
  H   H1958     1.0  0.26684  0.96897  0.38157  1.0000
  H   H1959     1.0  0.28969  0.58361  0.40639  1.0000
  C   C1159     1.0  0.29176  0.63889  0.36653  1.0000
  H   H1960     1.0  0.41852  0.68305  0.33453  1.0000
  H   H1961     1.0  0.30445  0.61025  0.40566  1.0000
  H   H1962     1.0  0.27212  0.90988  0.33502  1.0000
  H   H1963     1.0  0.29045  0.89430  0.39325  1.0000
  C   C1160     1.0  0.36005  0.79834  0.38314  1.0000
  H   H1964     1.0  0.27753  0.82952  0.42056  1.0000
  H   H1965     1.0  0.36928  0.78565  0.41143  1.0000
  C   C1161     1.0  0.27435  0.89697  0.39727  1.0000
  C   C1162     1.0  0.26746  0.80494  0.55778  1.0000
  C   C1163     1.0  0.30970  0.68434  0.57596  1.0000
  H   H1966     1.0  0.36216  0.75713  0.39179  1.0000
  C   C1164     1.0  0.25688  0.66585  0.63165  1.0000
  N   N81       1.0  0.32310  0.67580  0.59026  1.0000
  C   C1165     1.0  0.43186  0.63996  0.35618  1.0000
  H   H1967     1.0  0.24648  0.84583  0.41004  1.0000
  C   C1166     1.0  0.24463  0.62817  0.38431  1.0000
  C   C1167     1.0  0.34192  0.66533  0.57965  1.0000
  H   H1968     1.0  0.27025  0.67750  0.53134  1.0000
  C   C1168     1.0  0.33734  0.70691  0.58223  1.0000
  C   C1169     1.0  0.32581  0.69257  0.59748  1.0000
  C   C1170     1.0  0.35869  0.65725  0.59080  1.0000
  H   H1969     1.0  0.35262  0.81225  0.38794  1.0000
  H   H1970     1.0  0.31682  0.69337  0.56247  1.0000
  H   H1971     1.0  0.43595  0.65434  0.35232  1.0000
  H   H1972     1.0  0.37032  0.76906  0.36764  1.0000
  H   H1973     1.0  0.24737  0.68712  0.50345  1.0000
  H   H1974     1.0  0.41178  0.63061  0.34481  1.0000
  H   H1975     1.0  0.33952  0.65261  0.57528  1.0000
  H   H1976     1.0  0.34746  0.67459  0.56546  1.0000
  H   H1977     1.0  0.29662  0.69427  0.58236  1.0000
  H   H1978     1.0  0.31142  0.70110  0.60356  1.0000
  H   H1979     1.0  0.27461  0.71482  0.61689  1.0000
  H   H1980     1.0  0.33088  0.71337  0.56920  1.0000
  C   C1171     1.0  0.34666  0.75539  0.37097  1.0000
  H   H1981     1.0  0.24749  0.90953  0.34845  1.0000
  H   H1982     1.0  0.48549  0.70340  0.32709  1.0000
  C   C1172     1.0  0.26842  0.93912  0.38010  1.0000
  H   H1983     1.0  0.26697  0.73535  0.40961  1.0000
  H   H1984     1.0  0.25937  0.80176  0.37403  1.0000
  H   H1985     1.0  0.35891  0.66618  0.60101  1.0000
  H   H1986     1.0  0.37280  0.65733  0.58021  1.0000
  C   C1173     1.0  0.37567  0.78871  0.39562  1.0000
  H   H1987     1.0  0.28753  0.95993  0.36476  1.0000
  H   H1988     1.0  0.24194  0.70200  0.53918  1.0000
  H   H1989     1.0  0.33347  0.68763  0.60981  1.0000
  C   C1174     1.0  0.42678  0.63357  0.33950  1.0000
  H   H1990     1.0  0.28132  0.59689  0.43610  1.0000
  H   H1991     1.0  0.26772  0.70904  0.44861  1.0000
  N   N82       1.0  0.27250  0.79890  0.52299  1.0000
  C   C1175     1.0  0.29400  0.79901  0.51747  1.0000
  C   C1176     1.0  0.24645  0.83478  0.42322  1.0000
  H   H1992     1.0  0.25855  0.82943  0.48071  1.0000
  C   C1177     1.0  0.26988  0.77836  0.53218  1.0000
  C   C1178     1.0  0.30575  0.78921  0.50027  1.0000
  H   H1993     1.0  0.26131  0.81671  0.56623  1.0000
  S   S335      1.0  0.24503  0.67140  0.59728  1.0000
  H   H1994     1.0  0.25403  0.50065  0.32016  1.0000
  H   H1995     1.0  0.29665  0.81413  0.51377  1.0000
  H   H1996     1.0  0.30106  0.79161  0.53008  1.0000
  H   H1997     1.0  0.28450  0.58075  0.37558  1.0000
  H   H1998     1.0  0.26407  0.94613  0.34138  1.0000
  C   C1179     1.0  0.27178  0.68892  0.63904  1.0000
  H   H1999     1.0  0.29093  0.61631  0.43852  1.0000
  H   H2000     1.0  0.27688  0.76851  0.52176  1.0000
  H   H2001     1.0  0.27766  0.77206  0.54441  1.0000
  H   H2002     1.0  0.32150  0.78830  0.49915  1.0000
  H   H2003     1.0  0.30371  0.77419  0.50214  1.0000
  H   H2004     1.0  0.30223  0.79785  0.48619  1.0000
  C   C1180     1.0  0.25783  0.91910  0.33989  1.0000
  H   H2005     1.0  0.25930  0.80868  0.39648  1.0000
  H   H2006     1.0  0.46610  0.63163  0.32959  1.0000
  S   S336      1.0  0.27568  0.75031  0.62689  1.0000
  H   H2007     1.0  0.33543  0.65151  0.62545  1.0000
  C   C1181     1.0  0.25783  0.62719  0.39836  1.0000
  C   C1182     1.0  0.25212  0.73807  0.40666  1.0000
  H   H2008     1.0  0.24882  0.91015  0.38508  1.0000
  C   C1183     1.0  0.24870  0.77529  0.53933  1.0000
  H   H2009     1.0  0.27676  0.65333  0.54440  1.0000
  H   H2010     1.0  0.27041  0.68197  0.43230  1.0000
  Fe  Fe168     1.0  0.24471  0.86238  0.36098  1.0000
  C   C1184     1.0  0.27595  0.59282  0.40230  1.0000
  H   H2011     1.0  0.25888  0.64238  0.39786  1.0000
  H   H2012     1.0  0.26058  0.79238  0.56592  1.0000
  H   H2013     1.0  0.26661  0.62124  0.43533  1.0000
  H   H2014     1.0  0.32817  0.79706  0.40989  1.0000
  H   H2015     1.0  0.34282  0.80030  0.35440  1.0000
  H   H2016     1.0  0.26758  0.89534  0.37085  1.0000
  H   H2017     1.0  0.44405  0.62907  0.36172  1.0000
  N   N83       1.0  0.27763  0.61399  0.39578  1.0000
  H   H2018     1.0  0.31234  0.85745  0.32168  1.0000
  H   H2019     1.0  0.26446  0.59072  0.41575  1.0000
  H   H2020     1.0  0.24962  0.96266  0.64390  1.0000
  H   H2021     1.0  0.25885  0.59150  0.38139  1.0000
  H   H2022     1.0  0.31500  0.66986  0.63367  1.0000
  C   C1185     1.0  0.49035  0.76392  0.35862  1.0000
  C   C1186     1.0  0.26486  0.90682  0.37948  1.0000
  C   C1187     1.0  0.31327  0.66183  0.60686  1.0000
  C   C1188     1.0  0.25518  0.70272  0.45051  1.0000
  H   H2023     1.0  0.31487  0.64769  0.60259  1.0000
  N   N84       1.0  0.42825  0.64729  0.31991  1.0000
  Fe  Fe169     1.0  0.43406  0.73240  0.33068  1.0000
  H   H2024     1.0  0.25940  0.70535  0.59459  1.0000
  H   H2025     1.0  0.26841  0.56865  0.39515  1.0000
  H   H2026     1.0  0.28094  0.79621  0.38344  1.0000
  H   H2027     1.0  0.25322  0.94080  0.38875  1.0000
  H   H2028     1.0  0.26956  0.81282  0.64207  1.0000
  H   H2029     1.0  0.26898  0.90556  0.40895  1.0000
  H   H2030     1.0  0.25948  0.65428  0.51943  1.0000
  H   H2031     1.0  0.25226  0.65205  0.63564  1.0000
  H   H2032     1.0  0.29923  0.64006  0.35096  1.0000
  H   H2033     1.0  0.28263  0.61367  0.36481  1.0000
  S   S337      1.0  0.47687  0.77686  0.32427  1.0000
  S   S338      1.0  0.30378  0.77577  0.63533  1.0000
  C   C1189     1.0  0.26525  0.82637  0.49365  1.0000
  H   H2034     1.0  0.29680  0.90424  0.35534  1.0000
  C   C1190     1.0  0.28131  0.61266  0.43083  1.0000
  S   S339      1.0  0.37878  0.78995  0.32839  1.0000
  C   C1191     1.0  0.30082  0.93218  0.33823  1.0000
  H   H2035     1.0  0.47581  0.76168  0.36574  1.0000
  H   H2036     1.0  0.25246  0.62658  0.36942  1.0000
  C   C1192     1.0  0.26065  0.77722  0.39952  1.0000
  H   H2037     1.0  0.27012  0.88258  0.40360  1.0000
  H   H2038     1.0  0.29528  0.92999  0.32619  1.0000
  H   H2039     1.0  0.26764  0.82667  0.53142  1.0000
  H   H2040     1.0  0.26622  0.77420  0.41318  1.0000
  H   H2041     1.0  0.41048  0.61492  0.32178  1.0000
  H   H2042     1.0  0.39419  0.68907  0.33129  1.0000
  C   C1193     1.0  0.40621  0.67661  0.33466  1.0000
  H   H2043     1.0  0.24924  0.62283  0.41327  1.0000
  Fe  Fe170     1.0  0.29085  0.72454  0.64577  1.0000
  H   H2044     1.0  0.24646  0.72445  0.41328  1.0000
  H   H2045     1.0  0.24808  0.76275  0.55190  1.0000
  H   H2046     1.0  0.26329  0.96711  0.35888  1.0000
  C   C1194     1.0  0.26304  0.81237  0.53709  1.0000
  H   H2047     1.0  0.25730  0.66949  0.55604  1.0000
  H   H2048     1.0  0.31218  0.64560  0.63665  1.0000
  H   H2049     1.0  0.25193  0.92748  0.32682  1.0000
  H   H2050     1.0  0.25739  0.83767  0.50228  1.0000
  H   H2051     1.0  0.28062  0.82783  0.48805  1.0000
  C   C1195     1.0  0.46584  0.64078  0.31485  1.0000
  H   H2052     1.0  0.33249  0.84339  0.78636  1.0000
  H   H2053     1.0  0.28297  0.75847  0.70687  1.0000
  H   H2054     1.0  0.38308  0.95764  0.82747  1.0000
  H   H2055     1.0  0.33289  0.81414  0.96575  1.0000
  S   S340      1.0  0.28782  0.74045  0.66931  1.0000
  Fe  Fe171     1.0  0.43216  0.66042  0.82232  1.0000
  S   S341      1.0  0.45141  0.63206  0.83206  1.0000
  C   C1196     1.0  0.39267  0.56838  0.91380  1.0000
  Fe  Fe172     1.0  0.41915  0.66914  0.86270  1.0000
  S   S342      1.0  0.43751  0.64142  0.87613  1.0000
  S   S343      1.0  0.40189  0.69414  0.87692  1.0000
  Fe  Fe173     1.0  0.46092  0.64819  0.84960  1.0000
  Fe  Fe174     1.0  0.42640  0.62772  0.85739  1.0000
  S   S344      1.0  0.41751  0.59826  0.86746  1.0000
  S   S345      1.0  0.44333  0.67695  0.83775  1.0000
  S   S346      1.0  0.40632  0.65501  0.84611  1.0000
  Fe  Fe175     1.0  0.31383  0.70871  0.95492  1.0000
  S   S347      1.0  0.29461  0.73424  0.93982  1.0000
  S   S348      1.0  0.32675  0.68185  0.94210  1.0000
  S   S349      1.0  0.33645  0.74229  0.67536  1.0000
  C   C1197     1.0  0.26629  0.95569  0.83491  1.0000
  C   C1198     1.0  0.30847  0.80594  0.66794  1.0000
  H   H2056     1.0  0.29093  0.50436  0.74560  1.0000
  Fe  Fe176     1.0  0.30977  0.75248  0.94953  1.0000
  S   S350      1.0  0.32505  0.77516  0.92818  1.0000
  H   H2057     1.0  0.36677  0.80001  0.65328  1.0000
  S   S351      1.0  0.33064  0.72684  0.96231  1.0000
  Fe  Fe177     1.0  0.43393  0.78449  0.72874  1.0000
  S   S352      1.0  0.41679  0.79153  0.75740  1.0000
  Fe  Fe178     1.0  0.39765  0.79481  0.71088  1.0000
  S   S353      1.0  0.37773  0.80274  0.73818  1.0000
  Fe  Fe179     1.0  0.40081  0.81760  0.73943  1.0000
  S   S354      1.0  0.39205  0.84713  0.74734  1.0000
  Fe  Fe180     1.0  0.39529  0.77601  0.75365  1.0000
  S   S355      1.0  0.38057  0.75711  0.78013  1.0000
  S   S356      1.0  0.41967  0.81196  0.71080  1.0000
  S   S357      1.0  0.41357  0.76665  0.72631  1.0000
  Fe  Fe181     1.0  0.31478  0.90949  0.84794  1.0000
  S   S358      1.0  0.28405  0.90811  0.86344  1.0000
  S   S359      1.0  0.32598  0.93764  0.83714  1.0000
  Fe  Fe182     1.0  0.32373  0.86747  0.84242  1.0000
  S   S360      1.0  0.29339  0.86328  0.85662  1.0000
  S   S361      1.0  0.34394  0.84052  0.83384  1.0000
  Fe  Fe183     1.0  0.28383  0.89328  0.83985  1.0000
  C   C1199     1.0  0.24517  0.51123  0.81851  1.0000
  Fe  Fe184     1.0  0.29664  0.87818  0.87879  1.0000
  S   S362      1.0  0.28625  0.86471  0.91030  1.0000
  S   S363      1.0  0.31391  0.89611  0.82343  1.0000
  S   S364      1.0  0.32769  0.88086  0.86554  1.0000
  Fe  Fe185     1.0  0.31607  0.53934  0.87527  1.0000
  S   S365      1.0  0.31166  0.56456  0.85056  1.0000
  S   S366      1.0  0.30277  0.54384  0.90583  1.0000
  Fe  Fe186     1.0  0.30527  0.54361  0.83634  1.0000
  S   S367      1.0  0.28000  0.55469  0.82099  1.0000
  Fe  Fe187     1.0  0.34312  0.55443  0.83816  1.0000
  S   S368      1.0  0.35963  0.57914  0.82577  1.0000
  H   H2058     1.0  0.35544  0.87052  0.73210  1.0000
  H   H2059     1.0  0.29233  0.88779  0.77124  1.0000
  H   H2060     1.0  0.34753  0.77769  0.64950  1.0000
  C   C1200     1.0  0.26567  0.53812  0.82169  1.0000
  C   C1201     1.0  0.35824  0.76711  0.96776  1.0000
  H   H2061     1.0  0.41917  0.69836  0.75691  1.0000
  C   C1202     1.0  0.26000  0.81753  0.65487  1.0000
  H   H2062     1.0  0.35849  0.95671  0.87978  1.0000
  C   C1203     1.0  0.26911  0.51890  0.83213  1.0000
  C   C1204     1.0  0.32339  0.54583  0.77094  1.0000
  H   H2063     1.0  0.47826  0.65239  0.88490  1.0000
  H   H2064     1.0  0.32107  0.81283  0.79609  1.0000
  C   C1205     1.0  0.29576  0.56870  0.90641  1.0000
  C   C1206     1.0  0.30526  0.58219  0.89222  1.0000
  C   C1207     1.0  0.29939  0.60210  0.89245  1.0000
  N   N85       1.0  0.35688  0.58467  0.91248  1.0000
  H   H2065     1.0  0.32724  0.50721  0.75237  1.0000
  H   H2066     1.0  0.47524  0.67956  0.78783  1.0000
  H   H2067     1.0  0.31732  0.57727  0.88118  1.0000
  C   C1208     1.0  0.24761  0.80566  0.66755  1.0000
  H   H2068     1.0  0.29307  0.55312  0.75349  1.0000
  H   H2069     1.0  0.24693  0.57867  0.90404  1.0000
  H   H2070     1.0  0.33103  0.79397  0.69561  1.0000
  H   H2071     1.0  0.34140  0.79567  0.72390  1.0000
  C   C1209     1.0  0.28177  0.77452  0.70339  1.0000
  H   H2072     1.0  0.28011  0.51415  0.84086  1.0000
  H   H2073     1.0  0.27457  0.86305  0.82537  1.0000
  C   C1210     1.0  0.37939  0.84546  0.77162  1.0000
  C   C1211     1.0  0.37591  0.82744  0.78286  1.0000
  C   C1212     1.0  0.36523  0.82613  0.80202  1.0000
  C   C1213     1.0  0.35769  0.84285  0.80997  1.0000
  C   C1214     1.0  0.36092  0.86097  0.79870  1.0000
  C   C1215     1.0  0.37194  0.86224  0.77955  1.0000
  H   H2074     1.0  0.38127  0.81450  0.77675  1.0000
  H   H2075     1.0  0.36236  0.81220  0.81044  1.0000
  H   H2076     1.0  0.35515  0.87393  0.80481  1.0000
  H   H2077     1.0  0.37457  0.87621  0.77085  1.0000
  S   S369      1.0  0.30694  0.51900  0.86220  1.0000
  H   H2078     1.0  0.35907  0.82287  0.94095  1.0000
  H   H2079     1.0  0.31439  0.49814  0.73144  1.0000
  H   H2080     1.0  0.31020  0.79025  0.66819  1.0000
  H   H2081     1.0  0.30234  0.81419  0.65496  1.0000
  H   H2082     1.0  0.27785  0.60987  0.85805  1.0000
  C   C1216     1.0  0.28659  0.71149  0.89278  1.0000
  C   C1217     1.0  0.31332  0.79974  0.92331  1.0000
  C   C1218     1.0  0.32214  0.81233  0.90734  1.0000
  C   C1219     1.0  0.31360  0.83214  0.90312  1.0000
  C   C1220     1.0  0.29654  0.83967  0.91528  1.0000
  C   C1221     1.0  0.28789  0.82715  0.93156  1.0000
  C   C1222     1.0  0.29614  0.80712  0.93546  1.0000
  H   H2083     1.0  0.33566  0.80683  0.89818  1.0000
  H   H2084     1.0  0.32043  0.84167  0.89060  1.0000
  H   H2085     1.0  0.27466  0.83295  0.94097  1.0000
  H   H2086     1.0  0.28932  0.79751  0.94790  1.0000
  C   C1223     1.0  0.41487  0.69464  0.78809  1.0000
  C   C1224     1.0  0.41233  0.70494  0.76946  1.0000
  C   C1225     1.0  0.40145  0.72406  0.76693  1.0000
  C   C1226     1.0  0.39280  0.73272  0.78310  1.0000
  C   C1227     1.0  0.39461  0.72208  0.80181  1.0000
  C   C1228     1.0  0.40579  0.70311  0.80430  1.0000
  H   H2087     1.0  0.26790  0.78082  0.71233  1.0000
  H   H2088     1.0  0.39979  0.73211  0.75249  1.0000
  H   H2089     1.0  0.38791  0.72871  0.81435  1.0000
  H   H2090     1.0  0.40758  0.69521  0.81875  1.0000
  C   C1229     1.0  0.40079  0.59298  0.85656  1.0000
  C   C1230     1.0  0.40212  0.57371  0.85510  1.0000
  C   C1231     1.0  0.38880  0.56907  0.84671  1.0000
  C   C1232     1.0  0.37398  0.58367  0.83984  1.0000
  C   C1233     1.0  0.37222  0.60281  0.84197  1.0000
  C   C1234     1.0  0.38561  0.60747  0.85025  1.0000
  H   H2091     1.0  0.41369  0.56237  0.86017  1.0000
  H   H2092     1.0  0.39041  0.55430  0.84497  1.0000
  H   H2093     1.0  0.36071  0.61413  0.83680  1.0000
  H   H2094     1.0  0.38416  0.62225  0.85180  1.0000
  C   C1235     1.0  0.38089  0.69024  0.89463  1.0000
  C   C1236     1.0  0.37034  0.70531  0.90426  1.0000
  C   C1237     1.0  0.35364  0.70274  0.91866  1.0000
  C   C1238     1.0  0.34743  0.68506  0.92363  1.0000
  C   C1239     1.0  0.35777  0.66999  0.91381  1.0000
  C   C1240     1.0  0.37453  0.67258  0.89928  1.0000
  H   H2095     1.0  0.37527  0.71892  0.90076  1.0000
  H   H2096     1.0  0.34571  0.71441  0.92607  1.0000
  H   H2097     1.0  0.35298  0.65628  0.91760  1.0000
  H   H2098     1.0  0.38267  0.66089  0.89187  1.0000
  C   C1241     1.0  0.32595  0.79471  0.72581  1.0000
  H   H2099     1.0  0.30747  0.86368  0.72097  1.0000
  H   H2100     1.0  0.37032  0.80925  0.96089  1.0000
  H   H2101     1.0  0.46259  0.80801  0.73615  1.0000
  H   H2102     1.0  0.30969  0.81811  0.77575  1.0000
  H   H2103     1.0  0.35376  0.76495  0.95494  1.0000
  Fe  Fe188     1.0  0.27527  0.73367  0.96943  1.0000
  H   H2104     1.0  0.31721  0.80369  0.73657  1.0000
  C   C1242     1.0  0.31504  0.95791  0.84813  1.0000
  C   C1243     1.0  0.30584  0.95579  0.86782  1.0000
  C   C1244     1.0  0.26254  0.60794  0.86335  1.0000
  C   C1245     1.0  0.31488  0.52721  0.77974  1.0000
  H   H2105     1.0  0.29987  0.52194  0.72510  1.0000
  H   H2106     1.0  0.30417  0.94149  0.87638  1.0000
  C   C1246     1.0  0.31703  0.97652  0.83716  1.0000
  N   N86       1.0  0.28440  0.69056  0.89731  1.0000
  C   C1247     1.0  0.29983  0.97210  0.87673  1.0000
  C   C1248     1.0  0.28702  0.68019  0.91764  1.0000
  C   C1249     1.0  0.29828  0.67958  0.88242  1.0000
  H   H2107     1.0  0.28055  0.95815  0.83578  1.0000
  H   H2108     1.0  0.25746  0.52984  0.88777  1.0000
  C   C1250     1.0  0.27387  0.68990  0.93437  1.0000
  C   C1251     1.0  0.31910  0.67071  0.88589  1.0000
  H   H2109     1.0  0.26989  0.94110  0.79190  1.0000
  H   H2110     1.0  0.32585  0.59613  0.91608  1.0000
  H   H2111     1.0  0.30209  0.67838  0.91938  1.0000
  H   H2112     1.0  0.28456  0.66504  0.92062  1.0000
  H   H2113     1.0  0.29251  0.66703  0.88145  1.0000
  H   H2114     1.0  0.29964  0.68901  0.86757  1.0000
  H   H2115     1.0  0.31707  0.71455  0.88156  1.0000
  H   H2116     1.0  0.27423  0.72059  0.90125  1.0000
  H   H2117     1.0  0.28111  0.54816  0.77834  1.0000
  C   C1252     1.0  0.33950  0.84677  0.74617  1.0000
  N   N87       1.0  0.29980  0.80042  0.70543  1.0000
  H   H2118     1.0  0.37098  0.58016  0.93666  1.0000
  H   H2119     1.0  0.30291  0.84191  0.75094  1.0000
  C   C1253     1.0  0.26394  0.69046  0.89619  1.0000
  H   H2120     1.0  0.25980  0.94819  0.86651  1.0000
  H   H2121     1.0  0.32807  0.66482  0.87296  1.0000
  C   C1254     1.0  0.39011  0.96960  0.85666  1.0000
  C   C1255     1.0  0.32196  0.82063  0.78064  1.0000
  H   H2122     1.0  0.25120  0.55635  0.86015  1.0000
  H   H2123     1.0  0.24978  0.96339  0.72779  1.0000
  H   H2124     1.0  0.43376  0.73748  0.80669  1.0000
  C   C1256     1.0  0.32874  0.56968  0.93699  1.0000
  H   H2125     1.0  0.26175  0.49055  0.83841  1.0000
  H   H2126     1.0  0.44843  0.71879  0.74556  1.0000
  H   H2127     1.0  0.24835  0.55897  0.80260  1.0000
  H   H2128     1.0  0.43517  0.72962  0.77373  1.0000
  N   N88       1.0  0.34389  0.78339  0.97629  1.0000
  C   C1257     1.0  0.35739  0.55382  0.89961  1.0000
  H   H2129     1.0  0.25691  0.61373  0.87694  1.0000
  H   H2130     1.0  0.39916  0.58157  0.90920  1.0000
  H   H2131     1.0  0.36989  0.54669  0.88957  1.0000
  C   C1258     1.0  0.28651  0.54180  0.76499  1.0000
  H   H2132     1.0  0.47012  0.70198  0.73834  1.0000
  H   H2133     1.0  0.48183  0.68417  0.80781  1.0000
  S   S370      1.0  0.25984  0.90449  0.82291  1.0000
  H   H2134     1.0  0.25437  0.61686  0.85203  1.0000
  H   H2135     1.0  0.35602  0.74189  0.70501  1.0000
  H   H2136     1.0  0.29085  0.64347  0.96294  1.0000
  H   H2137     1.0  0.37291  0.77074  0.96222  1.0000
  C   C1259     1.0  0.27602  0.96641  0.79973  1.0000
  H   H2138     1.0  0.26908  0.58116  0.85281  1.0000
  C   C1260     1.0  0.34289  0.80142  0.96022  1.0000
  S   S371      1.0  0.28255  0.69515  0.65504  1.0000
  H   H2139     1.0  0.33783  0.86922  0.71892  1.0000
  H   H2140     1.0  0.47136  0.74379  0.79301  1.0000
  C   C1261     1.0  0.35831  0.75460  0.69371  1.0000
  C   C1262     1.0  0.37223  0.78362  0.68135  1.0000
  H   H2141     1.0  0.39429  0.56201  0.90095  1.0000
  H   H2142     1.0  0.35830  0.54573  0.91454  1.0000
  H   H2143     1.0  0.28079  0.50407  0.77566  1.0000
  Fe  Fe189     1.0  0.24420  0.64180  0.91734  1.0000
  H   H2144     1.0  0.29344  0.94642  0.78101  1.0000
  C   C1263     1.0  0.36438  0.78734  0.66461  1.0000
  H   H2145     1.0  0.33603  0.81379  0.77235  1.0000
  H   H2146     1.0  0.33738  0.56081  0.94792  1.0000
  H   H2147     1.0  0.32701  0.56063  0.92758  1.0000
  C   C1264     1.0  0.24679  0.88259  0.78287  1.0000
  H   H2148     1.0  0.31311  0.63580  0.97152  1.0000
  C   C1265     1.0  0.35469  0.97074  0.86957  1.0000
  H   H2149     1.0  0.28645  0.79893  0.73629  1.0000
  H   H2150     1.0  0.33701  0.87379  0.76703  1.0000
  C   C1266     1.0  0.32351  0.87521  0.76171  1.0000
  C   C1267     1.0  0.24120  0.53063  0.80876  1.0000
  C   C1268     1.0  0.32066  0.84247  0.77967  1.0000
  H   H2151     1.0  0.25315  0.69917  0.90615  1.0000
  C   C1269     1.0  0.28323  0.82965  0.72229  1.0000
  H   H2152     1.0  0.33430  0.62449  0.90192  1.0000
  H   H2153     1.0  0.28555  0.71830  0.87740  1.0000
  S   S372      1.0  0.24342  0.73335  0.97663  1.0000
  H   H2154     1.0  0.44555  0.75026  0.76170  1.0000
  H   H2155     1.0  0.26995  0.80720  0.72074  1.0000
  H   H2156     1.0  0.28424  0.87471  0.73394  1.0000
  H   H2157     1.0  0.25870  0.55503  0.75681  1.0000
  C   C1270     1.0  0.30345  0.85646  0.75293  1.0000
  H   H2158     1.0  0.30894  0.90032  0.77491  1.0000
  H   H2159     1.0  0.31906  0.65830  0.89855  1.0000
  H   H2160     1.0  0.38522  0.93233  0.85981  1.0000
  H   H2161     1.0  0.37578  0.92648  0.84186  1.0000
  H   H2162     1.0  0.30294  0.73021  0.89807  1.0000
  H   H2163     1.0  0.24968  0.74541  0.93451  1.0000
  C   C1271     1.0  0.29813  0.64465  0.97419  1.0000
  C   C1272     1.0  0.29197  0.50712  0.78173  1.0000
  H   H2164     1.0  0.32020  0.77502  0.96965  1.0000
  H   H2165     1.0  0.24323  0.69754  0.87725  1.0000
  H   H2166     1.0  0.31928  0.53088  0.74003  1.0000
  H   H2167     1.0  0.31140  0.70564  0.90765  1.0000
  H   H2168     1.0  0.35738  0.96094  0.83448  1.0000
  C   C1273     1.0  0.30572  0.71537  0.89506  1.0000
  H   H2169     1.0  0.40197  0.96317  0.84553  1.0000
  C   C1274     1.0  0.37086  0.95767  0.84040  1.0000
  H   H2170     1.0  0.41909  0.75456  0.79115  1.0000
  H   H2171     1.0  0.27226  0.97700  0.78644  1.0000
  C   C1275     1.0  0.37132  0.57272  0.92482  1.0000
  H   H2172     1.0  0.30688  0.84724  0.78979  1.0000
  C   C1276     1.0  0.30574  0.48744  0.78706  1.0000
  C   C1277     1.0  0.28384  0.60858  0.90679  1.0000
  H   H2173     1.0  0.33439  0.54590  0.77911  1.0000
  N   N89       1.0  0.46506  0.72616  0.77614  1.0000
  H   H2174     1.0  0.40150  0.55762  0.92372  1.0000
  H   H2175     1.0  0.27843  0.68193  0.94822  1.0000
  C   C1278     1.0  0.46122  0.70873  0.75077  1.0000
  H   H2176     1.0  0.25381  0.62694  0.96713  1.0000
  N   N90       1.0  0.32169  0.85556  0.75967  1.0000
  H   H2177     1.0  0.47630  0.75271  0.76739  1.0000
  H   H2178     1.0  0.34661  0.61500  0.88006  1.0000
  H   H2179     1.0  0.45637  0.69693  0.76273  1.0000
  H   H2180     1.0  0.37162  0.79851  0.94032  1.0000
  H   H2181     1.0  0.30465  0.88458  0.73160  1.0000
  H   H2182     1.0  0.36391  0.61078  0.91626  1.0000
  H   H2183     1.0  0.29977  0.65987  0.97223  1.0000
  H   H2184     1.0  0.36996  0.57856  0.88384  1.0000
  S   S373      1.0  0.24876  0.86319  0.68155  1.0000
  N   N91       1.0  0.30157  0.52337  0.76871  1.0000
  H   H2185     1.0  0.25840  0.68919  0.93628  1.0000
  C   C1279     1.0  0.25488  0.86276  0.78752  1.0000
  H   H2186     1.0  0.32756  0.51492  0.78115  1.0000
  H   H2187     1.0  0.27328  0.56471  0.93218  1.0000
  N   N92       1.0  0.37048  0.97294  0.85143  1.0000
  H   H2188     1.0  0.25786  0.65546  0.97211  1.0000
  C   C1280     1.0  0.35038  0.75835  0.67703  1.0000
  C   C1281     1.0  0.47715  0.73908  0.77882  1.0000
  H   H2189     1.0  0.32505  0.77919  0.73168  1.0000
  H   H2190     1.0  0.37700  0.60302  0.89435  1.0000
  H   H2191     1.0  0.27307  0.54655  0.88333  1.0000
  C   C1282     1.0  0.35717  0.57591  0.89560  1.0000
  H   H2192     1.0  0.36017  0.85181  0.71872  1.0000
  H   H2193     1.0  0.24317  0.94703  0.81833  1.0000
  C   C1283     1.0  0.26823  0.54033  0.75878  1.0000
  H   H2194     1.0  0.35158  0.83988  0.75410  1.0000
  C   C1284     1.0  0.35345  0.77476  0.66246  1.0000
  H   H2195     1.0  0.32647  0.68136  0.88808  1.0000
  C   C1285     1.0  0.24852  0.89534  0.79376  1.0000
  H   H2196     1.0  0.37512  0.76421  0.70884  1.0000
  H   H2197     1.0  0.24217  0.98468  0.71067  1.0000
  H   H2198     1.0  0.30718  0.52832  0.79500  1.0000
  H   H2199     1.0  0.32296  0.80951  0.66579  1.0000
  C   C1286     1.0  0.36226  0.80814  0.95026  1.0000
  H   H2200     1.0  0.48814  0.71058  0.75636  1.0000
  H   H2201     1.0  0.33604  0.59701  0.93564  1.0000
  H   H2202     1.0  0.35511  0.63309  0.88648  1.0000
  C   C1287     1.0  0.24705  0.96867  0.71273  1.0000
  C   C1288     1.0  0.25855  0.69853  0.87595  1.0000
  C   C1289     1.0  0.31994  0.80221  0.70587  1.0000
  H   H2203     1.0  0.44960  0.70400  0.79454  1.0000
  C   C1290     1.0  0.25872  0.50552  0.83069  1.0000
  H   H2204     1.0  0.27968  0.81167  0.68597  1.0000
  C   C1291     1.0  0.34862  0.61990  0.89259  1.0000
  H   H2205     1.0  0.25273  0.54626  0.90387  1.0000
  C   C1292     1.0  0.25243  0.95743  0.85466  1.0000
  C   C1293     1.0  0.28473  0.80813  0.72173  1.0000
  H   H2206     1.0  0.26761  0.68996  0.86497  1.0000
  C   C1294     1.0  0.31374  0.51806  0.74985  1.0000
  C   C1295     1.0  0.43437  0.74811  0.79263  1.0000
  H   H2207     1.0  0.30324  0.80635  0.97732  1.0000
  H   H2208     1.0  0.30551  0.87789  0.79095  1.0000
  S   S374      1.0  0.43011  0.67156  0.79091  1.0000
  C   C1296     1.0  0.26505  0.85579  0.80274  1.0000
  S   S375      1.0  0.27650  0.63354  0.90663  1.0000
  Fe  Fe190     1.0  0.31678  0.74790  0.65385  1.0000
  C   C1297     1.0  0.28055  0.57514  0.92107  1.0000
  H   H2209     1.0  0.27140  0.84045  0.80630  1.0000
  H   H2210     1.0  0.44085  0.76033  0.79292  1.0000
  H   H2211     1.0  0.26271  0.60001  0.93252  1.0000
  C   C1298     1.0  0.28209  0.94597  0.79461  1.0000
  C   C1299     1.0  0.46318  0.70919  0.79321  1.0000
  S   S376      1.0  0.38516  0.80014  0.68390  1.0000
  C   C1300     1.0  0.27446  0.59511  0.92116  1.0000
  C   C1301     1.0  0.36914  0.76720  0.69591  1.0000
  H   H2212     1.0  0.29737  0.83426  0.71754  1.0000
  H   H2213     1.0  0.28866  0.93491  0.80606  1.0000
  N   N93       1.0  0.35291  0.77420  0.85830  1.0000
  C   C1302     1.0  0.37254  0.77986  0.85034  1.0000
  C   C1303     1.0  0.35142  0.76043  0.84648  1.0000
  C   C1304     1.0  0.35221  0.76404  0.87940  1.0000
  C   C1305     1.0  0.33750  0.79256  0.85657  1.0000
  C   C1306     1.0  0.37801  0.79256  0.86155  1.0000
  C   C1307     1.0  0.35182  0.76893  0.82460  1.0000
  C   C1308     1.0  0.33804  0.74991  0.88837  1.0000
  C   C1309     1.0  0.31611  0.79033  0.86285  1.0000
  H   H2214     1.0  0.38435  0.76660  0.84975  1.0000
  H   H2215     1.0  0.37363  0.78826  0.83512  1.0000
  H   H2216     1.0  0.33789  0.75459  0.85215  1.0000
  H   H2217     1.0  0.36344  0.74735  0.84762  1.0000
  H   H2218     1.0  0.36678  0.75510  0.88147  1.0000
  H   H2219     1.0  0.34864  0.77488  0.88890  1.0000
  H   H2220     1.0  0.33881  0.80230  0.86558  1.0000
  H   H2221     1.0  0.33964  0.80156  0.84158  1.0000
  H   H2222     1.0  0.36853  0.80728  0.86044  1.0000
  H   H2223     1.0  0.37789  0.78558  0.87707  1.0000
  H   H2224     1.0  0.39304  0.79482  0.85477  1.0000
  H   H2225     1.0  0.33986  0.78165  0.82212  1.0000
  H   H2226     1.0  0.36601  0.77279  0.81669  1.0000
  H   H2227     1.0  0.34983  0.75763  0.81779  1.0000
  H   H2228     1.0  0.34298  0.73653  0.88217  1.0000
  H   H2229     1.0  0.32291  0.75666  0.88699  1.0000
  H   H2230     1.0  0.33787  0.74512  0.90422  1.0000
  H   H2231     1.0  0.31081  0.78975  0.87878  1.0000
  H   H2232     1.0  0.31343  0.77765  0.85887  1.0000
  H   H2233     1.0  0.30708  0.80319  0.85497  1.0000
  N   N94       1.0  0.39956  0.62764  0.78798  1.0000
  C   C1310     1.0  0.41132  0.60921  0.79800  1.0000
  C   C1311     1.0  0.38202  0.62238  0.78460  1.0000
  C   C1312     1.0  0.39268  0.64169  0.80172  1.0000
  C   C1313     1.0  0.41243  0.63601  0.76933  1.0000
  C   C1314     1.0  0.42816  0.61178  0.80587  1.0000
  C   C1315     1.0  0.38645  0.60531  0.77397  1.0000
  C   C1316     1.0  0.38046  0.66167  0.79440  1.0000
  C   C1317     1.0  0.40240  0.64810  0.75240  1.0000
  H   H2234     1.0  0.40185  0.60127  0.81043  1.0000
  H   H2235     1.0  0.41797  0.59886  0.78796  1.0000
  H   H2236     1.0  0.37316  0.63498  0.77633  1.0000
  H   H2237     1.0  0.37198  0.61823  0.79877  1.0000
  H   H2238     1.0  0.38400  0.63505  0.81569  1.0000
  H   H2239     1.0  0.40510  0.64503  0.80565  1.0000
  H   H2240     1.0  0.42094  0.64535  0.77231  1.0000
  H   H2241     1.0  0.42366  0.62433  0.76314  1.0000
  H   H2242     1.0  0.43711  0.62165  0.79514  1.0000
  H   H2243     1.0  0.42255  0.61721  0.81968  1.0000
  H   H2244     1.0  0.43782  0.59738  0.80948  1.0000
  H   H2245     1.0  0.38957  0.59113  0.78419  1.0000
  H   H2246     1.0  0.37341  0.60528  0.76862  1.0000
  H   H2247     1.0  0.39883  0.60629  0.76134  1.0000
  H   H2248     1.0  0.37512  0.66968  0.80657  1.0000
  H   H2249     1.0  0.36749  0.66061  0.78966  1.0000
  H   H2250     1.0  0.38951  0.67074  0.78273  1.0000
  H   H2251     1.0  0.39703  0.63878  0.74579  1.0000
  H   H2252     1.0  0.41325  0.65509  0.74072  1.0000
  H   H2253     1.0  0.39026  0.65992  0.75665  1.0000
  H   H2254     1.0  0.27530  0.70515  0.93246  1.0000
  S   S377      1.0  0.24248  0.50024  0.75859  1.0000
  H   H2255     1.0  0.31202  0.55917  0.77255  1.0000
  C   C1318     1.0  0.30013  0.87061  0.73368  1.0000
  H   H2256     1.0  0.27236  0.57845  0.87680  1.0000
  H   H2257     1.0  0.24279  0.73762  0.67020  1.0000
  C   C1319     1.0  0.47968  0.69086  0.79270  1.0000
  H   H2258     1.0  0.33086  0.54663  0.75547  1.0000
  H   H2259     1.0  0.28375  0.51153  0.79558  1.0000
  C   C1320     1.0  0.25844  0.88833  0.80917  1.0000
  H   H2260     1.0  0.32533  0.88557  0.74753  1.0000
  H   H2261     1.0  0.46154  0.71387  0.80715  1.0000
  S   S378      1.0  0.33643  0.53559  0.82121  1.0000
  C   C1321     1.0  0.44502  0.73846  0.77504  1.0000
  N   N95       1.0  0.25955  0.96884  0.81712  1.0000
  H   H2262     1.0  0.30085  0.77114  0.72281  1.0000
  H   H2263     1.0  0.31384  0.57451  0.94529  1.0000
  C   C1322     1.0  0.30645  0.88564  0.77552  1.0000
  C   C1323     1.0  0.25770  0.54494  0.88839  1.0000
  S   S379      1.0  0.46613  0.77095  0.72508  1.0000
  C   C1324     1.0  0.34840  0.86062  0.72799  1.0000
  C   C1325     1.0  0.29473  0.81209  0.68638  1.0000
  H   H2264     1.0  0.25913  0.71417  0.87065  1.0000
  H   H2265     1.0  0.33654  0.83479  0.74100  1.0000
  C   C1326     1.0  0.33674  0.58790  0.92508  1.0000
  H   H2266     1.0  0.26889  0.94016  0.83391  1.0000
  H   H2267     1.0  0.27153  0.53584  0.74462  1.0000
  H   H2268     1.0  0.28111  0.77935  0.68772  1.0000
  H   H2269     1.0  0.24756  0.59655  0.83346  1.0000
  S   S380      1.0  0.34802  0.53014  0.86382  1.0000
  C   C1327     1.0  0.37297  0.93649  0.85208  1.0000
  H   H2270     1.0  0.40983  0.98263  0.86517  1.0000
  H   H2271     1.0  0.27765  0.83175  0.73755  1.0000
  H   H2272     1.0  0.35923  0.93405  0.86256  1.0000
  H   H2273     1.0  0.31272  0.77191  0.69826  1.0000
  H   H2274     1.0  0.32213  0.81747  0.70036  1.0000
  H   H2275     1.0  0.29464  0.82780  0.68485  1.0000
  C   C1328     1.0  0.24469  0.55938  0.87502  1.0000
  C   C1329     1.0  0.26689  0.86857  0.81351  1.0000
  H   H2276     1.0  0.29351  0.97027  0.89217  1.0000
  H   H2277     1.0  0.30674  0.61247  0.88137  1.0000
  H   H2278     1.0  0.34462  0.58357  0.88862  1.0000
  Fe  Fe191     1.0  0.33856  0.51199  0.84812  1.0000
  H   H2279     1.0  0.36765  0.55850  0.93268  1.0000
  H   H2280     1.0  0.25934  0.53084  0.77005  1.0000
  C   C1330     1.0  0.25990  0.83563  0.65875  1.0000
  H   H2281     1.0  0.26099  0.67543  0.90119  1.0000
  H   H2282     1.0  0.39087  0.95858  0.87047  1.0000
  C   C1331     1.0  0.29971  0.77913  0.70772  1.0000
  C   C1332     1.0  0.47721  0.79967  0.73637  1.0000
  H   H2283     1.0  0.27317  0.83949  0.71303  1.0000
  H   H2284     1.0  0.29031  0.85965  0.76431  1.0000
  C   C1333     1.0  0.48251  0.78118  0.73176  1.0000
  C   C1334     1.0  0.30396  0.51030  0.73754  1.0000
  C   C1335     1.0  0.36248  0.60436  0.90435  1.0000
  H   H2285     1.0  0.34401  0.55154  0.89650  1.0000
  Fe  Fe192     1.0  0.27516  0.76674  0.64932  1.0000
  H   H2286     1.0  0.33639  0.98392  0.89341  1.0000
  H   H2287     1.0  0.48700  0.82218  0.74368  1.0000
  H   H2288     1.0  0.48276  0.71955  0.85068  1.0000
  H   H2289     1.0  0.24231  0.96627  0.79764  1.0000
  C   C1336     1.0  0.47346  0.71987  0.75685  1.0000
  H   H2290     1.0  0.32377  0.97833  0.82182  1.0000
  C   C1337     1.0  0.24755  0.84168  0.67539  1.0000
  C   C1338     1.0  0.26222  0.58609  0.86681  1.0000
  H   H2291     1.0  0.47566  0.73273  0.74491  1.0000
  S   S381      1.0  0.28855  0.75435  0.97808  1.0000
  H   H2292     1.0  0.34105  0.97013  0.86569  1.0000
  S   S382      1.0  0.24665  0.78341  0.66288  1.0000
  S   S383      1.0  0.25336  0.84658  0.77389  1.0000
  C   C1339     1.0  0.25127  0.54407  0.81051  1.0000
  H   H2293     1.0  0.24910  0.94624  0.67785  1.0000
  H   H2294     1.0  0.33672  0.79938  0.94847  1.0000
  H   H2295     1.0  0.48365  0.69397  0.85640  1.0000
  H   H2296     1.0  0.26719  0.66161  0.65813  1.0000
  H   H2297     1.0  0.26966  0.84471  0.64913  1.0000
  C   C1340     1.0  0.24228  0.96305  0.81355  1.0000
  H   H2298     1.0  0.31571  0.48916  0.83694  1.0000
  H   H2299     1.0  0.25231  0.97046  0.67381  1.0000
  H   H2300     1.0  0.31556  0.48831  0.79615  1.0000
  H   H2301     1.0  0.26114  0.96509  0.70263  1.0000
  H   H2302     1.0  0.24220  0.91065  0.79031  1.0000
  H   H2303     1.0  0.24860  0.97246  0.85732  1.0000
  H   H2304     1.0  0.37127  0.73631  0.97299  1.0000
  N   N96       1.0  0.24258  0.58064  0.87495  1.0000
  C   C1341     1.0  0.24127  0.96171  0.67510  1.0000
  H   H2305     1.0  0.28948  0.96954  0.80186  1.0000
  C   C1342     1.0  0.60915  0.16538  0.27738  1.0000
  C   C1343     1.0  0.70227  0.43175  0.24777  1.0000
  S   S384      1.0  0.71778  0.00010  0.28216  1.0000
  C   C1344     1.0  0.64831  0.08135  0.27912  1.0000
  H   H2306     1.0  0.50748  0.26596  0.24294  1.0000
  H   H2307     1.0  0.64934  0.37148  0.16149  1.0000
  H   H2308     1.0  0.68772  0.34190  0.11719  1.0000
  Fe  Fe193     1.0  0.70055  0.11788  0.98313  1.0000
  C   C1345     1.0  0.70340  0.46468  0.24964  1.0000
  S   S385      1.0  0.70704  0.10254  0.01289  1.0000
  H   H2309     1.0  0.71089  0.99290  0.20782  1.0000
  H   H2310     1.0  0.71696  0.21398  0.06707  1.0000
  C   C1346     1.0  0.72918  0.25761  0.15674  1.0000
  Fe  Fe194     1.0  0.69881  0.01887  0.23413  1.0000
  C   C1347     1.0  0.72144  0.21829  0.07867  1.0000
  S   S386      1.0  0.68687  0.03173  0.20689  1.0000
  Fe  Fe195     1.0  0.68803  0.01622  0.27762  1.0000
  H   H2311     1.0  0.71061  0.35405  0.14697  1.0000
  H   H2312     1.0  0.68083  0.99143  0.19788  1.0000
  S   S387      1.0  0.49393  0.22314  0.20721  1.0000
  S   S388      1.0  0.69884  0.03906  0.25284  1.0000
  H   H2313     1.0  0.71876  0.17617  0.03932  1.0000
  Fe  Fe196     1.0  0.73975  0.15261  0.11570  1.0000
  S   S389      1.0  0.69607  0.12586  0.13190  1.0000
  H   H2314     1.0  0.72190  0.24200  0.04425  1.0000
  C   C1348     1.0  0.73172  0.17567  0.04501  1.0000
  S   S390      1.0  0.70912  0.16847  0.11540  1.0000
  Fe  Fe197     1.0  0.70154  0.14890  0.14443  1.0000
  S   S391      1.0  0.68418  0.15859  0.17219  1.0000
  Fe  Fe198     1.0  0.70664  0.14415  0.10262  1.0000
  S   S392      1.0  0.69237  0.15392  0.07645  1.0000
  C   C1349     1.0  0.51033  0.04481  0.25577  1.0000
  H   H2315     1.0  0.50174  0.05077  0.29124  1.0000
  Fe  Fe199     1.0  0.61938  0.24366  0.23222  1.0000
  S   S393      1.0  0.59707  0.27016  0.23830  1.0000
  C   C1350     1.0  0.50903  0.23435  0.21463  1.0000
  Fe  Fe200     1.0  0.61750  0.25242  0.18989  1.0000
  S   S394      1.0  0.59494  0.27990  0.19210  1.0000
  S   S395      1.0  0.63110  0.24275  0.16148  1.0000
  Fe  Fe201     1.0  0.61306  0.28554  0.21027  1.0000
  S   S396      1.0  0.61957  0.31520  0.20727  1.0000
  Fe  Fe202     1.0  0.58079  0.26207  0.21988  1.0000
  S   S397      1.0  0.54815  0.26585  0.23105  1.0000
  S   S398      1.0  0.63674  0.25961  0.20559  1.0000
  S   S399      1.0  0.60200  0.23398  0.21623  1.0000
  H   H2316     1.0  0.64426  0.28029  0.31228  1.0000
  H   H2317     1.0  0.50162  0.15494  0.28332  1.0000
  C   C1351     1.0  0.72092  0.08306  0.23954  1.0000
  Fe  Fe203     1.0  0.70402  0.38564  0.24011  1.0000
  S   S400      1.0  0.70675  0.35760  0.26247  1.0000
  S   S401      1.0  0.68841  0.41494  0.24761  1.0000
  S   S402      1.0  0.73255  0.13472  0.14558  1.0000
  C   C1352     1.0  0.70766  0.21346  0.15908  1.0000
  Fe  Fe204     1.0  0.70028  0.34434  0.24046  1.0000
  S   S403      1.0  0.68450  0.31914  0.24940  1.0000
  H   H2318     1.0  0.60012  0.14999  0.24159  1.0000
  S   S404      1.0  0.69464  0.37290  0.21941  1.0000
  H   H2319     1.0  0.71769  0.19425  0.99676  1.0000
  H   H2320     1.0  0.51764  0.28896  0.19711  1.0000
  H   H2321     1.0  0.67785  0.45594  0.24737  1.0000
  H   H2322     1.0  0.68784  0.30193  0.20027  1.0000
  Fe  Fe205     1.0  0.73767  0.35186  0.24614  1.0000
  H   H2323     1.0  0.51438  0.27081  0.18581  1.0000
  H   H2324     1.0  0.73925  0.33051  0.18776  1.0000
  C   C1353     1.0  0.50161  0.30191  0.17331  1.0000
  H   H2325     1.0  0.69934  0.10380  0.25617  1.0000
  H   H2326     1.0  0.68863  0.36721  0.13953  1.0000
  H   H2327     1.0  0.50710  0.19656  0.25112  1.0000
  H   H2328     1.0  0.63672  0.35167  0.17343  1.0000
  C   C1354     1.0  0.53362  0.25303  0.22489  1.0000
  C   C1355     1.0  0.54141  0.24024  0.21200  1.0000
  C   C1356     1.0  0.52914  0.23087  0.20695  1.0000
  C   C1357     1.0  0.68992  0.32829  0.17825  1.0000
  H   H2329     1.0  0.55684  0.23775  0.20575  1.0000
  H   H2330     1.0  0.53521  0.22118  0.19678  1.0000
  C   C1358     1.0  0.63778  0.31616  0.21883  1.0000
  C   C1359     1.0  0.64099  0.33429  0.21936  1.0000
  C   C1360     1.0  0.65580  0.33544  0.22805  1.0000
  C   C1361     1.0  0.66712  0.31840  0.23673  1.0000
  C   C1362     1.0  0.66371  0.30025  0.23646  1.0000
  C   C1363     1.0  0.64919  0.29912  0.22739  1.0000
  H   H2331     1.0  0.63182  0.34750  0.21324  1.0000
  H   H2332     1.0  0.65807  0.34949  0.22857  1.0000
  H   H2333     1.0  0.67246  0.28703  0.24316  1.0000
  H   H2334     1.0  0.64684  0.28508  0.22703  1.0000
  C   C1364     1.0  0.66963  0.18204  0.16884  1.0000
  C   C1365     1.0  0.66540  0.19163  0.15062  1.0000
  C   C1366     1.0  0.65355  0.21032  0.14842  1.0000
  C   C1367     1.0  0.64575  0.21934  0.16447  1.0000
  C   C1368     1.0  0.65020  0.20984  0.18264  1.0000
  C   C1369     1.0  0.66224  0.19128  0.18476  1.0000
  H   H2335     1.0  0.67094  0.18454  0.13829  1.0000
  H   H2336     1.0  0.65016  0.21766  0.13433  1.0000
  H   H2337     1.0  0.64452  0.21690  0.19499  1.0000
  H   H2338     1.0  0.66600  0.18409  0.19870  1.0000
  H   H2339     1.0  0.61266  0.24985  0.29872  1.0000
  H   H2340     1.0  0.57464  0.21823  0.30040  1.0000
  H   H2341     1.0  0.62521  0.01135  0.31034  1.0000
  H   H2342     1.0  0.50561  0.02509  0.30006  1.0000
  N   N97       1.0  0.68680  0.33872  0.15809  1.0000
  C   C1370     1.0  0.70187  0.04589  0.18893  1.0000
  C   C1371     1.0  0.72169  0.04279  0.18886  1.0000
  H   H2343     1.0  0.68767  0.27702  0.15126  1.0000
  C   C1372     1.0  0.72580  0.06832  0.15983  1.0000
  C   C1373     1.0  0.70592  0.07160  0.16000  1.0000
  C   C1374     1.0  0.69403  0.06020  0.17438  1.0000
  H   H2344     1.0  0.52260  0.04161  0.26339  1.0000
  H   H2345     1.0  0.69870  0.22110  0.13061  1.0000
  H   H2346     1.0  0.69980  0.08265  0.14882  1.0000
  H   H2347     1.0  0.67871  0.06260  0.17432  1.0000
  H   H2348     1.0  0.66479  0.27079  0.16485  1.0000
  C   C1375     1.0  0.69588  0.13897  0.05953  1.0000
  C   C1376     1.0  0.68876  0.14696  0.04232  1.0000
  C   C1377     1.0  0.69191  0.13584  0.02807  1.0000
  C   C1378     1.0  0.70212  0.11655  0.03096  1.0000
  C   C1379     1.0  0.70904  0.10842  0.04832  1.0000
  C   C1380     1.0  0.70605  0.11963  0.06253  1.0000
  H   H2349     1.0  0.68086  0.16189  0.03994  1.0000
  H   H2350     1.0  0.68637  0.14222  0.01491  1.0000
  H   H2351     1.0  0.70105  0.12234  0.22421  1.0000
  H   H2352     1.0  0.71155  0.11333  0.07578  1.0000
  C   C1381     1.0  0.65543  0.06118  0.28136  1.0000
  H   H2353     1.0  0.64626  0.08999  0.26497  1.0000
  H   H2354     1.0  0.60338  0.16816  0.20964  1.0000
  C   C1382     1.0  0.69381  0.10034  0.19666  1.0000
  N   N98       1.0  0.71813  0.09412  0.21941  1.0000
  H   H2355     1.0  0.59914  0.17551  0.28644  1.0000
  H   H2356     1.0  0.59462  0.23105  0.26852  1.0000
  C   C1383     1.0  0.60636  0.18130  0.21261  1.0000
  C   C1384     1.0  0.61937  0.19326  0.30796  1.0000
  H   H2357     1.0  0.61555  0.13647  0.25735  1.0000
  H   H2358     1.0  0.66038  0.32881  0.15954  1.0000
  H   H2359     1.0  0.49998  0.31489  0.17964  1.0000
  H   H2360     1.0  0.73014  0.44579  0.29093  1.0000
  H   H2361     1.0  0.72329  0.04133  0.28603  1.0000
  H   H2362     1.0  0.69886  0.36132  0.17991  1.0000
  H   H2363     1.0  0.69120  0.31304  0.14590  1.0000
  H   H2364     1.0  0.63407  0.14033  0.21399  1.0000
  H   H2365     1.0  0.70123  0.07413  0.21760  1.0000
  C   C1385     1.0  0.61064  0.17542  0.25572  1.0000
  H   H2366     1.0  0.60870  0.19166  0.19837  1.0000
  H   H2367     1.0  0.68371  0.26660  0.17725  1.0000
  H   H2368     1.0  0.64149  0.27049  0.26305  1.0000
  C   C1386     1.0  0.64406  0.15681  0.24524  1.0000
  C   C1387     1.0  0.65384  0.17277  0.24684  1.0000
  H   H2369     1.0  0.61508  0.18954  0.25380  1.0000
  H   H2370     1.0  0.63705  0.17016  0.21038  1.0000
  H   H2371     1.0  0.62800  0.19081  0.22108  1.0000
  H   H2372     1.0  0.64428  0.14548  0.25889  1.0000
  H   H2373     1.0  0.65395  0.14946  0.23355  1.0000
  H   H2374     1.0  0.62330  0.16164  0.28198  1.0000
  H   H2375     1.0  0.66902  0.16617  0.24859  1.0000
  H   H2376     1.0  0.64641  0.17911  0.25984  1.0000
  H   H2377     1.0  0.65455  0.18458  0.23368  1.0000
  C   C1388     1.0  0.73734  0.03024  0.99255  1.0000
  C   C1389     1.0  0.71088  0.21210  0.13753  1.0000
  H   H2378     1.0  0.72792  0.03176  0.19991  1.0000
  S   S405      1.0  0.68533  0.99722  0.25874  1.0000
  H   H2379     1.0  0.51085  0.26720  0.15693  1.0000
  H   H2380     1.0  0.68188  0.09409  0.19520  1.0000
  C   C1390     1.0  0.72952  0.43477  0.30475  1.0000
  H   H2381     1.0  0.51469  0.18553  0.23036  1.0000
  H   H2382     1.0  0.57874  0.27703  0.28165  1.0000
  H   H2383     1.0  0.67760  0.98821  0.22354  1.0000
  C   C1391     1.0  0.69949  0.42875  0.30078  1.0000
  H   H2384     1.0  0.68155  0.05651  0.98221  1.0000
  H   H2385     1.0  0.73582  0.24283  0.02004  1.0000
  H   H2386     1.0  0.72362  0.06711  0.24031  1.0000
  H   H2387     1.0  0.53140  0.28595  0.17379  1.0000
  C   C1392     1.0  0.49588  0.03116  0.26614  1.0000
  H   H2388     1.0  0.52005  0.17163  0.25318  1.0000
  H   H2389     1.0  0.70041  0.07044  0.99505  1.0000
  H   H2390     1.0  0.50466  0.01616  0.26961  1.0000
  C   C1393     1.0  0.72277  0.12821  0.19820  1.0000
  C   C1394     1.0  0.71421  0.99783  0.16629  1.0000
  H   H2391     1.0  0.67552  0.23041  0.19699  1.0000
  H   H2392     1.0  0.73387  0.38967  0.29840  1.0000
  H   H2393     1.0  0.63458  0.30450  0.30047  1.0000
  S   S406      1.0  0.66510  0.02447  0.30311  1.0000
  H   H2394     1.0  0.72966  0.01894  0.00278  1.0000
  H   H2395     1.0  0.73459  0.09374  0.18967  1.0000
  H   H2396     1.0  0.71971  0.20286  0.16513  1.0000
  H   H2397     1.0  0.72494  0.21574  0.12885  1.0000
  H   H2398     1.0  0.61471  0.06453  0.30121  1.0000
  C   C1395     1.0  0.51357  0.25616  0.23287  1.0000
  H   H2399     1.0  0.66402  0.34944  0.14152  1.0000
  H   H2400     1.0  0.69125  0.22190  0.21399  1.0000
  H   H2401     1.0  0.70916  0.08129  0.27062  1.0000
  H   H2402     1.0  0.72606  0.17954  0.05959  1.0000
  H   H2403     1.0  0.69816  0.38241  0.16110  1.0000
  N   N99       1.0  0.70600  0.23340  0.16298  1.0000
  H   H2404     1.0  0.68762  0.24829  0.14219  1.0000
  C   C1396     1.0  0.73523  0.08593  0.20488  1.0000
  C   C1397     1.0  0.51668  0.28581  0.18319  1.0000
  H   H2405     1.0  0.70275  0.00406  0.15752  1.0000
  H   H2406     1.0  0.70721  0.02584  0.98255  1.0000
  H   H2407     1.0  0.72082  0.24772  0.13500  1.0000
  H   H2408     1.0  0.66529  0.25068  0.28508  1.0000
  H   H2409     1.0  0.71692  0.09350  0.05069  1.0000
  H   H2410     1.0  0.57420  0.04184  0.31428  1.0000
  C   C1398     1.0  0.59196  0.08863  0.30591  1.0000
  H   H2411     1.0  0.60078  0.01955  0.30688  1.0000
  H   H2412     1.0  0.59323  0.06338  0.29460  1.0000
  C   C1399     1.0  0.59919  0.19963  0.31173  1.0000
  H   H2413     1.0  0.67477  0.23817  0.16467  1.0000
  H   H2414     1.0  0.51668  0.04233  0.24071  1.0000
  C   C1400     1.0  0.73570  0.05294  0.30363  1.0000
  H   H2415     1.0  0.61152  0.25832  0.27379  1.0000
  H   H2416     1.0  0.72905  0.41074  0.24904  1.0000
  N   N100      1.0  0.72296  0.04719  0.98414  1.0000
  H   H2417     1.0  0.67256  0.42905  0.29269  1.0000
  C   C1401     1.0  0.49405  0.03839  0.29775  1.0000
  C   C1402     1.0  0.61486  0.28347  0.30674  1.0000
  H   H2418     1.0  0.71489  0.21009  0.09302  1.0000
  H   H2419     1.0  0.70641  0.24450  0.18819  1.0000
  H   H2420     1.0  0.70572  0.43504  0.28553  1.0000
  C   C1403     1.0  0.70663  0.23066  0.18419  1.0000
  C   C1404     1.0  0.72194  0.42579  0.24885  1.0000
  C   C1405     1.0  0.61036  0.29670  0.27249  1.0000
  Fe  Fe206     1.0  0.72838  0.02142  0.25564  1.0000
  C   C1406     1.0  0.72293  0.45858  0.25115  1.0000
  H   H2421     1.0  0.61696  0.12522  0.22499  1.0000
  H   H2422     1.0  0.64635  0.19612  0.28751  1.0000
  C   C1407     1.0  0.70151  0.33491  0.12218  1.0000
  C   C1408     1.0  0.61797  0.31535  0.27001  1.0000
  H   H2423     1.0  0.71296  0.31889  0.14746  1.0000
  C   C1409     1.0  0.60782  0.26309  0.28797  1.0000
  H   H2424     1.0  0.69610  0.47958  0.25017  1.0000
  H   H2425     1.0  0.70565  0.09823  0.18382  1.0000
  C   C1410     1.0  0.65109  0.35607  0.16943  1.0000
  H   H2426     1.0  0.68783  0.11608  0.19625  1.0000
  C   C1411     1.0  0.58541  0.26800  0.29405  1.0000
  C   C1412     1.0  0.64922  0.25229  0.28939  1.0000
  C   C1413     1.0  0.69829  0.32551  0.14415  1.0000
  H   H2427     1.0  0.72071  0.22113  0.18712  1.0000
  C   C1414     1.0  0.63070  0.20094  0.29026  1.0000
  C   C1415     1.0  0.63954  0.27210  0.27837  1.0000
  H   H2428     1.0  0.65862  0.05431  0.26898  1.0000
  H   H2429     1.0  0.61310  0.29325  0.25775  1.0000
  C   C1416     1.0  0.69456  0.35735  0.15211  1.0000
  C   C1417     1.0  0.66575  0.34258  0.15670  1.0000
  C   C1418     1.0  0.68528  0.30771  0.18522  1.0000
  C   C1419     1.0  0.64320  0.09017  0.29531  1.0000
  C   C1420     1.0  0.71635  0.11558  0.21842  1.0000
  S   S407      1.0  0.49281  0.10860  0.30964  1.0000
  N   N101      1.0  0.62381  0.16368  0.24120  1.0000
  H   H2430     1.0  0.61181  0.32212  0.28297  1.0000
  H   H2431     1.0  0.70579  0.03613  0.02867  1.0000
  H   H2432     1.0  0.68531  0.48184  0.30679  1.0000
  H   H2433     1.0  0.69149  0.08151  0.25752  1.0000
  C   C1421     1.0  0.62481  0.17654  0.22114  1.0000
  C   C1422     1.0  0.62714  0.13254  0.22827  1.0000
  C   C1423     1.0  0.59030  0.21349  0.29761  1.0000
  H   H2434     1.0  0.71066  0.00670  0.17755  1.0000
  H   H2435     1.0  0.67338  0.45173  0.29740  1.0000
  C   C1424     1.0  0.69781  0.04371  0.01678  1.0000
  H   H2436     1.0  0.71152  0.19676  0.13702  1.0000
  H   H2437     1.0  0.59342  0.18849  0.22205  1.0000
  H   H2438     1.0  0.63860  0.12127  0.23468  1.0000
  H   H2439     1.0  0.67594  0.37509  0.17362  1.0000
  C   C1425     1.0  0.68086  0.26621  0.16310  1.0000
  H   H2440     1.0  0.71693  0.26945  0.16060  1.0000
  H   H2441     1.0  0.64499  0.25075  0.30543  1.0000
  H   H2442     1.0  0.70072  0.46777  0.28970  1.0000
  C   C1426     1.0  0.49526  0.26631  0.16062  1.0000
  C   C1427     1.0  0.61572  0.14602  0.24264  1.0000
  H   H2443     1.0  0.59433  0.30115  0.27687  1.0000
  H   H2444     1.0  0.68141  0.33668  0.18956  1.0000
  C   C1428     1.0  0.72323  0.24168  0.15014  1.0000
  C   C1429     1.0  0.50134  0.24682  0.22782  1.0000
  H   H2445     1.0  0.50844  0.30598  0.15762  1.0000
  H   H2446     1.0  0.60277  0.15224  0.28096  1.0000
  H   H2447     1.0  0.73665  0.25117  0.16920  1.0000
  C   C1430     1.0  0.62182  0.21454  0.27601  1.0000
  C   C1431     1.0  0.69987  0.09009  0.21621  1.0000
  H   H2448     1.0  0.69515  0.29738  0.17635  1.0000
  H   H2449     1.0  0.64839  0.28289  0.27741  1.0000
  H   H2450     1.0  0.71123  0.34554  0.11827  1.0000
  S   S408      1.0  0.73164  0.33634  0.22603  1.0000
  H   H2451     1.0  0.73720  0.25985  0.03331  1.0000
  C   C1432     1.0  0.73368  0.05374  0.17414  1.0000
  H   H2452     1.0  0.72507  0.11788  0.22798  1.0000
  H   H2453     1.0  0.65493  0.35505  0.18344  1.0000
  S   S409      1.0  0.63634  0.22355  0.25386  1.0000
  C   C1433     1.0  0.69139  0.36946  0.16780  1.0000
  H   H2454     1.0  0.59496  0.09679  0.29060  1.0000
  S   S410      1.0  0.72948  0.00296  0.23477  1.0000
  Fe  Fe207     1.0  0.72786  0.11316  0.13083  1.0000
  C   C1434     1.0  0.60159  0.22071  0.27959  1.0000
  N   N102      1.0  0.61832  0.27908  0.28667  1.0000
  H   H2455     1.0  0.69118  0.20642  0.19846  1.0000
  C   C1435     1.0  0.69308  0.45126  0.24811  1.0000
  H   H2456     1.0  0.68704  0.09458  0.22748  1.0000
  H   H2457     1.0  0.59552  0.17950  0.25322  1.0000
  H   H2458     1.0  0.70537  0.32676  0.17905  1.0000
  H   H2459     1.0  0.61301  0.32617  0.25745  1.0000
  H   H2460     1.0  0.64553  0.24008  0.28528  1.0000
  H   H2461     1.0  0.73524  0.13815  0.99412  1.0000
  H   H2462     1.0  0.52825  0.12289  0.30079  1.0000
  H   H2463     1.0  0.66988  0.30782  0.18565  1.0000
  H   H2464     1.0  0.49909  0.17983  0.28379  1.0000
  C   C1436     1.0  0.73216  0.43915  0.25064  1.0000
  C   C1437     1.0  0.65754  0.04985  0.29977  1.0000
  C   C1438     1.0  0.68712  0.24582  0.15809  1.0000
  C   C1439     1.0  0.71013  0.05664  0.00053  1.0000
  C   C1440     1.0  0.70410  0.08793  0.25671  1.0000
  H   H2465     1.0  0.69438  0.20758  0.16664  1.0000
  H   H2466     1.0  0.73875  0.12495  0.19290  1.0000
  C   C1441     1.0  0.50884  0.18279  0.24635  1.0000
  C   C1442     1.0  0.73589  0.04612  0.28707  1.0000
  H   H2467     1.0  0.73654  0.22995  0.14886  1.0000
  H   H2468     1.0  0.69340  0.03272  0.01156  1.0000
  H   H2469     1.0  0.63401  0.31298  0.26681  1.0000
  H   H2470     1.0  0.71566  0.12675  0.18705  1.0000
  H   H2471     1.0  0.68405  0.05303  0.02291  1.0000
  C   C1443     1.0  0.59864  0.06656  0.30630  1.0000
  H   H2472     1.0  0.71489  0.23370  0.07910  1.0000
  H   H2473     1.0  0.49439  0.16079  0.24647  1.0000
  H   H2474     1.0  0.71903  0.06154  0.00807  1.0000
  C   C1444     1.0  0.67728  0.43572  0.30250  1.0000
  Fe  Fe208     1.0  0.72659  0.36573  0.20666  1.0000
  S   S411      1.0  0.63241  0.11499  0.29278  1.0000
  H   H2475     1.0  0.70906  0.32333  0.11373  1.0000
  C   C1445     1.0  0.69009  0.22182  0.19901  1.0000
  H   H2476     1.0  0.73575  0.37190  0.27295  1.0000
  H   H2477     1.0  0.73529  0.14474  0.05663  1.0000
  H   H2478     1.0  0.50329  0.06041  0.25475  1.0000
  S   S412      1.0  0.73810  0.12974  0.10061  1.0000
  C   C1446     1.0  0.61352  0.02451  0.30824  1.0000
  H   H2479     1.0  0.71088  0.47820  0.30418  1.0000
  H   H2480     1.0  0.70309  0.41276  0.30130  1.0000
  H   H2481     1.0  0.57634  0.09311  0.31196  1.0000
  H   H2482     1.0  0.73982  0.26441  0.14464  1.0000
  H   H2483     1.0  0.73329  0.25438  0.06754  1.0000
  H   H2484     1.0  0.57972  0.25432  0.29836  1.0000
  S   S413      1.0  0.73549  0.38073  0.22550  1.0000
  H   H2485     1.0  0.61919  0.03396  0.29435  1.0000
  H   H2486     1.0  0.73408  0.08565  0.24291  1.0000
  H   H2487     1.0  0.73045  0.13748  0.02857  1.0000
  H   H2488     1.0  0.73087  0.16131  0.01465  1.0000
  H   H2489     1.0  0.58035  0.27528  0.30669  1.0000
  H   H2490     1.0  0.71868  0.14381  0.19927  1.0000
  H   H2491     1.0  0.60091  0.29407  0.30964  1.0000
  S   S414      1.0  0.73577  0.47403  0.25586  1.0000
  C   C1447     1.0  0.73597  0.24453  0.03481  1.0000
  C   C1448     1.0  0.64578  0.07891  0.31358  1.0000
  H   H2492     1.0  0.73716  0.42080  0.30010  1.0000
  C   C1449     1.0  0.63076  0.29148  0.31120  1.0000
  H   H2493     1.0  0.72854  0.00001  0.15691  1.0000
  H   H2494     1.0  0.73495  0.07057  0.20506  1.0000
  H   H2495     1.0  0.73982  0.18693  0.03564  1.0000
  C   C1450     1.0  0.69906  0.47095  0.30427  1.0000
  C   C1451     1.0  0.72719  0.19328  0.98269  1.0000
  S   S415      1.0  0.73911  0.37200  0.17448  1.0000
  H   H2496     1.0  0.49187  0.25607  0.17462  1.0000
  H   H2497     1.0  0.49295  0.25977  0.14929  1.0000
  H   H2498     1.0  0.60038  0.09346  0.31395  1.0000
  C   C1452     1.0  0.74031  0.14689  0.01864  1.0000
  Fe  Fe209     1.0  0.72597  0.14210  0.58788  1.0000
  S   S416      1.0  0.71772  0.17319  0.59130  1.0000
  N   N103      1.0  0.71584  0.09249  0.51935  1.0000
  Fe  Fe210     1.0  0.71024  0.15310  0.45918  1.0000
  S   S417      1.0  0.71579  0.17355  0.43010  1.0000
  S   S418      1.0  0.69368  0.16241  0.48760  1.0000
  H   H2499     1.0  0.57222  0.03463  0.33987  1.0000
  H   H2500     1.0  0.62306  0.03734  0.32696  1.0000
  H   H2501     1.0  0.58286  0.07546  0.34257  1.0000
  C   C1453     1.0  0.68994  0.41159  0.34360  1.0000
  H   H2502     1.0  0.65908  0.19632  0.40725  1.0000
  Fe  Fe211     1.0  0.70880  0.15123  0.41758  1.0000
  S   S419      1.0  0.69292  0.15897  0.39257  1.0000
  N   N104      1.0  0.71785  0.08461  0.37807  1.0000
  S   S420      1.0  0.70007  0.13267  0.44695  1.0000
  Fe  Fe212     1.0  0.61528  0.12237  0.36380  1.0000
  S   S421      1.0  0.62503  0.14225  0.33561  1.0000
  S   S422      1.0  0.63161  0.11203  0.38857  1.0000
  Fe  Fe213     1.0  0.57837  0.11963  0.35174  1.0000
  C   C1454     1.0  0.57433  0.04709  0.32739  1.0000
  S   S423      1.0  0.55252  0.10464  0.36197  1.0000
  H   H2503     1.0  0.62539  0.29580  0.32560  1.0000
  H   H2504     1.0  0.61990  0.18807  0.35370  1.0000
  Fe  Fe214     1.0  0.59367  0.15725  0.33955  1.0000
  C   C1455     1.0  0.73610  0.05233  0.39610  1.0000
  S   S424      1.0  0.60857  0.10141  0.34952  1.0000
  S   S425      1.0  0.58427  0.13875  0.36878  1.0000
  H   H2505     1.0  0.58216  0.20483  0.38905  1.0000
  H   H2506     1.0  0.71947  0.40415  0.32886  1.0000
  C   C1456     1.0  0.71663  0.06029  0.50895  1.0000
  H   H2507     1.0  0.59368  0.20734  0.36352  1.0000
  H   H2508     1.0  0.61302  0.27020  0.31830  1.0000
  H   H2509     1.0  0.69437  0.07393  0.53029  1.0000
  S   S426      1.0  0.58506  0.18989  0.33383  1.0000
  H   H2510     1.0  0.70544  0.09404  0.42502  1.0000
  H   H2511     1.0  0.67699  0.08914  0.37568  1.0000
  H   H2512     1.0  0.64158  0.20562  0.32831  1.0000
  H   H2513     1.0  0.60403  0.15275  0.39748  1.0000
  C   C1457     1.0  0.53538  0.10737  0.34745  1.0000
  C   C1458     1.0  0.51855  0.09958  0.35582  1.0000
  C   C1459     1.0  0.63852  0.20873  0.34315  1.0000
  H   H2514     1.0  0.73115  0.05076  0.50969  1.0000
  H   H2515     1.0  0.70718  0.11840  0.53163  1.0000
  H   H2516     1.0  0.69227  0.40081  0.35719  1.0000
  H   H2517     1.0  0.60802  0.06516  0.34040  1.0000
  H   H2518     1.0  0.72832  0.09243  0.40936  1.0000
  H   H2519     1.0  0.51590  0.09284  0.37115  1.0000
  C   C1460     1.0  0.71271  0.09799  0.40950  1.0000
  H   H2520     1.0  0.61721  0.15787  0.37311  1.0000
  H   H2521     1.0  0.64911  0.20982  0.37664  1.0000
  H   H2522     1.0  0.67865  0.42405  0.34798  1.0000
  C   C1461     1.0  0.73712  0.07159  0.38107  1.0000
  H   H2523     1.0  0.73234  0.18670  0.52520  1.0000
  H   H2524     1.0  0.68474  0.40415  0.33487  1.0000
  C   C1462     1.0  0.67701  0.14460  0.39156  1.0000
  C   C1463     1.0  0.66821  0.13291  0.40833  1.0000
  C   C1464     1.0  0.65455  0.12270  0.40717  1.0000
  C   C1465     1.0  0.64946  0.12428  0.38931  1.0000
  C   C1466     1.0  0.65856  0.13568  0.37248  1.0000
  C   C1467     1.0  0.67229  0.14578  0.37362  1.0000
  H   H2525     1.0  0.67165  0.13199  0.42225  1.0000
  H   H2526     1.0  0.64761  0.11384  0.42024  1.0000
  H   H2527     1.0  0.65503  0.13671  0.35860  1.0000
  H   H2528     1.0  0.67917  0.15469  0.36056  1.0000
  H   H2529     1.0  0.71345  0.11940  0.49792  1.0000
  C   C1468     1.0  0.60868  0.16476  0.38553  1.0000
  H   H2530     1.0  0.49244  0.04582  0.32554  1.0000
  H   H2531     1.0  0.64403  0.17806  0.35616  1.0000
  C   C1469     1.0  0.72501  0.14518  0.53876  1.0000
  H   H2532     1.0  0.69059  0.09899  0.35199  1.0000
  C   C1470     1.0  0.72626  0.15052  0.50396  1.0000
  C   C1471     1.0  0.70620  0.15774  0.50683  1.0000
  C   C1472     1.0  0.69579  0.15988  0.52566  1.0000
  C   C1473     1.0  0.70521  0.15377  0.54161  1.0000
  S   S427      1.0  0.73688  0.08508  0.45328  1.0000
  N   N105      1.0  0.73535  0.25154  0.60444  1.0000
  H   H2533     1.0  0.68029  0.16567  0.52801  1.0000
  H   H2534     1.0  0.69696  0.15480  0.55617  1.0000
  Fe  Fe215     1.0  0.69788  0.16229  0.61929  1.0000
  H   H2535     1.0  0.66875  0.43161  0.31735  1.0000
  C   C1474     1.0  0.71340  0.09456  0.55522  1.0000
  C   C1475     1.0  0.72751  0.23302  0.60967  1.0000
  S   S428      1.0  0.72020  0.15667  0.63749  1.0000
  H   H2536     1.0  0.61706  0.22445  0.37582  1.0000
  H   H2537     1.0  0.70408  0.06060  0.37984  1.0000
  H   H2538     1.0  0.71769  0.06884  0.35634  1.0000
  H   H2539     1.0  0.60072  0.03576  0.36522  1.0000
  H   H2540     1.0  0.73923  0.21985  0.60933  1.0000
  H   H2541     1.0  0.62686  0.22197  0.34349  1.0000
  H   H2542     1.0  0.70991  0.11411  0.40500  1.0000
  C   C1476     1.0  0.53866  0.11604  0.32761  1.0000
  Fe  Fe216     1.0  0.72718  0.12670  0.63110  1.0000
  C   C1477     1.0  0.68686  0.10928  0.50242  1.0000
  C   C1478     1.0  0.65277  0.05876  0.31585  1.0000
  S   S429      1.0  0.70384  0.13179  0.61413  1.0000
  H   H2543     1.0  0.70005  0.23999  0.63082  1.0000
  H   H2544     1.0  0.70470  0.45504  0.33246  1.0000
  H   H2545     1.0  0.71166  0.07932  0.56147  1.0000
  H   H2546     1.0  0.61349  0.17752  0.40724  1.0000
  C   C1479     1.0  0.70782  0.07394  0.36940  1.0000
  H   H2547     1.0  0.72874  0.09568  0.55347  1.0000
  H   H2548     1.0  0.68382  0.11741  0.48797  1.0000
  H   H2549     1.0  0.71674  0.06871  0.49392  1.0000
  H   H2550     1.0  0.74043  0.25819  0.57279  1.0000
  H   H2551     1.0  0.72914  0.04258  0.39177  1.0000
  C   C1480     1.0  0.64549  0.19537  0.38411  1.0000
  H   H2552     1.0  0.68112  0.09574  0.50591  1.0000
  C   C1481     1.0  0.68863  0.08554  0.36309  1.0000
  H   H2553     1.0  0.57474  0.04467  0.36614  1.0000
  H   H2554     1.0  0.64437  0.17850  0.41441  1.0000
  C   C1482     1.0  0.59218  0.21254  0.37701  1.0000
  H   H2555     1.0  0.58516  0.22817  0.37369  1.0000
  H   H2556     1.0  0.59538  0.17461  0.38148  1.0000
  H   H2557     1.0  0.71947  0.23278  0.59854  1.0000
  S   S430      1.0  0.66828  0.17852  0.63164  1.0000
  C   C1483     1.0  0.69834  0.45279  0.32096  1.0000
  C   C1484     1.0  0.50514  0.10034  0.34449  1.0000
  C   C1485     1.0  0.63217  0.19102  0.35824  1.0000
  H   H2558     1.0  0.73203  0.29077  0.58059  1.0000
  H   H2559     1.0  0.71599  0.09898  0.48817  1.0000
  C   C1486     1.0  0.73553  0.14393  0.51986  1.0000
  H   H2560     1.0  0.65461  0.05009  0.33005  1.0000
  N   N106      1.0  0.62722  0.19301  0.37929  1.0000
  H   H2561     1.0  0.64265  0.08573  0.32594  1.0000
  H   H2562     1.0  0.60526  0.02305  0.33901  1.0000
  H   H2563     1.0  0.70743  0.11463  0.36462  1.0000
  H   H2564     1.0  0.60785  0.21124  0.39858  1.0000
  C   C1487     1.0  0.70470  0.08891  0.39692  1.0000
  H   H2565     1.0  0.65826  0.18448  0.37868  1.0000
  H   H2566     1.0  0.69935  0.07577  0.40628  1.0000
  C   C1488     1.0  0.61167  0.21071  0.38282  1.0000
  H   H2567     1.0  0.73463  0.14966  0.48954  1.0000
  C   C1489     1.0  0.62130  0.17474  0.39252  1.0000
  H   H2568     1.0  0.70820  0.26869  0.61749  1.0000
  H   H2569     1.0  0.63439  0.16330  0.39504  1.0000
  H   H2570     1.0  0.73658  0.11471  0.37960  1.0000
  H   H2571     1.0  0.69002  0.10305  0.53991  1.0000
  C   C1490     1.0  0.70591  0.10287  0.53602  1.0000
  H   H2572     1.0  0.68325  0.07636  0.35627  1.0000
  H   H2573     1.0  0.63325  0.20416  0.41271  1.0000
  H   H2574     1.0  0.67879  0.11886  0.51286  1.0000
  C   C1491     1.0  0.52544  0.11646  0.31619  1.0000
  C   C1492     1.0  0.72102  0.10324  0.36358  1.0000
  H   H2575     1.0  0.70936  0.26672  0.59322  1.0000
  H   H2576     1.0  0.72876  0.05490  0.41092  1.0000
  H   H2577     1.0  0.65219  0.21159  0.34498  1.0000
  C   C1493     1.0  0.71033  0.07279  0.52471  1.0000
  C   C1494     1.0  0.59354  0.06150  0.34226  1.0000
  C   C1495     1.0  0.64516  0.19347  0.40593  1.0000
  H   H2578     1.0  0.69114  0.09927  0.39397  1.0000
  C   C1496     1.0  0.70898  0.10509  0.50136  1.0000
  H   H2579     1.0  0.58845  0.05756  0.37370  1.0000
  C   C1497     1.0  0.72311  0.28890  0.59561  1.0000
  H   H2580     1.0  0.68285  0.45259  0.32790  1.0000
  H   H2581     1.0  0.70935  0.29988  0.59514  1.0000
  C   C1498     1.0  0.58909  0.04884  0.36285  1.0000
  Fe  Fe217     1.0  0.73131  0.11739  0.44216  1.0000
  C   C1499     1.0  0.71819  0.26836  0.60303  1.0000
  H   H2582     1.0  0.55422  0.06891  0.34341  1.0000
  H   H2583     1.0  0.55152  0.12215  0.32102  1.0000
  C   C1500     1.0  0.73746  0.19686  0.53104  1.0000
  H   H2584     1.0  0.71022  0.21472  0.63238  1.0000
  H   H2585     1.0  0.54292  0.05677  0.33232  1.0000
  H   H2586     1.0  0.49226  0.09424  0.35113  1.0000
  H   H2587     1.0  0.70474  0.10343  0.56616  1.0000
  S   S431      1.0  0.58516  0.13963  0.32288  1.0000
  H   H2588     1.0  0.62631  0.18255  0.31877  1.0000
  C   C1501     1.0  0.71398  0.22924  0.62988  1.0000
  H   H2589     1.0  0.72470  0.20461  0.54029  1.0000
  H   H2590     1.0  0.72117  0.22880  0.64182  1.0000
  H   H2591     1.0  0.73634  0.12728  0.35510  1.0000
  C   C1502     1.0  0.73742  0.11263  0.36481  1.0000
  Fe  Fe218     1.0  0.74067  0.16441  0.60919  1.0000
  H   H2592     1.0  0.71520  0.42152  0.34372  1.0000
  H   H2593     1.0  0.73048  0.29252  0.60550  1.0000
  Fe  Fe219     1.0  0.61582  0.12278  0.32157  1.0000
  C   C1503     1.0  0.50865  0.10860  0.32458  1.0000
  H   H2594     1.0  0.72462  0.10078  0.34834  1.0000
  C   C1504     1.0  0.70937  0.41761  0.33275  1.0000
  H   H2595     1.0  0.71662  0.06361  0.53732  1.0000
  H   H2596     1.0  0.55555  0.07501  0.31722  1.0000
  H   H2597     1.0  0.73451  0.25666  0.63307  1.0000
  H   H2598     1.0  0.70595  0.05086  0.51142  1.0000
  C   C1505     1.0  0.55595  0.06308  0.33021  1.0000
  S   S432      1.0  0.73968  0.13456  0.41199  1.0000
  H   H2599     1.0  0.73662  0.45393  0.32028  1.0000
  N   N107      1.0  0.59348  0.05271  0.32551  1.0000
  C   C1506     1.0  0.60907  0.03438  0.32589  1.0000
  S   S433      1.0  0.73676  0.13374  0.55838  1.0000
  C   C1507     1.0  0.73753  0.09054  0.51677  1.0000
  H   H2600     1.0  0.49171  0.16125  0.31645  1.0000
  N   N108      1.0  0.70871  0.43378  0.31494  1.0000
  H   H2601     1.0  0.72295  0.05340  0.31530  1.0000
  Fe  Fe220     1.0  0.71120  0.34980  0.85598  1.0000
  S   S434      1.0  0.68772  0.37018  0.84172  1.0000
  C   C1508     1.0  0.51947  0.25867  0.80757  1.0000
  Fe  Fe221     1.0  0.68695  0.35006  0.89636  1.0000
  S   S435      1.0  0.66099  0.37023  0.88582  1.0000
  S   S436      1.0  0.68916  0.33703  0.92749  1.0000
  Fe  Fe222     1.0  0.66783  0.35181  0.86321  1.0000
  S   S437      1.0  0.64608  0.34267  0.85168  1.0000
  Fe  Fe223     1.0  0.68312  0.38679  0.86530  1.0000
  S   S438      1.0  0.67827  0.41968  0.85751  1.0000
  S   S439      1.0  0.69182  0.33027  0.87567  1.0000
  S   S440      1.0  0.70851  0.36801  0.87761  1.0000
  Fe  Fe224     1.0  0.61268  0.23443  0.82471  1.0000
  S   S441      1.0  0.59315  0.21390  0.84205  1.0000
  S   S442      1.0  0.61890  0.24236  0.79195  1.0000
  Fe  Fe225     1.0  0.62196  0.24192  0.86072  1.0000
  S   S443      1.0  0.60284  0.22209  0.88108  1.0000
  S   S444      1.0  0.64106  0.25332  0.87369  1.0000
  Fe  Fe226     1.0  0.61601  0.20197  0.86014  1.0000
  S   S445      1.0  0.62857  0.16992  0.86789  1.0000
  Fe  Fe227     1.0  0.58170  0.23593  0.86122  1.0000
  S   S446      1.0  0.63665  0.22074  0.84111  1.0000
  S   S447      1.0  0.59973  0.25757  0.84251  1.0000
  S   S448      1.0  0.69575  0.14032  0.92932  1.0000
  Fe  Fe228     1.0  0.60491  0.14195  0.73068  1.0000
  S   S449      1.0  0.59320  0.12056  0.75652  1.0000
  S   S450      1.0  0.62611  0.12728  0.70755  1.0000
  Fe  Fe229     1.0  0.58320  0.17604  0.74957  1.0000
  S   S451      1.0  0.56995  0.15748  0.77707  1.0000
  S   S452      1.0  0.57680  0.20860  0.74535  1.0000
  Fe  Fe230     1.0  0.59968  0.13820  0.77440  1.0000
  S   S453      1.0  0.61538  0.12609  0.79942  1.0000
  Fe  Fe231     1.0  0.56460  0.14150  0.75670  1.0000
  S   S454      1.0  0.53806  0.12825  0.76305  1.0000
  S   S455      1.0  0.61350  0.15828  0.74851  1.0000
  S   S456      1.0  0.57566  0.16153  0.72918  1.0000
  Fe  Fe232     1.0  0.67777  0.02922  0.87377  1.0000
  S   S457      1.0  0.69314  0.04030  0.84330  1.0000
  S   S458      1.0  0.66569  0.04862  0.89606  1.0000
  S   S459      1.0  0.69346  0.99776  0.83405  1.0000
  Fe  Fe233     1.0  0.71167  0.01018  0.84650  1.0000
  Fe  Fe234     1.0  0.67347  0.02685  0.83363  1.0000
  S   S460      1.0  0.65843  0.03783  0.80823  1.0000
  S   S461      1.0  0.65630  0.01837  0.86369  1.0000
  H   H2602     1.0  0.61293  0.17560  0.80617  1.0000
  H   H2603     1.0  0.56894  0.26853  0.81558  1.0000
  H   H2604     1.0  0.50242  0.24608  0.79388  1.0000
  H   H2605     1.0  0.72228  0.07542  0.96486  1.0000
  H   H2606     1.0  0.69600  0.29224  0.79311  1.0000
  C   C1509     1.0  0.70929  0.27359  0.90098  1.0000
  C   C1510     1.0  0.64829  0.18861  0.78955  1.0000
  H   H2607     1.0  0.55459  0.20817  0.86562  1.0000
  H   H2608     1.0  0.55488  0.24022  0.77085  1.0000
  H   H2609     1.0  0.56049  0.22295  0.80743  1.0000
  H   H2610     1.0  0.63514  0.18899  0.66175  1.0000
  H   H2611     1.0  0.67910  0.35146  0.81506  1.0000
  H   H2612     1.0  0.72929  0.06048  0.89734  1.0000
  H   H2613     1.0  0.69953  0.21751  0.92925  1.0000
  C   C1511     1.0  0.51907  0.15459  0.73543  1.0000
  H   H2614     1.0  0.53046  0.23816  0.77622  1.0000
  H   H2615     1.0  0.54818  0.14958  0.69873  1.0000
  H   H2616     1.0  0.63910  0.09584  0.75006  1.0000
  H   H2617     1.0  0.53063  0.16258  0.73221  1.0000
  C   C1512     1.0  0.63768  0.14204  0.68686  1.0000
  C   C1513     1.0  0.63106  0.16222  0.68241  1.0000
  C   C1514     1.0  0.64040  0.17342  0.66535  1.0000
  C   C1515     1.0  0.71177  0.29805  0.84017  1.0000
  N   N109      1.0  0.56715  0.12205  0.69441  1.0000
  C   C1516     1.0  0.65377  0.13318  0.67449  1.0000
  H   H2618     1.0  0.61863  0.16917  0.69191  1.0000
  C   C1517     1.0  0.71651  0.25986  0.96396  1.0000
  C   C1518     1.0  0.51334  0.16577  0.80457  1.0000
  H   H2619     1.0  0.65889  0.11758  0.67779  1.0000
  C   C1519     1.0  0.62744  0.10158  0.80160  1.0000
  C   C1520     1.0  0.62280  0.08903  0.79246  1.0000
  C   C1521     1.0  0.63258  0.06953  0.79437  1.0000
  C   C1522     1.0  0.64668  0.06236  0.80585  1.0000
  C   C1523     1.0  0.65125  0.07483  0.81517  1.0000
  C   C1524     1.0  0.64179  0.09448  0.81283  1.0000
  H   H2620     1.0  0.61147  0.09418  0.78422  1.0000
  H   H2621     1.0  0.62893  0.05991  0.78723  1.0000
  H   H2622     1.0  0.66223  0.06939  0.82395  1.0000
  H   H2623     1.0  0.64568  0.10418  0.81963  1.0000
  C   C1525     1.0  0.68567  0.08054  0.92256  1.0000
  C   C1526     1.0  0.67362  0.07158  0.91675  1.0000
  C   C1527     1.0  0.68147  0.05905  0.90348  1.0000
  C   C1528     1.0  0.70159  0.05519  0.89641  1.0000
  H   H2624     1.0  0.67939  0.09033  0.93260  1.0000
  H   H2625     1.0  0.65817  0.07430  0.92270  1.0000
  C   C1529     1.0  0.60710  0.23253  0.77946  1.0000
  C   C1530     1.0  0.59918  0.21590  0.78825  1.0000
  C   C1531     1.0  0.59064  0.20787  0.77756  1.0000
  C   C1532     1.0  0.58925  0.21702  0.75832  1.0000
  C   C1533     1.0  0.59664  0.23397  0.74976  1.0000
  C   C1534     1.0  0.60589  0.24147  0.76016  1.0000
  H   H2626     1.0  0.59984  0.20911  0.80318  1.0000
  H   H2627     1.0  0.58466  0.19492  0.78435  1.0000
  H   H2628     1.0  0.59544  0.24118  0.73495  1.0000
  H   H2629     1.0  0.61193  0.25436  0.75329  1.0000
  C   C1535     1.0  0.63626  0.15275  0.93097  1.0000
  C   C1536     1.0  0.64718  0.14888  0.89731  1.0000
  C   C1537     1.0  0.63095  0.16270  0.89233  1.0000
  C   C1538     1.0  0.61684  0.17073  0.90686  1.0000
  C   C1539     1.0  0.61935  0.16551  0.92622  1.0000
  C   C1540     1.0  0.67292  0.41237  0.92612  1.0000
  H   H2630     1.0  0.60396  0.18093  0.90320  1.0000
  H   H2631     1.0  0.60849  0.17187  0.93740  1.0000
  C   C1541     1.0  0.58892  0.14520  0.66995  1.0000
  H   H2632     1.0  0.67777  0.41088  0.96192  1.0000
  H   H2633     1.0  0.67435  0.39916  0.90137  1.0000
  C   C1542     1.0  0.68200  0.11926  0.71477  1.0000
  H   H2634     1.0  0.66604  0.28980  0.81724  1.0000
  C   C1543     1.0  0.68990  0.43182  0.86800  1.0000
  C   C1544     1.0  0.70489  0.42163  0.87775  1.0000
  C   C1545     1.0  0.71366  0.43148  0.88642  1.0000
  C   C1546     1.0  0.70749  0.45159  0.88544  1.0000
  C   C1547     1.0  0.69290  0.46195  0.87518  1.0000
  C   C1548     1.0  0.68415  0.45206  0.86645  1.0000
  H   H2635     1.0  0.70978  0.40618  0.87862  1.0000
  C   C1549     1.0  0.71289  0.23756  0.93671  1.0000
  H   H2636     1.0  0.71048  0.28267  0.81065  1.0000
  H   H2637     1.0  0.67266  0.46009  0.85877  1.0000
  C   C1550     1.0  0.64407  0.31798  0.85841  1.0000
  C   C1551     1.0  0.65443  0.30478  0.87174  1.0000
  C   C1552     1.0  0.65347  0.28500  0.87615  1.0000
  C   C1553     1.0  0.64182  0.27829  0.86759  1.0000
  C   C1554     1.0  0.63130  0.29147  0.85435  1.0000
  C   C1555     1.0  0.63248  0.31127  0.84973  1.0000
  H   H2638     1.0  0.66310  0.30978  0.87878  1.0000
  H   H2639     1.0  0.66182  0.27492  0.88621  1.0000
  H   H2640     1.0  0.62228  0.28643  0.84765  1.0000
  H   H2641     1.0  0.62437  0.32142  0.83943  1.0000
  C   C1556     1.0  0.71314  0.32423  0.92746  1.0000
  C   C1557     1.0  0.71921  0.31512  0.94501  1.0000
  H   H2642     1.0  0.70915  0.28872  0.89250  1.0000
  C   C1558     1.0  0.67114  0.38088  0.94973  1.0000
  H   H2643     1.0  0.51708  0.27464  0.80158  1.0000
  H   H2644     1.0  0.68394  0.31660  0.83891  1.0000
  H   H2645     1.0  0.70903  0.31587  0.95875  1.0000
  H   H2646     1.0  0.50455  0.19280  0.74782  1.0000
  C   C1559     1.0  0.54442  0.22801  0.80993  1.0000
  H   H2647     1.0  0.49805  0.23983  0.82019  1.0000
  H   H2648     1.0  0.58698  0.14089  0.65712  1.0000
  C   C1560     1.0  0.67999  0.28377  0.82228  1.0000
  C   C1561     1.0  0.71279  0.32082  0.79345  1.0000
  C   C1562     1.0  0.51938  0.13744  0.74972  1.0000
  H   H2649     1.0  0.72747  0.08237  0.74086  1.0000
  C   C1563     1.0  0.67453  0.15974  0.79208  1.0000
  H   H2650     1.0  0.72411  0.39328  0.82341  1.0000
  C   C1564     1.0  0.65666  0.16453  0.65305  1.0000
  H   H2651     1.0  0.74054  0.24106  0.90272  1.0000
  H   H2652     1.0  0.70521  0.23677  0.90916  1.0000
  C   C1565     1.0  0.71535  0.27177  0.92039  1.0000
  H   H2653     1.0  0.68810  0.47749  0.87428  1.0000
  C   C1566     1.0  0.50560  0.17323  0.78548  1.0000
  H   H2654     1.0  0.65661  0.99358  0.82492  1.0000
  H   H2655     1.0  0.54591  0.27619  0.76086  1.0000
  H   H2656     1.0  0.64535  0.99242  0.77967  1.0000
  H   H2657     1.0  0.55275  0.14623  0.67467  1.0000
  H   H2658     1.0  0.65391  0.39466  0.97444  1.0000
  H   H2659     1.0  0.73150  0.43936  0.77217  1.0000
  H   H2660     1.0  0.71613  0.44782  0.80170  1.0000
  H   H2661     1.0  0.58147  0.08483  0.71928  1.0000
  H   H2662     1.0  0.59874  0.11760  0.68780  1.0000
  C   C1567     1.0  0.73909  0.03711  0.78131  1.0000
  H   H2663     1.0  0.71012  0.35889  0.94732  1.0000
  H   H2664     1.0  0.72524  0.42350  0.89398  1.0000
  C   C1568     1.0  0.56931  0.10534  0.68467  1.0000
  H   H2665     1.0  0.52941  0.16404  0.80098  1.0000
  C   C1569     1.0  0.65860  0.17513  0.82076  1.0000
  C   C1570     1.0  0.64281  0.18615  0.77118  1.0000
  C   C1571     1.0  0.67523  0.18604  0.81759  1.0000
  H   H2666     1.0  0.65929  0.19803  0.78414  1.0000
  H   H2667     1.0  0.64521  0.18456  0.82732  1.0000
  H   H2668     1.0  0.66104  0.16190  0.83239  1.0000
  H   H2669     1.0  0.61910  0.17363  0.82936  1.0000
  H   H2670     1.0  0.63684  0.20076  0.76308  1.0000
  H   H2671     1.0  0.63138  0.17742  0.77467  1.0000
  H   H2672     1.0  0.65564  0.17980  0.76100  1.0000
  H   H2673     1.0  0.68973  0.17707  0.81294  1.0000
  H   H2674     1.0  0.67527  0.18947  0.83169  1.0000
  H   H2675     1.0  0.67326  0.20008  0.80703  1.0000
  H   H2676     1.0  0.71948  0.02828  0.80819  1.0000
  H   H2677     1.0  0.70356  0.32874  0.82791  1.0000
  C   C1572     1.0  0.57118  0.11018  0.66236  1.0000
  H   H2678     1.0  0.63545  0.19752  0.79762  1.0000
  H   H2679     1.0  0.55734  0.09712  0.69137  1.0000
  H   H2680     1.0  0.60409  0.14751  0.66673  1.0000
  H   H2681     1.0  0.56243  0.24551  0.82629  1.0000
  C   C1573     1.0  0.65170  0.38910  0.96243  1.0000
  C   C1574     1.0  0.51442  0.24454  0.86665  1.0000
  S   S462      1.0  0.68357  0.10641  0.96806  1.0000
  H   H2682     1.0  0.54988  0.10823  0.72128  1.0000
  C   C1575     1.0  0.50354  0.16155  0.72548  1.0000
  H   H2683     1.0  0.70295  0.28837  0.85141  1.0000
  C   C1576     1.0  0.56322  0.11451  0.71622  1.0000
  H   H2684     1.0  0.70851  0.39544  0.91398  1.0000
  H   H2685     1.0  0.51933  0.14522  0.68951  1.0000
  H   H2686     1.0  0.50949  0.25930  0.86903  1.0000
  H   H2687     1.0  0.52057  0.21500  0.80789  1.0000
  C   C1577     1.0  0.71042  0.22682  0.92191  1.0000
  H   H2688     1.0  0.74056  0.05692  0.95570  1.0000
  H   H2689     1.0  0.72649  0.44711  0.83887  1.0000
  H   H2690     1.0  0.72035  0.03620  0.95989  1.0000
  H   H2691     1.0  0.69597  0.43265  0.94042  1.0000
  C   C1578     1.0  0.50138  0.25138  0.80718  1.0000
  S   S463      1.0  0.72851  0.17292  0.93507  1.0000
  C   C1579     1.0  0.73275  0.25463  0.94650  1.0000
  C   C1580     1.0  0.69732  0.12842  0.69835  1.0000
  H   H2692     1.0  0.72846  0.37596  0.77892  1.0000
  H   H2693     1.0  0.56551  0.09934  0.65808  1.0000
  H   H2694     1.0  0.54374  0.20793  0.79189  1.0000
  H   H2695     1.0  0.51210  0.18604  0.77758  1.0000
  H   H2696     1.0  0.51230  0.16221  0.77620  1.0000
  H   H2697     1.0  0.72408  0.21668  0.91701  1.0000
  C   C1581     1.0  0.66344  0.40721  0.91183  1.0000
  H   H2698     1.0  0.66141  0.42152  0.93528  1.0000
  H   H2699     1.0  0.68273  0.42238  0.91717  1.0000
  H   H2700     1.0  0.50321  0.17489  0.71456  1.0000
  C   C1582     1.0  0.73451  0.02746  0.80080  1.0000
  H   H2701     1.0  0.65191  0.39877  0.91942  1.0000
  N   N110      1.0  0.68583  0.09727  0.72090  1.0000
  C   C1583     1.0  0.66644  0.09118  0.72924  1.0000
  C   C1584     1.0  0.69529  0.08805  0.70340  1.0000
  H   H2702     1.0  0.72356  0.28340  0.91844  1.0000
  C   C1585     1.0  0.69765  0.09046  0.73661  1.0000
  C   C1586     1.0  0.65316  0.10080  0.74606  1.0000
  C   C1587     1.0  0.70046  0.06560  0.70753  1.0000
  H   H2703     1.0  0.71976  0.10809  0.73163  1.0000
  C   C1588     1.0  0.71890  0.09326  0.73076  1.0000
  H   H2704     1.0  0.65793  0.09427  0.71759  1.0000
  H   H2705     1.0  0.66839  0.07521  0.73509  1.0000
  H   H2706     1.0  0.70902  0.09285  0.69561  1.0000
  H   H2707     1.0  0.68585  0.09293  0.69240  1.0000
  H   H2708     1.0  0.65163  0.20170  0.97154  1.0000
  H   H2709     1.0  0.67797  0.28587  0.83732  1.0000
  H   H2710     1.0  0.69074  0.09825  0.74883  1.0000
  H   H2711     1.0  0.69761  0.07491  0.74379  1.0000
  H   H2712     1.0  0.64955  0.11691  0.74183  1.0000
  C   C1589     1.0  0.54002  0.24740  0.77732  1.0000
  H   H2713     1.0  0.65938  0.09637  0.75937  1.0000
  H   H2714     1.0  0.70828  0.06085  0.69364  1.0000
  H   H2715     1.0  0.71044  0.05967  0.71789  1.0000
  H   H2716     1.0  0.68735  0.05904  0.71274  1.0000
  H   H2717     1.0  0.71013  0.17716  0.97480  1.0000
  H   H2718     1.0  0.68640  0.43601  0.80514  1.0000
  H   H2719     1.0  0.54000  0.19823  0.81746  1.0000
  H   H2720     1.0  0.72644  0.09037  0.71617  1.0000
  H   H2721     1.0  0.57504  0.09509  0.74047  1.0000
  C   C1590     1.0  0.67514  0.34791  0.80280  1.0000
  N   N111      1.0  0.63702  0.21650  0.93425  1.0000
  C   C1591     1.0  0.61846  0.23026  0.92988  1.0000
  C   C1592     1.0  0.64994  0.22847  0.93709  1.0000
  C   C1593     1.0  0.63178  0.20200  0.95287  1.0000
  C   C1594     1.0  0.64609  0.20650  0.91722  1.0000
  C   C1595     1.0  0.60125  0.22069  0.93120  1.0000
  C   C1596     1.0  0.65612  0.24422  0.91937  1.0000
  S   S464      1.0  0.49317  0.20500  0.85170  1.0000
  C   C1597     1.0  0.66615  0.19287  0.91740  1.0000
  H   H2722     1.0  0.61305  0.24070  0.93997  1.0000
  H   H2723     1.0  0.62102  0.23941  0.91492  1.0000
  H   H2724     1.0  0.66356  0.21933  0.94123  1.0000
  H   H2725     1.0  0.64257  0.23587  0.94956  1.0000
  H   H2726     1.0  0.72755  0.04540  0.77382  1.0000
  H   H2727     1.0  0.62588  0.19050  0.94994  1.0000
  H   H2728     1.0  0.63650  0.19738  0.91589  1.0000
  H   H2729     1.0  0.64703  0.21708  0.90303  1.0000
  H   H2730     1.0  0.59501  0.21437  0.94648  1.0000
  H   H2731     1.0  0.58943  0.23201  0.92546  1.0000
  H   H2732     1.0  0.60528  0.20930  0.92241  1.0000
  H   H2733     1.0  0.66582  0.25177  0.92307  1.0000
  H   H2734     1.0  0.66440  0.23785  0.90654  1.0000
  H   H2735     1.0  0.64348  0.25552  0.91543  1.0000
  H   H2736     1.0  0.70785  0.24833  0.97060  1.0000
  S   S465      1.0  0.72958  0.10234  0.65724  1.0000
  C   C1598     1.0  0.53047  0.13212  0.69364  1.0000
  H   H2737     1.0  0.66454  0.17792  0.92537  1.0000
  H   H2738     1.0  0.67604  0.19797  0.92342  1.0000
  H   H2739     1.0  0.67381  0.19212  0.90214  1.0000
  N   N112      1.0  0.62455  0.10342  0.87545  1.0000
  C   C1599     1.0  0.63712  0.11622  0.86045  1.0000
  C   C1600     1.0  0.60365  0.11327  0.87504  1.0000
  C   C1601     1.0  0.62869  0.08421  0.86913  1.0000
  C   C1602     1.0  0.62969  0.10075  0.89502  1.0000
  C   C1603     1.0  0.65929  0.10805  0.85692  1.0000
  C   C1604     1.0  0.59768  0.13411  0.87909  1.0000
  C   C1605     1.0  0.61732  0.06873  0.88225  1.0000
  C   C1606     1.0  0.61398  0.09566  0.91341  1.0000
  H   H2740     1.0  0.63262  0.11984  0.84615  1.0000
  H   H2741     1.0  0.63515  0.13040  0.86469  1.0000
  H   H2742     1.0  0.59329  0.10478  0.88551  1.0000
  H   H2743     1.0  0.60044  0.11417  0.86053  1.0000
  H   H2744     1.0  0.62598  0.08657  0.85415  1.0000
  H   H2745     1.0  0.64424  0.07698  0.86832  1.0000
  H   H2746     1.0  0.64303  0.08930  0.89617  1.0000
  H   H2747     1.0  0.63338  0.11433  0.89635  1.0000
  H   H2748     1.0  0.66474  0.10262  0.87069  1.0000
  H   H2749     1.0  0.66348  0.09634  0.84841  1.0000
  H   H2750     1.0  0.66698  0.11989  0.84818  1.0000
  H   H2751     1.0  0.60320  0.13545  0.89151  1.0000
  H   H2752     1.0  0.60283  0.14478  0.86595  1.0000
  H   H2753     1.0  0.58156  0.13839  0.88257  1.0000
  H   H2754     1.0  0.62124  0.05585  0.87532  1.0000
  H   H2755     1.0  0.60136  0.07376  0.88403  1.0000
  H   H2756     1.0  0.62166  0.06344  0.89660  1.0000
  H   H2757     1.0  0.62132  0.08580  0.92504  1.0000
  H   H2758     1.0  0.60335  0.08808  0.91158  1.0000
  H   H2759     1.0  0.60627  0.10889  0.91936  1.0000
  H   H2760     1.0  0.67203  0.15516  0.77953  1.0000
  C   C1607     1.0  0.62665  0.00040  0.83757  1.0000
  H   H2761     1.0  0.68496  0.16974  0.78553  1.0000
  C   C1608     1.0  0.53652  0.21162  0.80636  1.0000
  H   H2762     1.0  0.73874  0.98661  0.76817  1.0000
  H   H2763     1.0  0.54418  0.26771  0.82683  1.0000
  H   H2764     1.0  0.68317  0.26783  0.82284  1.0000
  H   H2765     1.0  0.66815  0.12476  0.70939  1.0000
  H   H2766     1.0  0.71226  0.12321  0.70104  1.0000
  H   H2767     1.0  0.51894  0.25770  0.82327  1.0000
  H   H2768     1.0  0.65959  0.35488  0.80305  1.0000
  H   H2769     1.0  0.69369  0.14448  0.69700  1.0000
  H   H2770     1.0  0.71829  0.35836  0.81271  1.0000
  H   H2771     1.0  0.52511  0.12598  0.70919  1.0000
  H   H2772     1.0  0.71947  0.26435  0.89124  1.0000
  H   H2773     1.0  0.52019  0.27533  0.76892  1.0000
  C   C1609     1.0  0.73351  0.35774  0.80648  1.0000
  C   C1610     1.0  0.55018  0.13828  0.69003  1.0000
  H   H2774     1.0  0.53100  0.12170  0.68456  1.0000
  H   H2775     1.0  0.71903  0.30401  0.84846  1.0000
  H   H2776     1.0  0.61338  0.00691  0.78236  1.0000
  H   H2777     1.0  0.71074  0.32048  0.77881  1.0000
  H   H2778     1.0  0.72332  0.26110  0.97557  1.0000
  N   N113      1.0  0.53904  0.24828  0.79814  1.0000
  H   H2779     1.0  0.59348  0.10341  0.72081  1.0000
  C   C1611     1.0  0.70031  0.42516  0.80497  1.0000
  H   H2780     1.0  0.66763  0.37347  0.93973  1.0000
  C   C1612     1.0  0.53488  0.26713  0.76353  1.0000
  C   C1613     1.0  0.64030  0.99741  0.79380  1.0000
  H   H2781     1.0  0.73598  0.40446  0.79027  1.0000
  C   C1614     1.0  0.71641  0.37022  0.93577  1.0000
  H   H2782     1.0  0.71826  0.22581  0.94852  1.0000
  H   H2783     1.0  0.50447  0.11397  0.76485  1.0000
  H   H2784     1.0  0.62104  0.02570  0.78822  1.0000
  H   H2785     1.0  0.72724  0.36254  0.92487  1.0000
  S   S466      1.0  0.54976  0.24747  0.87128  1.0000
  C   C1615     1.0  0.70581  0.07645  0.91573  1.0000
  N   N114      1.0  0.65572  0.17005  0.80288  1.0000
  C   C1616     1.0  0.50809  0.21627  0.85905  1.0000
  H   H2786     1.0  0.62951  0.00202  0.85136  1.0000
  C   C1617     1.0  0.53992  0.21580  0.86460  1.0000
  H   H2787     1.0  0.65645  0.42090  0.90305  1.0000
  H   H2788     1.0  0.70782  0.04551  0.88624  1.0000
  H   H2789     1.0  0.65798  0.14237  0.88618  1.0000
  Fe  Fe235     1.0  0.71137  0.14902  0.94778  1.0000
  C   C1618     1.0  0.64990  0.14400  0.91659  1.0000
  C   C1619     1.0  0.55408  0.25956  0.79781  1.0000
  C   C1620     1.0  0.62023  0.16579  0.81774  1.0000
  C   C1621     1.0  0.61973  0.01016  0.79330  1.0000
  C   C1622     1.0  0.53367  0.23497  0.86742  1.0000
  H   H2790     1.0  0.70554  0.42245  0.78994  1.0000
  N   N115      1.0  0.72611  0.25216  0.92927  1.0000
  S   S467      1.0  0.64062  0.14896  0.95456  1.0000
  C   C1623     1.0  0.71372  0.06372  0.90268  1.0000
  C   C1624     1.0  0.64138  0.15668  0.80926  1.0000
  H   H2791     1.0  0.67636  0.12938  0.80856  1.0000
  H   H2792     1.0  0.58696  0.13665  0.70052  1.0000
  C   C1625     1.0  0.71137  0.03979  0.97398  1.0000
  H   H2793     1.0  0.53488  0.26438  0.74912  1.0000
  S   S468      1.0  0.71784  0.46293  0.89794  1.0000
  H   H2794     1.0  0.61182  0.15403  0.82438  1.0000
  H   H2795     1.0  0.69694  0.12573  0.68402  1.0000
  S   S469      1.0  0.68671  0.14923  0.97376  1.0000
  Fe  Fe236     1.0  0.67218  0.13782  0.95620  1.0000
  N   N116      1.0  0.68386  0.39532  0.93854  1.0000
  H   H2796     1.0  0.64597  0.14408  0.82068  1.0000
  C   C1626     1.0  0.73472  0.18290  0.95181  1.0000
  Fe  Fe237     1.0  0.70814  0.10949  0.94214  1.0000
  H   H2797     1.0  0.66257  0.13351  0.92029  1.0000
  H   H2798     1.0  0.71247  0.33630  0.79317  1.0000
  C   C1627     1.0  0.71475  0.43342  0.81143  1.0000
  C   C1628     1.0  0.64794  0.19161  0.96443  1.0000
  H   H2799     1.0  0.69583  0.37680  0.91734  1.0000
  H   H2800     1.0  0.53210  0.19172  0.85802  1.0000
  N   N117      1.0  0.73444  0.42040  0.81234  1.0000
  C   C1629     1.0  0.52713  0.20646  0.86045  1.0000
  H   H2801     1.0  0.72231  0.40620  0.84161  1.0000
  H   H2802     1.0  0.72190  0.32988  0.89613  1.0000
  C   C1630     1.0  0.68494  0.14106  0.80414  1.0000
  H   H2803     1.0  0.64108  0.15019  0.79700  1.0000
  H   H2804     1.0  0.67987  0.12614  0.72747  1.0000
  H   H2805     1.0  0.51025  0.15121  0.81221  1.0000
  H   H2806     1.0  0.67496  0.32345  0.79114  1.0000
  H   H2807     1.0  0.65011  0.00721  0.79333  1.0000
  H   H2808     1.0  0.68839  0.14368  0.81718  1.0000
  C   C1631     1.0  0.50426  0.12730  0.75389  1.0000
  H   H2809     1.0  0.73651  0.29462  0.79475  1.0000
  H   H2810     1.0  0.58259  0.09423  0.68732  1.0000
  H   H2811     1.0  0.69899  0.13539  0.79492  1.0000
  S   S470      1.0  0.69769  0.99974  0.87776  1.0000
  H   H2812     1.0  0.69804  0.24456  0.94350  1.0000
  C   C1632     1.0  0.55734  0.26019  0.81788  1.0000
  H   H2813     1.0  0.53976  0.22811  0.82571  1.0000
  C   C1633     1.0  0.69046  0.40291  0.95277  1.0000
  C   C1634     1.0  0.72289  0.18359  0.97029  1.0000
  C   C1635     1.0  0.70090  0.38498  0.92550  1.0000
  S   S471      1.0  0.72147  0.08636  0.92389  1.0000
  H   H2814     1.0  0.55025  0.27502  0.79037  1.0000
  H   H2815     1.0  0.56850  0.25353  0.78931  1.0000
  H   H2816     1.0  0.71362  0.41658  0.95404  1.0000
  C   C1636     1.0  0.70429  0.41746  0.94371  1.0000
  H   H2817     1.0  0.66123  0.18454  0.95545  1.0000
  S   S472      1.0  0.72624  0.11839  0.95810  1.0000
  H   H2818     1.0  0.69673  0.41172  0.81521  1.0000
  N   N118      1.0  0.69673  0.31337  0.80922  1.0000
  C   C1637     1.0  0.73928  0.36759  0.78732  1.0000
  H   H2819     1.0  0.72356  0.28938  0.83102  1.0000
  C   C1638     1.0  0.66343  0.14442  0.65786  1.0000
  C   C1639     1.0  0.58580  0.12973  0.68890  1.0000
  H   H2820     1.0  0.56046  0.12668  0.72401  1.0000
  H   H2821     1.0  0.70731  0.43681  0.82597  1.0000
  H   H2822     1.0  0.68359  0.35461  0.78871  1.0000
  C   C1640     1.0  0.72641  0.32328  0.90976  1.0000
  H   H2823     1.0  0.67899  0.36892  0.95967  1.0000
  H   H2824     1.0  0.61286  0.99508  0.84168  1.0000
  H   H2825     1.0  0.64257  0.17990  0.97630  1.0000
  C   C1641     1.0  0.73309  0.06221  0.96941  1.0000
  H   H2826     1.0  0.66519  0.32150  0.81654  1.0000
  H   H2827     1.0  0.70165  0.27650  0.93064  1.0000
  C   C1642     1.0  0.69675  0.29283  0.80813  1.0000
  C   C1643     1.0  0.67758  0.32576  0.80483  1.0000
  C   C1644     1.0  0.50164  0.23523  0.86242  1.0000
  H   H2828     1.0  0.70686  0.27413  0.96004  1.0000
  C   C1645     1.0  0.69850  0.31514  0.82902  1.0000
  C   C1646     1.0  0.57943  0.09857  0.72431  1.0000
  C   C1647     1.0  0.73854  0.30517  0.94479  1.0000
  H   H2829     1.0  0.69445  0.27061  0.90364  1.0000
  H   H2830     1.0  0.73773  0.31252  0.80796  1.0000
  H   H2831     1.0  0.49589  0.21050  0.78993  1.0000
  H   H2832     1.0  0.71452  0.41428  0.93018  1.0000
  H   H2833     1.0  0.64363  0.37710  0.96935  1.0000
  C   C1648     1.0  0.73183  0.40236  0.82787  1.0000
  C   C1649     1.0  0.69274  0.05389  0.96898  1.0000
  C   C1650     1.0  0.73377  0.31031  0.79498  1.0000
  C   C1651     1.0  0.64408  0.98622  0.82830  1.0000
  H   H2834     1.0  0.60928  0.00930  0.80739  1.0000
  H   H2835     1.0  0.61992  0.20926  0.96344  1.0000
  H   H2836     1.0  0.68630  0.04750  0.96030  1.0000
  H   H2837     1.0  0.56239  0.12442  0.65685  1.0000
  H   H2838     1.0  0.69596  0.06790  0.95990  1.0000
  H   H2839     1.0  0.69709  0.39089  0.96361  1.0000
  H   H2840     1.0  0.64218  0.40054  0.95374  1.0000
  H   H2841     1.0  0.57928  0.15949  0.67173  1.0000
  H   H2842     1.0  0.62507  0.01516  0.82812  1.0000
  H   H2843     1.0  0.72449  0.37751  0.94191  1.0000
  Fe  Fe238     1.0  0.67762  0.98982  0.86480  1.0000
  H   H2844     1.0  0.58665  0.10956  0.65478  1.0000
  H   H2845     1.0  0.50772  0.17620  0.81456  1.0000
  H   H2846     1.0  0.67975  0.98680  0.78983  1.0000
  H   H2847     1.0  0.67596  0.13742  0.64861  1.0000
  S   S473      1.0  0.74060  0.33548  0.84162  1.0000
  H   H2848     1.0  0.74050  0.42409  0.84922  1.0000
  C   C1652     1.0  0.71937  0.93561  0.25740  1.0000
  Fe  Fe239     1.0  0.67484  0.72347  0.00686  1.0000
  S   S474      1.0  0.65774  0.75231  0.99373  1.0000
  S   S475      1.0  0.67987  0.70948  0.03739  1.0000
  H   H2849     1.0  0.65364  0.61575  0.28854  1.0000
  C   C1653     1.0  0.61082  0.71770  0.21366  1.0000
  H   H2850     1.0  0.64976  0.64173  0.28286  1.0000
  Fe  Fe240     1.0  0.64414  0.73435  0.98179  1.0000
  Fe  Fe241     1.0  0.68124  0.83183  0.27273  1.0000
  S   S476      1.0  0.70734  0.80812  0.26707  1.0000
  C   C1654     1.0  0.63372  0.84459  0.19150  1.0000
  Fe  Fe242     1.0  0.70117  0.86402  0.24601  1.0000
  C   C1655     1.0  0.73042  0.91747  0.25396  1.0000
  S   S477      1.0  0.69390  0.89644  0.23446  1.0000
  Fe  Fe243     1.0  0.70988  0.82392  0.23572  1.0000
  C   C1656     1.0  0.64478  0.65675  0.99450  1.0000
  H   H2851     1.0  0.64019  0.81457  0.17037  1.0000
  H   H2852     1.0  0.63324  0.84448  0.17631  1.0000
  S   S478      1.0  0.68236  0.84607  0.24138  1.0000
  S   S479      1.0  0.69759  0.85162  0.27800  1.0000
  Fe  Fe244     1.0  0.69577  0.54186  0.26568  1.0000
  S   S480      1.0  0.69878  0.52645  0.24141  1.0000
  S   S481      1.0  0.66798  0.55671  0.28274  1.0000
  C   C1657     1.0  0.70755  0.97835  0.20953  1.0000
  H   H2853     1.0  0.65505  0.70089  0.10374  1.0000
  S   S482      1.0  0.71944  0.52029  0.27918  1.0000
  H   H2854     1.0  0.65429  0.71372  0.26047  1.0000
  Fe  Fe245     1.0  0.58770  0.65412  0.24711  1.0000
  S   S483      1.0  0.56084  0.67150  0.23669  1.0000
  S   S484      1.0  0.60781  0.66842  0.25509  1.0000
  Fe  Fe246     1.0  0.58209  0.61643  0.24110  1.0000
  S   S485      1.0  0.55439  0.63027  0.23028  1.0000
  S   S486      1.0  0.59566  0.58479  0.24199  1.0000
  Fe  Fe247     1.0  0.57032  0.65407  0.21330  1.0000
  S   S487      1.0  0.56639  0.66908  0.18301  1.0000
  Fe  Fe248     1.0  0.54699  0.64652  0.25455  1.0000
  S   S488      1.0  0.51672  0.65564  0.27145  1.0000
  S   S489      1.0  0.59867  0.63890  0.22195  1.0000
  S   S490      1.0  0.57323  0.63038  0.26723  1.0000
  Fe  Fe249     1.0  0.64630  0.72821  0.15425  1.0000
  S   S491      1.0  0.66156  0.75314  0.14765  1.0000
  S   S492      1.0  0.61533  0.73548  0.15056  1.0000
  Fe  Fe250     1.0  0.68285  0.69793  0.16087  1.0000
  S   S493      1.0  0.70118  0.72052  0.15455  1.0000
  Fe  Fe251     1.0  0.67544  0.73677  0.17312  1.0000
  S   S494      1.0  0.67347  0.74812  0.20022  1.0000
  Fe  Fe252     1.0  0.68555  0.73460  0.12975  1.0000
  S   S495      1.0  0.69927  0.74682  0.09861  1.0000
  S   S496      1.0  0.65818  0.71301  0.18098  1.0000
  S   S497      1.0  0.66920  0.71084  0.13480  1.0000
  H   H2855     1.0  0.63850  0.80950  0.23683  1.0000
  H   H2856     1.0  0.71739  0.79486  0.17619  1.0000
  H   H2857     1.0  0.60013  0.71053  0.25466  1.0000
  H   H2858     1.0  0.52039  0.66923  0.17617  1.0000
  H   H2859     1.0  0.52971  0.62483  0.18145  1.0000
  C   C1658     1.0  0.65274  0.80628  0.17707  1.0000
  H   H2860     1.0  0.53953  0.68942  0.27699  1.0000
  H   H2861     1.0  0.63212  0.71281  0.05473  1.0000
  C   C1659     1.0  0.50183  0.62721  0.26452  1.0000
  C   C1660     1.0  0.64397  0.78207  0.27879  1.0000
  C   C1661     1.0  0.63029  0.86617  0.19254  1.0000
  H   H2862     1.0  0.61295  0.70897  0.09887  1.0000
  H   H2863     1.0  0.51575  0.61765  0.26580  1.0000
  C   C1662     1.0  0.58083  0.68681  0.17334  1.0000
  C   C1663     1.0  0.57427  0.70364  0.16031  1.0000
  C   C1664     1.0  0.58504  0.71845  0.15334  1.0000
  C   C1665     1.0  0.60272  0.71624  0.15888  1.0000
  C   C1666     1.0  0.60977  0.69903  0.17118  1.0000
  C   C1667     1.0  0.59862  0.68449  0.17874  1.0000
  H   H2864     1.0  0.56054  0.70549  0.15612  1.0000
  H   H2865     1.0  0.57955  0.73173  0.14382  1.0000
  H   H2866     1.0  0.62355  0.69712  0.17531  1.0000
  H   H2867     1.0  0.60386  0.67144  0.18863  1.0000
  C   C1668     1.0  0.64887  0.56454  0.27005  1.0000
  C   C1669     1.0  0.63895  0.58396  0.26811  1.0000
  C   C1670     1.0  0.62274  0.59030  0.25930  1.0000
  C   C1671     1.0  0.61633  0.57715  0.25244  1.0000
  C   C1672     1.0  0.62658  0.55782  0.25383  1.0000
  C   C1673     1.0  0.64291  0.55153  0.26256  1.0000
  H   H2868     1.0  0.66784  0.82288  0.22047  1.0000
  C   C1674     1.0  0.61063  0.68174  0.28597  1.0000
  H   H2869     1.0  0.62173  0.54766  0.24839  1.0000
  H   H2870     1.0  0.65055  0.53650  0.26396  1.0000
  C   C1675     1.0  0.70550  0.79237  0.20700  1.0000
  C   C1676     1.0  0.70825  0.78755  0.18874  1.0000
  C   C1677     1.0  0.69898  0.77360  0.18650  1.0000
  C   C1678     1.0  0.68704  0.76419  0.20261  1.0000
  C   C1679     1.0  0.68470  0.76862  0.22100  1.0000
  C   C1680     1.0  0.69378  0.78276  0.22318  1.0000
  C   C1681     1.0  0.50962  0.67224  0.21312  1.0000
  H   H2871     1.0  0.70087  0.77030  0.17230  1.0000
  H   H2872     1.0  0.67553  0.76136  0.23356  1.0000
  H   H2873     1.0  0.69163  0.78628  0.23733  1.0000
  H   H2874     1.0  0.61037  0.72058  0.19797  1.0000
  H   H2875     1.0  0.57820  0.72236  0.28184  1.0000
  C   C1682     1.0  0.57740  0.66938  0.31008  1.0000
  C   C1683     1.0  0.59968  0.67292  0.27872  1.0000
  H   H2876     1.0  0.60020  0.72895  0.28166  1.0000
  H   H2877     1.0  0.72706  0.68530  0.12898  1.0000
  H   H2878     1.0  0.62520  0.77091  0.21337  1.0000
  C   C1684     1.0  0.68546  0.98130  0.21093  1.0000
  H   H2879     1.0  0.62425  0.78139  0.23350  1.0000
  H   H2880     1.0  0.64163  0.73808  0.26060  1.0000
  H   H2881     1.0  0.70120  0.89578  0.30197  1.0000
  H   H2882     1.0  0.67778  0.93360  0.24506  1.0000
  H   H2883     1.0  0.66930  0.86550  0.18926  1.0000
  C   C1685     1.0  0.69243  0.92901  0.24771  1.0000
  H   H2884     1.0  0.73142  0.70901  0.04218  1.0000
  H   H2885     1.0  0.69157  0.95513  0.25729  1.0000
  C   C1686     1.0  0.53155  0.63867  0.18398  1.0000
  H   H2886     1.0  0.69072  0.85628  0.17295  1.0000
  H   H2887     1.0  0.70516  0.65945  0.00126  1.0000
  N   N119      1.0  0.61318  0.73554  0.23945  1.0000
  N   N120      1.0  0.65213  0.83165  0.19702  1.0000
  H   H2888     1.0  0.64865  0.61544  0.00324  1.0000
  C   C1687     1.0  0.70027  0.94127  0.25448  1.0000
  H   H2889     1.0  0.61934  0.61110  0.00037  1.0000
  H   H2890     1.0  0.49213  0.72245  0.29244  1.0000
  H   H2891     1.0  0.62378  0.70611  0.21598  1.0000
  H   H2892     1.0  0.61805  0.64440  0.30634  1.0000
  S   S498      1.0  0.65344  0.82828  0.29426  1.0000
  S   S499      1.0  0.69470  0.66554  0.16679  1.0000
  C   C1688     1.0  0.64361  0.69940  0.09691  1.0000
  C   C1689     1.0  0.59298  0.59748  0.31379  1.0000
  C   C1690     1.0  0.70342  0.91078  0.24446  1.0000
  Fe  Fe253     1.0  0.71617  0.98291  0.26104  1.0000
  H   H2893     1.0  0.49150  0.63304  0.18072  1.0000
  H   H2894     1.0  0.64406  0.59417  0.27313  1.0000
  S   S500      1.0  0.65893  0.70594  0.99723  1.0000
  H   H2895     1.0  0.72289  0.70357  0.01413  1.0000
  H   H2896     1.0  0.66341  0.80073  0.20338  1.0000
  H   H2897     1.0  0.51318  0.65511  0.16385  1.0000
  C   C1691     1.0  0.68689  0.72014  0.05313  1.0000
  C   C1692     1.0  0.68994  0.70865  0.07122  1.0000
  C   C1693     1.0  0.69402  0.71669  0.08504  1.0000
  C   C1694     1.0  0.69530  0.73631  0.08083  1.0000
  C   C1695     1.0  0.69316  0.74764  0.06234  1.0000
  C   C1696     1.0  0.68877  0.73963  0.04854  1.0000
  H   H2898     1.0  0.68865  0.69353  0.07480  1.0000
  H   H2899     1.0  0.69595  0.70768  0.09903  1.0000
  H   H2900     1.0  0.69430  0.76280  0.05891  1.0000
  H   H2901     1.0  0.68652  0.74858  0.03455  1.0000
  C   C1697     1.0  0.53543  0.70081  0.28592  1.0000
  C   C1698     1.0  0.65213  0.79760  0.27908  1.0000
  H   H2902     1.0  0.63272  0.70730  0.24314  1.0000
  H   H2903     1.0  0.52780  0.67921  0.31122  1.0000
  N   N121      1.0  0.66483  0.59942  0.20153  1.0000
  C   C1699     1.0  0.67514  0.61092  0.20890  1.0000
  C   C1700     1.0  0.67470  0.59906  0.18055  1.0000
  C   C1701     1.0  0.66707  0.57902  0.21384  1.0000
  C   C1702     1.0  0.64368  0.60929  0.20367  1.0000
  C   C1703     1.0  0.66908  0.61112  0.23091  1.0000
  C   C1704     1.0  0.67326  0.61901  0.16634  1.0000
  C   C1705     1.0  0.66523  0.56256  0.20490  1.0000
  C   C1706     1.0  0.63075  0.60161  0.19465  1.0000
  H   H2904     1.0  0.69114  0.60515  0.20581  1.0000
  H   H2905     1.0  0.67293  0.62647  0.20124  1.0000
  H   H2906     1.0  0.66914  0.58958  0.17434  1.0000
  H   H2907     1.0  0.69044  0.59245  0.17952  1.0000
  H   H2908     1.0  0.68158  0.57429  0.21797  1.0000
  H   H2909     1.0  0.65636  0.57863  0.22788  1.0000
  H   H2910     1.0  0.63657  0.60803  0.21935  1.0000
  H   H2911     1.0  0.64186  0.62534  0.19818  1.0000
  H   H2912     1.0  0.67753  0.62022  0.23431  1.0000
  H   H2913     1.0  0.65349  0.61772  0.23526  1.0000
  H   H2914     1.0  0.67246  0.59637  0.24004  1.0000
  H   H2915     1.0  0.67990  0.61669  0.15129  1.0000
  H   H2916     1.0  0.65798  0.62672  0.16638  1.0000
  H   H2917     1.0  0.68154  0.62846  0.16937  1.0000
  H   H2918     1.0  0.67812  0.55915  0.19325  1.0000
  H   H2919     1.0  0.65178  0.56572  0.19924  1.0000
  H   H2920     1.0  0.66490  0.54909  0.21641  1.0000
  H   H2921     1.0  0.62466  0.58945  0.20515  1.0000
  H   H2922     1.0  0.63809  0.59699  0.18075  1.0000
  H   H2923     1.0  0.61843  0.61355  0.19095  1.0000
  S   S501      1.0  0.71517  0.56248  0.24819  1.0000
  C   C1707     1.0  0.52099  0.69428  0.30478  1.0000
  S   S502      1.0  0.61248  0.73827  0.98162  1.0000
  H   H2924     1.0  0.70398  0.94482  0.20148  1.0000
  C   C1708     1.0  0.49877  0.64665  0.26608  1.0000
  H   H2925     1.0  0.51684  0.77978  0.31387  1.0000
  H   H2926     1.0  0.65251  0.79056  0.17926  1.0000
  N   N122      1.0  0.72049  0.96780  0.19393  1.0000
  Fe  Fe254     1.0  0.73905  0.53987  0.25960  1.0000
  H   H2927     1.0  0.63778  0.80687  0.20653  1.0000
  H   H2928     1.0  0.52314  0.73388  0.30036  1.0000
  H   H2929     1.0  0.68191  0.82383  0.18145  1.0000
  H   H2930     1.0  0.64143  0.75955  0.23019  1.0000
  C   C1709     1.0  0.67955  0.85206  0.18604  1.0000
  N   N123      1.0  0.49570  0.65585  0.19287  1.0000
  H   H2931     1.0  0.72733  0.71084  0.10117  1.0000
  H   H2932     1.0  0.60639  0.76372  0.08927  1.0000
  C   C1710     1.0  0.64327  0.76277  0.08814  1.0000
  C   C1711     1.0  0.51492  0.65568  0.17854  1.0000
  H   H2933     1.0  0.73886  0.65296  0.03670  1.0000
  H   H2934     1.0  0.68063  0.96738  0.21342  1.0000
  H   H2935     1.0  0.64060  0.68454  0.10334  1.0000
  H   H2936     1.0  0.63578  0.67174  0.99326  1.0000
  H   H2937     1.0  0.49724  0.69457  0.16953  1.0000
  H   H2938     1.0  0.72820  0.93601  0.17262  1.0000
  H   H2939     1.0  0.73100  0.89096  0.24513  1.0000
  C   C1712     1.0  0.62595  0.80593  0.30585  1.0000
  H   H2940     1.0  0.72329  0.67655  0.10968  1.0000
  H   H2941     1.0  0.64533  0.76670  0.07203  1.0000
  H   H2942     1.0  0.73459  0.54286  0.30228  1.0000
  S   S503      1.0  0.71631  0.81105  0.20867  1.0000
  H   H2943     1.0  0.66683  0.84209  0.16735  1.0000
  H   H2944     1.0  0.62603  0.75274  0.06123  1.0000
  H   H2945     1.0  0.61517  0.60533  0.25782  1.0000
  C   C1713     1.0  0.63755  0.82546  0.23417  1.0000
  S   S504      1.0  0.71978  0.56403  0.19489  1.0000
  H   H2946     1.0  0.72069  0.61409  0.22326  1.0000
  H   H2947     1.0  0.62075  0.83894  0.20082  1.0000
  H   H2948     1.0  0.61333  0.69151  0.31068  1.0000
  C   C1714     1.0  0.59648  0.72663  0.25275  1.0000
  Fe  Fe255     1.0  0.72439  0.50655  0.25321  1.0000
  H   H2949     1.0  0.50025  0.62439  0.20283  1.0000
  H   H2950     1.0  0.59574  0.62740  0.30243  1.0000
  C   C1715     1.0  0.71242  0.66272  0.01151  1.0000
  H   H2951     1.0  0.64606  0.73307  0.06329  1.0000
  S   S505      1.0  0.72992  0.95091  0.26514  1.0000
  C   C1716     1.0  0.65379  0.83219  0.21721  1.0000
  H   H2952     1.0  0.73079  0.91772  0.19401  1.0000
  H   H2953     1.0  0.63375  0.63041  0.27683  1.0000
  C   C1717     1.0  0.73215  0.64542  0.15851  1.0000
  H   H2954     1.0  0.70134  0.67301  0.01968  1.0000
  C   C1718     1.0  0.72994  0.67188  0.99951  1.0000
  H   H2955     1.0  0.54560  0.64172  0.17455  1.0000
  C   C1719     1.0  0.49666  0.65839  0.21268  1.0000
  H   H2956     1.0  0.63950  0.82850  0.24777  1.0000
  H   H2957     1.0  0.72376  0.68545  0.99012  1.0000
  H   H2958     1.0  0.61160  0.75599  0.25731  1.0000
  H   H2959     1.0  0.61574  0.73419  0.04666  1.0000
  C   C1720     1.0  0.72738  0.67393  0.17209  1.0000
  H   H2960     1.0  0.68734  0.84564  0.19823  1.0000
  H   H2961     1.0  0.64117  0.87362  0.18155  1.0000
  C   C1721     1.0  0.58775  0.74396  0.09388  1.0000
  H   H2962     1.0  0.73041  0.63399  0.20589  1.0000
  H   H2963     1.0  0.58343  0.73124  0.24597  1.0000
  H   H2964     1.0  0.62386  0.68589  0.27688  1.0000
  H   H2965     1.0  0.63026  0.71784  0.27436  1.0000
  H   H2966     1.0  0.62458  0.74195  0.20815  1.0000
  H   H2967     1.0  0.58095  0.74701  0.27234  1.0000
  C   C1722     1.0  0.62089  0.72501  0.05991  1.0000
  C   C1723     1.0  0.63262  0.72285  0.24246  1.0000
  H   H2968     1.0  0.73585  0.89678  0.28885  1.0000
  H   H2969     1.0  0.62986  0.86819  0.20731  1.0000
  H   H2970     1.0  0.59749  0.71216  0.22188  1.0000
  C   C1724     1.0  0.63972  0.72339  0.26059  1.0000
  H   H2971     1.0  0.71928  0.61889  0.19819  1.0000
  H   H2972     1.0  0.67243  0.79022  0.31391  1.0000
  S   S506      1.0  0.72912  0.84313  0.23793  1.0000
  H   H2973     1.0  0.59653  0.76476  0.24002  1.0000
  C   C1725     1.0  0.66996  0.83692  0.18229  1.0000
  H   H2974     1.0  0.71778  0.68561  0.17870  1.0000
  C   C1726     1.0  0.60571  0.61306  0.30563  1.0000
  H   H2975     1.0  0.63614  0.64712  0.00592  1.0000
  C   C1727     1.0  0.71905  0.94662  0.20025  1.0000
  C   C1728     1.0  0.63005  0.73722  0.06852  1.0000
  H   H2976     1.0  0.58334  0.59905  0.30355  1.0000
  H   H2977     1.0  0.53278  0.63671  0.19930  1.0000
  H   H2978     1.0  0.57407  0.66071  0.28503  1.0000
  H   H2979     1.0  0.58524  0.72926  0.10170  1.0000
  H   H2980     1.0  0.71673  0.64883  0.02154  1.0000
  C   C1729     1.0  0.71427  0.97592  0.17467  1.0000
  H   H2981     1.0  0.63091  0.77308  0.09497  1.0000
  H   H2982     1.0  0.65098  0.77278  0.26836  1.0000
  H   H2983     1.0  0.71040  0.97055  0.22415  1.0000
  C   C1730     1.0  0.51026  0.72840  0.31016  1.0000
  C   C1731     1.0  0.73232  0.88732  0.30333  1.0000
  H   H2984     1.0  0.59877  0.74783  0.21493  1.0000
  H   H2985     1.0  0.71869  0.68426  0.03416  1.0000
  C   C1732     1.0  0.65141  0.81099  0.19707  1.0000
  H   H2986     1.0  0.65424  0.84704  0.21832  1.0000
  C   C1733     1.0  0.71968  0.66110  0.16615  1.0000
  C   C1734     1.0  0.61805  0.79020  0.30582  1.0000
  C   C1735     1.0  0.71259  0.88246  0.30435  1.0000
  H   H2987     1.0  0.70417  0.80063  0.31117  1.0000
  C   C1736     1.0  0.73242  0.93292  0.18693  1.0000
  H   H2988     1.0  0.58768  0.74627  0.07817  1.0000
  H   H2989     1.0  0.73866  0.66235  0.98920  1.0000
  H   H2990     1.0  0.62283  0.83342  0.23205  1.0000
  N   N124      1.0  0.62531  0.73520  0.09042  1.0000
  C   C1737     1.0  0.64100  0.74142  0.09628  1.0000
  C   C1738     1.0  0.62475  0.71455  0.10138  1.0000
  C   C1739     1.0  0.60628  0.74837  0.09700  1.0000
  C   C1740     1.0  0.58881  0.73163  0.27322  1.0000
  C   C1741     1.0  0.61109  0.75595  0.24218  1.0000
  H   H2991     1.0  0.57501  0.75442  0.10000  1.0000
  Fe  Fe256     1.0  0.72016  0.54558  0.22492  1.0000
  H   H2992     1.0  0.63877  0.73897  0.11243  1.0000
  H   H2993     1.0  0.65543  0.73246  0.09149  1.0000
  C   C1742     1.0  0.73052  0.69050  0.02320  1.0000
  H   H2994     1.0  0.62128  0.71392  0.11742  1.0000
  H   H2995     1.0  0.60405  0.74830  0.11283  1.0000
  H   H2996     1.0  0.66656  0.80855  0.16674  1.0000
  H   H2997     1.0  0.64434  0.72678  0.22973  1.0000
  C   C1743     1.0  0.61182  0.73687  0.21867  1.0000
  C   C1744     1.0  0.62649  0.76738  0.22886  1.0000
  H   H2998     1.0  0.64931  0.70023  0.08106  1.0000
  C   C1745     1.0  0.62905  0.63070  0.30817  1.0000
  H   H2999     1.0  0.54903  0.70262  0.28892  1.0000
  H   H3000     1.0  0.61587  0.87367  0.18901  1.0000
  C   C1746     1.0  0.58279  0.66717  0.29064  1.0000
  S   S507      1.0  0.61747  0.75826  0.29265  1.0000
  H   H3001     1.0  0.66541  0.80030  0.26889  1.0000
  H   H3002     1.0  0.61410  0.61012  0.29124  1.0000
  C   C1747     1.0  0.62711  0.77818  0.29241  1.0000
  H   H3003     1.0  0.68808  0.59523  0.98606  1.0000
  H   H3004     1.0  0.60834  0.71920  0.06963  1.0000
  H   H3005     1.0  0.72209  0.94058  0.21511  1.0000
  C   C1748     1.0  0.73428  0.68131  0.11466  1.0000
  H   H3006     1.0  0.72619  0.63532  0.15412  1.0000
  C   C1749     1.0  0.64311  0.80949  0.29269  1.0000
  C   C1750     1.0  0.72235  0.90490  0.24786  1.0000
  H   H3007     1.0  0.65648  0.76472  0.09191  1.0000
  C   C1751     1.0  0.49331  0.73407  0.29920  1.0000
  C   C1752     1.0  0.64222  0.62921  0.28798  1.0000
  Fe  Fe257     1.0  0.72410  0.82925  0.26989  1.0000
  C   C1753     1.0  0.74060  0.69917  0.09976  1.0000
  H   H3008     1.0  0.67682  0.62812  0.99556  1.0000
  H   H3009     1.0  0.49557  0.74675  0.28708  1.0000
  H   H3010     1.0  0.72062  0.92465  0.30273  1.0000
  H   H3011     1.0  0.52419  0.66390  0.21554  1.0000
  H   H3012     1.0  0.71436  0.87495  0.29227  1.0000
  H   H3013     1.0  0.73756  0.59326  0.16643  1.0000
  H   H3014     1.0  0.52878  0.71446  0.27689  1.0000
  H   H3015     1.0  0.69981  0.97296  0.17512  1.0000
  H   H3016     1.0  0.50320  0.67911  0.22603  1.0000
  H   H3017     1.0  0.63958  0.58983  0.30685  1.0000
  H   H3018     1.0  0.50800  0.69240  0.30046  1.0000
  H   H3019     1.0  0.51133  0.68423  0.20030  1.0000
  H   H3020     1.0  0.72418  0.96828  0.16325  1.0000
  C   C1754     1.0  0.72866  0.61876  0.20817  1.0000
  H   H3021     1.0  0.50241  0.64407  0.22154  1.0000
  H   H3022     1.0  0.65807  0.65731  0.99907  1.0000
  C   C1755     1.0  0.60474  0.68479  0.30513  1.0000
  H   H3023     1.0  0.73908  0.73037  0.07114  1.0000
  C   C1756     1.0  0.64891  0.61554  0.98778  1.0000
  H   H3024     1.0  0.61975  0.63193  0.98176  1.0000
  H   H3025     1.0  0.65659  0.60051  0.98612  1.0000
  C   C1757     1.0  0.62787  0.61692  0.98590  1.0000
  H   H3026     1.0  0.60188  0.58250  0.31471  1.0000
  H   H3027     1.0  0.70710  0.60803  0.98248  1.0000
  Fe  Fe258     1.0  0.72915  0.78129  0.58006  1.0000
  S   S508      1.0  0.70444  0.76769  0.59926  1.0000
  N   N125      1.0  0.51537  0.70720  0.31955  1.0000
  C   C1758     1.0  0.68323  0.80601  0.33815  1.0000
  C   C1759     1.0  0.72871  0.71733  0.49678  1.0000
  H   H3028     1.0  0.54490  0.70965  0.31819  1.0000
  Fe  Fe259     1.0  0.72676  0.74978  0.61665  1.0000
  S   S509      1.0  0.72412  0.77660  0.44699  1.0000
  H   H3029     1.0  0.73248  0.61195  0.41202  1.0000
  H   H3030     1.0  0.72483  0.57184  0.43430  1.0000
  S   S510      1.0  0.72446  0.80471  0.59699  1.0000
  Fe  Fe260     1.0  0.69535  0.77093  0.46507  1.0000
  C   C1760     1.0  0.49463  0.77122  0.33851  1.0000
  S   S511      1.0  0.69057  0.76095  0.49794  1.0000
  Fe  Fe261     1.0  0.67690  0.77873  0.42950  1.0000
  S   S512      1.0  0.70425  0.78503  0.40846  1.0000
  S   S513      1.0  0.64955  0.78349  0.41776  1.0000
  Fe  Fe262     1.0  0.71956  0.75944  0.42740  1.0000
  Fe  Fe263     1.0  0.70130  0.78963  0.61743  1.0000
  Fe  Fe264     1.0  0.70656  0.80182  0.42951  1.0000
  S   S514      1.0  0.71454  0.83120  0.41709  1.0000
  S   S515      1.0  0.69202  0.75140  0.44684  1.0000
  S   S516      1.0  0.67790  0.79776  0.44928  1.0000
  Fe  Fe265     1.0  0.57109  0.74460  0.35838  1.0000
  S   S517      1.0  0.58468  0.71527  0.37367  1.0000
  H   H3031     1.0  0.65639  0.77865  0.62447  1.0000
  S   S518      1.0  0.61990  0.71506  0.33516  1.0000
  H   H3032     1.0  0.70380  0.91382  0.32197  1.0000
  Fe  Fe266     1.0  0.59051  0.70713  0.34464  1.0000
  S   S519      1.0  0.58182  0.68053  0.34167  1.0000
  Fe  Fe267     1.0  0.61271  0.72618  0.36292  1.0000
  S   S520      1.0  0.63614  0.71885  0.38062  1.0000
  S   S521      1.0  0.57510  0.73573  0.32994  1.0000
  S   S522      1.0  0.59860  0.75645  0.35012  1.0000
  H   H3033     1.0  0.69660  0.75025  0.37301  1.0000
  H   H3034     1.0  0.53818  0.68852  0.33418  1.0000
  H   H3035     1.0  0.51179  0.67836  0.35559  1.0000
  H   H3036     1.0  0.65880  0.85700  0.55224  1.0000
  H   H3037     1.0  0.69501  0.80104  0.56770  1.0000
  H   H3038     1.0  0.68543  0.83730  0.50527  1.0000
  H   H3039     1.0  0.67736  0.81120  0.58579  1.0000
  C   C1761     1.0  0.73676  0.59601  0.41244  1.0000
  H   H3040     1.0  0.67303  0.81682  0.53412  1.0000
  H   H3041     1.0  0.69799  0.81473  0.53382  1.0000
  C   C1762     1.0  0.66626  0.79653  0.57000  1.0000
  H   H3042     1.0  0.62909  0.61956  0.35221  1.0000
  H   H3043     1.0  0.67766  0.85806  0.57888  1.0000
  C   C1763     1.0  0.64610  0.76528  0.40764  1.0000
  C   C1764     1.0  0.63185  0.76993  0.39636  1.0000
  C   C1765     1.0  0.62911  0.75592  0.38755  1.0000
  C   C1766     1.0  0.64011  0.73699  0.39053  1.0000
  C   C1767     1.0  0.65440  0.73235  0.40178  1.0000
  C   C1768     1.0  0.65753  0.74650  0.41018  1.0000
  H   H3044     1.0  0.62319  0.78452  0.39409  1.0000
  H   H3045     1.0  0.61853  0.75972  0.37844  1.0000
  H   H3046     1.0  0.66305  0.71773  0.40404  1.0000
  H   H3047     1.0  0.66861  0.74282  0.41878  1.0000
  H   H3048     1.0  0.59640  0.73371  0.40017  1.0000
  H   H3049     1.0  0.71703  0.92228  0.34687  1.0000
  H   H3050     1.0  0.70881  0.58703  0.41939  1.0000
  C   C1769     1.0  0.73877  0.86285  0.34183  1.0000
  C   C1770     1.0  0.69712  0.76396  0.36184  1.0000
  C   C1771     1.0  0.53247  0.70427  0.32899  1.0000
  H   H3051     1.0  0.65109  0.80450  0.57007  1.0000
  S   S523      1.0  0.73514  0.78933  0.54706  1.0000
  C   C1772     1.0  0.64890  0.78318  0.63804  1.0000
  C   C1773     1.0  0.72338  0.78052  0.53355  1.0000
  C   C1774     1.0  0.71090  0.76750  0.54263  1.0000
  C   C1775     1.0  0.70092  0.76163  0.53154  1.0000
  C   C1776     1.0  0.70331  0.76874  0.51132  1.0000
  C   C1777     1.0  0.71586  0.78170  0.50223  1.0000
  H   H3052     1.0  0.54251  0.77214  0.33317  1.0000
  H   H3053     1.0  0.70887  0.76199  0.55819  1.0000
  H   H3054     1.0  0.69126  0.75155  0.53864  1.0000
  H   H3055     1.0  0.71773  0.78737  0.48669  1.0000
  C   C1778     1.0  0.72790  0.88434  0.33906  1.0000
  H   H3056     1.0  0.51737  0.70927  0.35864  1.0000
  H   H3057     1.0  0.50138  0.75468  0.38522  1.0000
  H   H3058     1.0  0.60247  0.60393  0.34723  1.0000
  H   H3059     1.0  0.66208  0.58156  0.32625  1.0000
  C   C1779     1.0  0.68424  0.84230  0.51892  1.0000
  S   S524      1.0  0.54175  0.75781  0.37429  1.0000
  H   H3060     1.0  0.66604  0.78457  0.58312  1.0000
  C   C1780     1.0  0.52804  0.76973  0.34030  1.0000
  C   C1781     1.0  0.72592  0.78749  0.51331  1.0000
  H   H3061     1.0  0.66494  0.73080  0.63549  1.0000
  C   C1782     1.0  0.61445  0.62726  0.34978  1.0000
  H   H3062     1.0  0.73405  0.85544  0.35716  1.0000
  H   H3063     1.0  0.62518  0.58283  0.32959  1.0000
  C   C1783     1.0  0.72011  0.92931  0.33122  1.0000
  H   H3064     1.0  0.70636  0.77213  0.36536  1.0000
  H   H3065     1.0  0.65019  0.82695  0.35540  1.0000
  H   H3066     1.0  0.73388  0.81463  0.37319  1.0000
  C   C1784     1.0  0.67988  0.80961  0.57051  1.0000
  H   H3067     1.0  0.66619  0.76571  0.36804  1.0000
  C   C1785     1.0  0.60631  0.61768  0.33766  1.0000
  H   H3068     1.0  0.70821  0.82988  0.55532  1.0000
  H   H3069     1.0  0.65585  0.83659  0.59195  1.0000
  C   C1786     1.0  0.50480  0.76002  0.36963  1.0000
  H   H3070     1.0  0.73526  0.85473  0.33253  1.0000
  H   H3071     1.0  0.73072  0.89039  0.35052  1.0000
  N   N126      1.0  0.67834  0.82897  0.55639  1.0000
  C   C1787     1.0  0.50069  0.68100  0.34667  1.0000
  H   H3072     1.0  0.69398  0.85278  0.54647  1.0000
  H   H3073     1.0  0.67169  0.78950  0.55716  1.0000
  H   H3074     1.0  0.62909  0.76340  0.64563  1.0000
  S   S525      1.0  0.72121  0.77032  0.63688  1.0000
  H   H3075     1.0  0.64582  0.80710  0.33410  1.0000
  C   C1788     1.0  0.52883  0.71433  0.34636  1.0000
  N   N127      1.0  0.57350  0.76311  0.42364  1.0000
  C   C1789     1.0  0.57939  0.77912  0.42939  1.0000
  C   C1790     1.0  0.57303  0.76948  0.40221  1.0000
  C   C1791     1.0  0.58872  0.74475  0.42729  1.0000
  C   C1792     1.0  0.55386  0.76044  0.43608  1.0000
  C   C1793     1.0  0.58399  0.77445  0.44997  1.0000
  C   C1794     1.0  0.55756  0.78767  0.39659  1.0000
  C   C1795     1.0  0.59057  0.72885  0.41591  1.0000
  C   C1796     1.0  0.54381  0.74639  0.43119  1.0000
  H   H3076     1.0  0.59258  0.78338  0.41895  1.0000
  H   H3077     1.0  0.56783  0.79255  0.42877  1.0000
  H   H3078     1.0  0.57059  0.75790  0.39619  1.0000
  H   H3079     1.0  0.58741  0.77247  0.39365  1.0000
  H   H3080     1.0  0.60350  0.74825  0.42363  1.0000
  H   H3081     1.0  0.58637  0.73772  0.44305  1.0000
  H   H3082     1.0  0.55491  0.75481  0.45163  1.0000
  H   H3083     1.0  0.54343  0.77464  0.43630  1.0000
  H   H3084     1.0  0.57140  0.77097  0.46165  1.0000
  H   H3085     1.0  0.59690  0.76253  0.45150  1.0000
  H   H3086     1.0  0.58768  0.78751  0.45242  1.0000
  H   H3087     1.0  0.55853  0.79054  0.38057  1.0000
  H   H3088     1.0  0.54259  0.78536  0.40352  1.0000
  H   H3089     1.0  0.55993  0.80093  0.39983  1.0000
  H   H3090     1.0  0.57682  0.72400  0.41786  1.0000
  H   H3091     1.0  0.60133  0.71585  0.42106  1.0000
  H   H3092     1.0  0.54770  0.73137  0.43963  1.0000
  H   H3093     1.0  0.54687  0.74603  0.41554  1.0000
  H   H3094     1.0  0.52777  0.75138  0.43498  1.0000
  H   H3095     1.0  0.62799  0.81837  0.36426  1.0000
  C   C1797     1.0  0.52369  0.76284  0.36046  1.0000
  H   H3096     1.0  0.64141  0.78776  0.35429  1.0000
  H   H3097     1.0  0.64772  0.80710  0.37632  1.0000
  H   H3098     1.0  0.73429  0.93391  0.32746  1.0000
  H   H3099     1.0  0.73546  0.79768  0.50620  1.0000
  H   H3100     1.0  0.66623  0.75188  0.34357  1.0000
  H   H3101     1.0  0.70337  0.85193  0.57676  1.0000
  C   C1798     1.0  0.63302  0.59463  0.32093  1.0000
  C   C1799     1.0  0.68354  0.82463  0.53613  1.0000
  H   H3102     1.0  0.67353  0.78402  0.37437  1.0000
  S   S526      1.0  0.67332  0.80913  0.62864  1.0000
  C   C1800     1.0  0.64690  0.84126  0.58071  1.0000
  C   C1801     1.0  0.69051  0.84605  0.57712  1.0000
  C   C1802     1.0  0.65821  0.84155  0.55937  1.0000
  H   H3103     1.0  0.69737  0.84845  0.51671  1.0000
  H   H3104     1.0  0.50570  0.73756  0.32136  1.0000
  N   N128      1.0  0.73323  0.89687  0.31917  1.0000
  C   C1803     1.0  0.69340  0.83929  0.55788  1.0000
  C   C1804     1.0  0.64406  0.81361  0.36181  1.0000
  H   H3105     1.0  0.71350  0.78882  0.33304  1.0000
  H   H3106     1.0  0.73641  0.59488  0.39747  1.0000
  H   H3107     1.0  0.74011  0.75034  0.48191  1.0000
  H   H3108     1.0  0.64880  0.83709  0.55197  1.0000
  H   H3109     1.0  0.73608  0.85961  0.39184  1.0000
  H   H3110     1.0  0.67095  0.85382  0.52046  1.0000
  H   H3111     1.0  0.63574  0.83212  0.58454  1.0000
  H   H3112     1.0  0.58339  0.59917  0.32812  1.0000
  H   H3113     1.0  0.68946  0.83409  0.59009  1.0000
  N   N129      1.0  0.67188  0.78985  0.34394  1.0000
  H   H3114     1.0  0.71204  0.88431  0.34296  1.0000
  H   H3115     1.0  0.63867  0.85620  0.58200  1.0000
  C   C1805     1.0  0.73928  0.82938  0.40609  1.0000
  C   C1806     1.0  0.67631  0.77602  0.36240  1.0000
  C   C1807     1.0  0.65048  0.79904  0.34793  1.0000
  H   H3116     1.0  0.50450  0.66991  0.33749  1.0000
  N   N130      1.0  0.61896  0.61391  0.31832  1.0000
  H   H3117     1.0  0.52531  0.73038  0.34192  1.0000
  H   H3118     1.0  0.65573  0.60619  0.32777  1.0000
  H   H3119     1.0  0.68402  0.81088  0.35129  1.0000
  H   H3120     1.0  0.70884  0.94284  0.32916  1.0000
  H   H3121     1.0  0.55135  0.83178  0.63343  1.0000
  C   C1808     1.0  0.51349  0.77411  0.32940  1.0000
  H   H3122     1.0  0.61879  0.81527  0.31618  1.0000
  H   H3123     1.0  0.54239  0.71072  0.35211  1.0000
  S   S527      1.0  0.73057  0.71732  0.62606  1.0000
  C   C1809     1.0  0.67554  0.77949  0.32732  1.0000
  H   H3124     1.0  0.71102  0.81443  0.32446  1.0000
  C   C1810     1.0  0.72013  0.58716  0.42717  1.0000
  C   C1811     1.0  0.64963  0.59292  0.33133  1.0000
  H   H3125     1.0  0.49217  0.71220  0.34452  1.0000
  C   C1812     1.0  0.49777  0.70188  0.33436  1.0000
  H   H3126     1.0  0.70402  0.75914  0.34795  1.0000
  H   H3127     1.0  0.56473  0.66427  0.31949  1.0000
  H   H3128     1.0  0.72723  0.79667  0.36475  1.0000
  H   H3129     1.0  0.72214  0.72439  0.50950  1.0000
  C   C1813     1.0  0.66371  0.76353  0.33064  1.0000
  H   H3130     1.0  0.64792  0.76961  0.33182  1.0000
  Fe  Fe268     1.0  0.60395  0.74461  0.32295  1.0000
  H   H3131     1.0  0.71342  0.59584  0.43870  1.0000
  H   H3132     1.0  0.63819  0.63327  0.31702  1.0000
  H   H3133     1.0  0.59217  0.62761  0.33549  1.0000
  H   H3134     1.0  0.60460  0.62721  0.36433  1.0000
  H   H3135     1.0  0.61465  0.64281  0.34293  1.0000
  H   H3136     1.0  0.64491  0.58856  0.34738  1.0000
  H   H3137     1.0  0.69103  0.77257  0.32322  1.0000
  H   H3138     1.0  0.67865  0.74710  0.63760  1.0000
  H   H3139     1.0  0.72415  0.72709  0.48351  1.0000
  H   H3140     1.0  0.73250  0.81316  0.64068  1.0000
  H   H3141     1.0  0.73516  0.54382  0.33627  1.0000
  C   C1814     1.0  0.65440  0.79783  0.64355  1.0000
  H   H3142     1.0  0.67563  0.81904  0.32893  1.0000
  H   H3143     1.0  0.72244  0.70416  0.49944  1.0000
  H   H3144     1.0  0.74026  0.76316  0.37486  1.0000
  C   C1815     1.0  0.70415  0.80186  0.32614  1.0000
  C   C1816     1.0  0.73920  0.80427  0.36309  1.0000
  H   H3145     1.0  0.68882  0.72134  0.64010  1.0000
  H   H3146     1.0  0.60474  0.78759  0.31597  1.0000
  C   C1817     1.0  0.67543  0.73235  0.64352  1.0000
  C   C1818     1.0  0.71903  0.91612  0.31797  1.0000
  H   H3147     1.0  0.70764  0.87249  0.31812  1.0000
  H   H3148     1.0  0.66834  0.75652  0.31776  1.0000
  C   C1819     1.0  0.58834  0.67826  0.31730  1.0000
  C   C1820     1.0  0.53797  0.83473  0.64470  1.0000
  H   H3149     1.0  0.52523  0.83937  0.63755  1.0000
  H   H3150     1.0  0.56217  0.77148  0.68308  1.0000
  H   H3151     1.0  0.62932  0.76264  0.88077  1.0000
  C   C1821     1.0  0.73064  0.83188  0.78454  1.0000
  Fe  Fe269     1.0  0.59468  0.77657  0.71260  1.0000
  S   S528      1.0  0.58304  0.80698  0.71785  1.0000
  S   S529      1.0  0.60555  0.76838  0.68308  1.0000
  Fe  Fe270     1.0  0.58816  0.75863  0.75616  1.0000
  S   S530      1.0  0.57602  0.78757  0.76494  1.0000
  S   S531      1.0  0.59384  0.72937  0.77610  1.0000
  Fe  Fe271     1.0  0.55966  0.79374  0.74065  1.0000
  S   S532      1.0  0.52781  0.80856  0.74368  1.0000
  Fe  Fe272     1.0  0.60041  0.79782  0.74150  1.0000
  S   S533      1.0  0.62441  0.81127  0.74395  1.0000
  S   S534      1.0  0.57024  0.76400  0.73361  1.0000
  S   S535      1.0  0.61360  0.76829  0.73443  1.0000
  Fe  Fe273     1.0  0.67473  0.87435  0.82602  1.0000
  S   S536      1.0  0.68795  0.84534  0.84260  1.0000
  S   S537      1.0  0.68954  0.89986  0.82094  1.0000
  Fe  Fe274     1.0  0.64345  0.85779  0.81794  1.0000
  S   S538      1.0  0.65402  0.82784  0.83409  1.0000
  S   S539      1.0  0.61653  0.86232  0.80584  1.0000
  Fe  Fe275     1.0  0.65713  0.84260  0.85644  1.0000
  S   S540      1.0  0.64462  0.83253  0.88834  1.0000
  Fe  Fe276     1.0  0.68374  0.83330  0.81870  1.0000
  S   S541      1.0  0.70466  0.80853  0.80657  1.0000
  S   S542      1.0  0.64405  0.87252  0.84161  1.0000
  S   S543      1.0  0.67304  0.86231  0.80074  1.0000
  Fe  Fe277     1.0  0.56364  0.66391  0.90254  1.0000
  S   S544      1.0  0.58155  0.67127  0.87258  1.0000
  S   S545      1.0  0.53426  0.65567  0.90915  1.0000
  Fe  Fe278     1.0  0.59293  0.67176  0.92197  1.0000
  S   S546      1.0  0.61314  0.67997  0.89357  1.0000
  S   S547      1.0  0.60194  0.66892  0.95016  1.0000
  Fe  Fe279     1.0  0.58592  0.69624  0.88298  1.0000
  S   S548      1.0  0.58271  0.72706  0.86586  1.0000
  Fe  Fe280     1.0  0.60707  0.65424  0.88606  1.0000
  S   S549      1.0  0.63125  0.63421  0.87002  1.0000
  S   S550      1.0  0.56605  0.69025  0.91216  1.0000
  S   S551      1.0  0.58876  0.64470  0.91530  1.0000
  S   S552      1.0  0.66618  0.73405  0.95384  1.0000
  H   H3152     1.0  0.64338  0.74733  0.82152  1.0000
  H   H3153     1.0  0.53813  0.84744  0.65039  1.0000
  S   S553      1.0  0.69550  0.77320  0.94553  1.0000
  Fe  Fe281     1.0  0.71466  0.53286  0.86082  1.0000
  Fe  Fe282     1.0  0.69121  0.53506  0.90130  1.0000
  H   H3154     1.0  0.71994  0.64239  0.95810  1.0000
  S   S554      1.0  0.66547  0.55256  0.91863  1.0000
  H   H3155     1.0  0.61884  0.71799  0.90632  1.0000
  H   H3156     1.0  0.66953  0.70903  0.70161  1.0000
  S   S555      1.0  0.71402  0.55097  0.88185  1.0000
  S   S556      1.0  0.68996  0.51869  0.87920  1.0000
  C   C1822     1.0  0.66841  0.72505  0.69937  1.0000
  C   C1823     1.0  0.73014  0.81195  0.73974  1.0000
  N   N131      1.0  0.66006  0.63022  0.97386  1.0000
  H   H3157     1.0  0.67705  0.77802  0.68803  1.0000
  C   C1824     1.0  0.57751  0.82561  0.66341  1.0000
  H   H3158     1.0  0.67484  0.73631  0.90487  1.0000
  H   H3159     1.0  0.71248  0.88274  0.86823  1.0000
  C   C1825     1.0  0.52328  0.65294  0.89114  1.0000
  C   C1826     1.0  0.53415  0.64982  0.87286  1.0000
  C   C1827     1.0  0.52490  0.64724  0.85908  1.0000
  H   H3160     1.0  0.53905  0.75122  0.82975  1.0000
  H   H3161     1.0  0.66452  0.71345  0.66996  1.0000
  H   H3162     1.0  0.53696  0.71973  0.81410  1.0000
  H   H3163     1.0  0.54965  0.64924  0.86940  1.0000
  H   H3164     1.0  0.53335  0.64474  0.84498  1.0000
  C   C1828     1.0  0.64154  0.61212  0.88392  1.0000
  C   C1829     1.0  0.65499  0.59824  0.87430  1.0000
  C   C1830     1.0  0.66252  0.57999  0.88489  1.0000
  C   C1831     1.0  0.65661  0.57553  0.90518  1.0000
  C   C1832     1.0  0.64344  0.58954  0.91487  1.0000
  C   C1833     1.0  0.63598  0.60785  0.90427  1.0000
  H   H3165     1.0  0.65936  0.60146  0.85856  1.0000
  H   H3166     1.0  0.67258  0.56923  0.87729  1.0000
  H   H3167     1.0  0.63891  0.58617  0.93058  1.0000
  H   H3168     1.0  0.62584  0.61853  0.91184  1.0000
  C   C1834     1.0  0.58801  0.70255  0.96451  1.0000
  H   H3169     1.0  0.49401  0.69336  0.78394  1.0000
  C   C1835     1.0  0.69583  0.83866  0.91815  1.0000
  C   C1836     1.0  0.64431  0.80401  0.66089  1.0000
  C   C1837     1.0  0.53847  0.83010  0.68793  1.0000
  S   S557      1.0  0.66518  0.96226  0.87501  1.0000
  H   H3170     1.0  0.56080  0.68385  0.83743  1.0000
  C   C1838     1.0  0.65897  0.81507  0.90343  1.0000
  C   C1839     1.0  0.65007  0.80745  0.92249  1.0000
  C   C1840     1.0  0.66111  0.79394  0.93520  1.0000
  C   C1841     1.0  0.68123  0.78846  0.92910  1.0000
  C   C1842     1.0  0.69014  0.79597  0.90997  1.0000
  C   C1843     1.0  0.67899  0.80906  0.89704  1.0000
  H   H3171     1.0  0.63458  0.81208  0.92750  1.0000
  H   H3172     1.0  0.65415  0.78826  0.94995  1.0000
  H   H3173     1.0  0.70572  0.79170  0.90518  1.0000
  H   H3174     1.0  0.68596  0.81477  0.88232  1.0000
  C   C1844     1.0  0.59113  0.72920  0.80088  1.0000
  C   C1845     1.0  0.58197  0.74585  0.80856  1.0000
  C   C1846     1.0  0.57974  0.74524  0.82851  1.0000
  C   C1847     1.0  0.58647  0.72791  0.84084  1.0000
  C   C1848     1.0  0.59582  0.71132  0.83314  1.0000
  C   C1849     1.0  0.59810  0.71195  0.81320  1.0000
  H   H3175     1.0  0.57625  0.75908  0.79924  1.0000
  H   H3176     1.0  0.57246  0.75810  0.83444  1.0000
  H   H3177     1.0  0.60152  0.69803  0.84248  1.0000
  H   H3178     1.0  0.60529  0.69905  0.80731  1.0000
  H   H3179     1.0  0.73171  0.57305  0.89763  1.0000
  H   H3180     1.0  0.50989  0.73982  0.83018  1.0000
  H   H3181     1.0  0.54801  0.71144  0.86191  1.0000
  C   C1850     1.0  0.51517  0.77829  0.73686  1.0000
  H   H3182     1.0  0.71685  0.63280  0.90411  1.0000
  H   H3183     1.0  0.52968  0.76990  0.73705  1.0000
  H   H3184     1.0  0.65483  0.87245  0.92332  1.0000
  C   C1851     1.0  0.62150  0.82625  0.76062  1.0000
  C   C1852     1.0  0.63824  0.82928  0.76467  1.0000
  C   C1853     1.0  0.63684  0.84025  0.77858  1.0000
  C   C1854     1.0  0.61858  0.84870  0.78818  1.0000
  C   C1855     1.0  0.60175  0.84606  0.78382  1.0000
  C   C1856     1.0  0.60318  0.83466  0.77021  1.0000
  H   H3185     1.0  0.65232  0.82289  0.75717  1.0000
  H   H3186     1.0  0.64987  0.84228  0.78179  1.0000
  H   H3187     1.0  0.58758  0.85265  0.79118  1.0000
  H   H3188     1.0  0.59017  0.83247  0.76709  1.0000
  H   H3189     1.0  0.54390  0.68281  0.82322  1.0000
  H   H3190     1.0  0.71517  0.83255  0.70442  1.0000
  S   S558      1.0  0.69934  0.72232  0.98073  1.0000
  H   H3191     1.0  0.71686  0.59282  0.93152  1.0000
  H   H3192     1.0  0.52264  0.79762  0.69651  1.0000
  H   H3193     1.0  0.71876  0.84425  0.78606  1.0000
  H   H3194     1.0  0.64705  0.97318  0.83994  1.0000
  H   H3195     1.0  0.53043  0.70958  0.89308  1.0000
  C   C1857     1.0  0.62920  0.79510  0.67308  1.0000
  C   C1858     1.0  0.62377  0.78036  0.66765  1.0000
  H   H3196     1.0  0.73682  0.62661  0.88540  1.0000
  H   H3197     1.0  0.69882  0.60699  0.96181  1.0000
  H   H3198     1.0  0.57338  0.79982  0.68432  1.0000
  H   H3199     1.0  0.62185  0.79959  0.68670  1.0000
  C   C1859     1.0  0.66049  0.96564  0.80463  1.0000
  C   C1860     1.0  0.67201  0.94507  0.85981  1.0000
  C   C1861     1.0  0.65931  0.93283  0.86102  1.0000
  C   C1862     1.0  0.66454  0.91876  0.84931  1.0000
  C   C1863     1.0  0.68251  0.91690  0.83628  1.0000
  C   C1864     1.0  0.69506  0.92933  0.83489  1.0000
  C   C1865     1.0  0.68986  0.94334  0.84663  1.0000
  H   H3200     1.0  0.64541  0.93422  0.87111  1.0000
  H   H3201     1.0  0.65465  0.90945  0.85025  1.0000
  H   H3202     1.0  0.70893  0.92802  0.82476  1.0000
  H   H3203     1.0  0.65491  0.76176  0.78876  1.0000
  C   C1866     1.0  0.72805  0.65382  0.95489  1.0000
  H   H3204     1.0  0.72165  0.70308  0.94797  1.0000
  C   C1867     1.0  0.69324  0.86096  0.91512  1.0000
  H   H3205     1.0  0.70806  0.86434  0.91122  1.0000
  H   H3206     1.0  0.51343  0.84949  0.70134  1.0000
  C   C1868     1.0  0.68484  0.76277  0.68752  1.0000
  H   H3207     1.0  0.60843  0.95636  0.80413  1.0000
  H   H3208     1.0  0.63486  0.77449  0.92480  1.0000
  H   H3209     1.0  0.62734  0.95741  0.82883  1.0000
  H   H3210     1.0  0.66320  0.75834  0.91301  1.0000
  C   C1869     1.0  0.72902  0.62066  0.90025  1.0000
  N   N132      1.0  0.67755  0.73300  0.67860  1.0000
  C   C1870     1.0  0.52838  0.74894  0.84372  1.0000
  H   H3211     1.0  0.59735  0.78754  0.92352  1.0000
  H   H3212     1.0  0.54029  0.68973  0.86502  1.0000
  H   H3213     1.0  0.59372  0.75495  0.91969  1.0000
  C   C1871     1.0  0.63009  0.75959  0.77944  1.0000
  C   C1872     1.0  0.50315  0.65369  0.89544  1.0000
  C   C1873     1.0  0.62551  0.96956  0.81598  1.0000
  H   H3214     1.0  0.69174  0.96170  0.79361  1.0000
  C   C1874     1.0  0.67918  0.62747  0.97993  1.0000
  H   H3215     1.0  0.63887  0.75745  0.76487  1.0000
  H   H3216     1.0  0.50284  0.73677  0.85564  1.0000
  H   H3217     1.0  0.60685  0.77518  0.89228  1.0000
  C   C1875     1.0  0.63077  0.78856  0.88920  1.0000
  C   C1876     1.0  0.62280  0.96074  0.79980  1.0000
  H   H3218     1.0  0.63541  0.68481  0.94634  1.0000
  H   H3219     1.0  0.51440  0.69574  0.89026  1.0000
  C   C1877     1.0  0.66453  0.62698  0.95323  1.0000
  H   H3220     1.0  0.54424  0.84306  0.67904  1.0000
  C   C1878     1.0  0.64101  0.78872  0.81193  1.0000
  H   H3221     1.0  0.66223  0.76593  0.82665  1.0000
  H   H3222     1.0  0.69744  0.61067  0.92393  1.0000
  H   H3223     1.0  0.61138  0.97893  0.82085  1.0000
  C   C1879     1.0  0.53876  0.79566  0.69241  1.0000
  H   H3224     1.0  0.49467  0.65603  0.90959  1.0000
  H   H3225     1.0  0.49083  0.70447  0.87242  1.0000
  H   H3226     1.0  0.59335  0.72693  0.90915  1.0000
  C   C1880     1.0  0.55342  0.69167  0.82519  1.0000
  H   H3227     1.0  0.73614  0.61242  0.92977  1.0000
  C   C1881     1.0  0.66191  0.77899  0.81470  1.0000
  H   H3228     1.0  0.60815  0.73535  0.93312  1.0000
  H   H3229     1.0  0.70562  0.70629  0.70187  1.0000
  Fe  Fe283     1.0  0.71337  0.49584  0.89185  1.0000
  C   C1882     1.0  0.68839  0.86691  0.88110  1.0000
  C   C1883     1.0  0.62284  0.69381  0.95362  1.0000
  H   H3230     1.0  0.71999  0.85772  0.88058  1.0000
  C   C1884     1.0  0.62891  0.75736  0.82230  1.0000
  H   H3231     1.0  0.62428  0.77112  0.84773  1.0000
  H   H3232     1.0  0.54448  0.82648  0.70143  1.0000
  H   H3233     1.0  0.72460  0.83694  0.66232  1.0000
  H   H3234     1.0  0.70346  0.83318  0.90466  1.0000
  C   C1885     1.0  0.53471  0.70570  0.86339  1.0000
  H   H3235     1.0  0.66851  0.61111  0.95312  1.0000
  C   C1886     1.0  0.72904  0.68799  0.94938  1.0000
  H   H3236     1.0  0.72940  0.84895  0.71936  1.0000
  S   S559      1.0  0.71257  0.51101  0.91572  1.0000
  C   C1887     1.0  0.60948  0.78727  0.80541  1.0000
  C   C1888     1.0  0.62244  0.76994  0.89332  1.0000
  C   C1889     1.0  0.60760  0.73158  0.90480  1.0000
  H   H3237     1.0  0.64417  0.72971  0.92352  1.0000
  C   C1890     1.0  0.64339  0.74084  0.90976  1.0000
  H   H3238     1.0  0.62999  0.79665  0.87409  1.0000
  C   C1891     1.0  0.66048  0.87015  0.90810  1.0000
  H   H3239     1.0  0.69088  0.63565  0.89110  1.0000
  C   C1892     1.0  0.70984  0.86770  0.87157  1.0000
  H   H3240     1.0  0.66460  0.75638  0.88811  1.0000
  H   H3241     1.0  0.73327  0.98111  0.80666  1.0000
  H   H3242     1.0  0.64422  0.73267  0.89841  1.0000
  H   H3243     1.0  0.60612  0.78770  0.94454  1.0000
  Fe  Fe284     1.0  0.68114  0.74972  0.96661  1.0000
  N   N133      1.0  0.64218  0.98015  0.81054  1.0000
  N   N134      1.0  0.62457  0.75563  0.91225  1.0000
  H   H3244     1.0  0.73365  0.81242  0.75365  1.0000
  C   C1893     1.0  0.63340  0.77466  0.64996  1.0000
  C   C1894     1.0  0.64961  0.65093  0.97450  1.0000
  Fe  Fe285     1.0  0.68210  0.70688  0.97023  1.0000
  H   H3245     1.0  0.65316  0.63067  0.92717  1.0000
  C   C1895     1.0  0.60806  0.74470  0.91840  1.0000
  N   N135      1.0  0.68113  0.87302  0.90050  1.0000
  H   H3246     1.0  0.67618  0.72671  0.70998  1.0000
  H   H3247     1.0  0.68368  0.97344  0.81378  1.0000
  H   H3248     1.0  0.63441  0.63189  0.94837  1.0000
  H   H3249     1.0  0.72323  0.84802  0.74487  1.0000
  C   C1896     1.0  0.69386  0.60825  0.97731  1.0000
  C   C1897     1.0  0.60402  0.77815  0.93574  1.0000
  C   C1898     1.0  0.62379  0.76533  0.92864  1.0000
  S   S560      1.0  0.69292  0.67886  0.95933  1.0000
  H   H3250     1.0  0.67739  0.63329  0.94451  1.0000
  H   H3251     1.0  0.73649  0.95968  0.82506  1.0000
  C   C1899     1.0  0.49105  0.80763  0.74069  1.0000
  Fe  Fe286     1.0  0.73535  0.52568  0.89423  1.0000
  H   H3252     1.0  0.57154  0.79890  0.66069  1.0000
  H   H3253     1.0  0.50897  0.82589  0.70406  1.0000
  H   H3254     1.0  0.54382  0.79392  0.70616  1.0000
  H   H3255     1.0  0.50659  0.72535  0.76480  1.0000
  C   C1900     1.0  0.73951  0.82960  0.65813  1.0000
  H   H3256     1.0  0.54060  0.76439  0.69826  1.0000
  H   H3257     1.0  0.67412  0.91934  0.91112  1.0000
  H   H3258     1.0  0.51815  0.68570  0.84950  1.0000
  H   H3259     1.0  0.68183  0.83369  0.92398  1.0000
  C   C1901     1.0  0.72771  0.81303  0.79379  1.0000
  H   H3260     1.0  0.68680  0.63955  0.97164  1.0000
  H   H3261     1.0  0.70518  0.56710  0.92933  1.0000
  C   C1902     1.0  0.52143  0.70845  0.88326  1.0000
  H   H3262     1.0  0.63568  0.65438  0.96960  1.0000
  H   H3263     1.0  0.60435  0.76070  0.84707  1.0000
  C   C1903     1.0  0.69743  0.58123  0.92205  1.0000
  H   H3264     1.0  0.54043  0.77545  0.67336  1.0000
  C   C1904     1.0  0.64023  0.77092  0.78794  1.0000
  H   H3265     1.0  0.68324  0.76015  0.65946  1.0000
  C   C1905     1.0  0.66233  0.74879  0.90363  1.0000
  H   H3266     1.0  0.51887  0.76340  0.84501  1.0000
  C   C1906     1.0  0.54608  0.77580  0.68608  1.0000
  H   H3267     1.0  0.51022  0.72194  0.88278  1.0000
  C   C1907     1.0  0.71836  0.67328  0.95376  1.0000
  H   H3268     1.0  0.67521  0.89681  0.92857  1.0000
  H   H3269     1.0  0.68806  0.86470  0.74047  1.0000
  C   C1908     1.0  0.64858  0.63594  0.94110  1.0000
  H   H3270     1.0  0.64616  0.78563  0.89038  1.0000
  H   H3271     1.0  0.50942  0.84276  0.68081  1.0000
  C   C1909     1.0  0.68254  0.89402  0.89771  1.0000
  H   H3272     1.0  0.60965  0.79653  0.79056  1.0000
  S   S561      1.0  0.71845  0.54525  0.82871  1.0000
  H   H3273     1.0  0.64263  0.78434  0.77676  1.0000
  H   H3274     1.0  0.64857  0.89687  0.88814  1.0000
  H   H3275     1.0  0.62317  0.97122  0.78566  1.0000
  H   H3276     1.0  0.72596  0.71146  0.68315  1.0000
  H   H3277     1.0  0.60591  0.81390  0.81651  1.0000
  H   H3278     1.0  0.65973  0.85472  0.90935  1.0000
  C   C1910     1.0  0.71034  0.60842  0.88386  1.0000
  H   H3279     1.0  0.62913  0.74488  0.78846  1.0000
  C   C1911     1.0  0.67099  0.90444  0.91449  1.0000
  H   H3280     1.0  0.58383  0.80709  0.81721  1.0000
  H   H3281     1.0  0.66823  0.78947  0.81881  1.0000
  N   N136      1.0  0.59195  0.59333  0.87864  1.0000
  C   C1912     1.0  0.60549  0.57737  0.88954  1.0000
  C   C1913     1.0  0.58403  0.60904  0.89046  1.0000
  C   C1914     1.0  0.60400  0.60135  0.85929  1.0000
  C   C1915     1.0  0.57617  0.58476  0.87574  1.0000
  C   C1916     1.0  0.61747  0.56105  0.87866  1.0000
  C   C1917     1.0  0.57429  0.60216  0.91191  1.0000
  C   C1918     1.0  0.59418  0.61986  0.84666  1.0000
  C   C1919     1.0  0.55641  0.59864  0.87384  1.0000
  H   H3282     1.0  0.61607  0.58356  0.89370  1.0000
  H   H3283     1.0  0.59734  0.57000  0.90353  1.0000
  H   H3284     1.0  0.57318  0.62095  0.88391  1.0000
  H   H3285     1.0  0.59591  0.61620  0.89055  1.0000
  H   H3286     1.0  0.61733  0.60464  0.86156  1.0000
  H   H3287     1.0  0.60931  0.59033  0.84987  1.0000
  H   H3288     1.0  0.58126  0.57809  0.86260  1.0000
  H   H3289     1.0  0.57271  0.57251  0.88806  1.0000
  H   H3290     1.0  0.60825  0.55484  0.87276  1.0000
  H   H3291     1.0  0.62928  0.56623  0.86681  1.0000
  H   H3292     1.0  0.62477  0.54905  0.88901  1.0000
  H   H3293     1.0  0.56506  0.59154  0.91355  1.0000
  H   H3294     1.0  0.58542  0.59561  0.92102  1.0000
  H   H3295     1.0  0.56480  0.61488  0.91782  1.0000
  H   H3296     1.0  0.60547  0.62505  0.83416  1.0000
  H   H3297     1.0  0.58793  0.63210  0.85440  1.0000
  H   H3298     1.0  0.58328  0.61677  0.84022  1.0000
  H   H3299     1.0  0.54845  0.60301  0.88782  1.0000
  H   H3300     1.0  0.54700  0.59095  0.86984  1.0000
  H   H3301     1.0  0.55770  0.61190  0.86245  1.0000
  C   C1920     1.0  0.51021  0.79715  0.74056  1.0000
  H   H3302     1.0  0.60914  0.73925  0.88933  1.0000
  N   N137      1.0  0.71234  0.82725  0.73580  1.0000
  H   H3303     1.0  0.69794  0.89539  0.89549  1.0000
  C   C1921     1.0  0.69656  0.82507  0.75393  1.0000
  C   C1922     1.0  0.71755  0.84690  0.73237  1.0000
  C   C1923     1.0  0.70682  0.82465  0.71797  1.0000
  C   C1924     1.0  0.71069  0.71767  0.68945  1.0000
  C   C1925     1.0  0.69232  0.80438  0.76207  1.0000
  C   C1926     1.0  0.70129  0.86488  0.72876  1.0000
  C   C1927     1.0  0.68511  0.83101  0.71672  1.0000
  H   H3304     1.0  0.50563  0.75609  0.72881  1.0000
  H   H3305     1.0  0.59376  0.76898  0.94548  1.0000
  H   H3306     1.0  0.68259  0.83503  0.75173  1.0000
  H   H3307     1.0  0.70031  0.82952  0.76594  1.0000
  H   H3308     1.0  0.65838  0.66125  0.96403  1.0000
  H   H3309     1.0  0.69545  0.57920  0.90815  1.0000
  H   H3310     1.0  0.57360  0.69985  0.96624  1.0000
  H   H3311     1.0  0.71103  0.80913  0.71648  1.0000
  C   C1928     1.0  0.66641  0.72888  0.66558  1.0000
  C   C1929     1.0  0.51628  0.83723  0.69371  1.0000
  C   C1930     1.0  0.50467  0.64832  0.86329  1.0000
  H   H3312     1.0  0.70389  0.79482  0.76964  1.0000
  H   H3313     1.0  0.67861  0.80511  0.77326  1.0000
  H   H3314     1.0  0.69078  0.79765  0.75055  1.0000
  H   H3315     1.0  0.69779  0.86685  0.71426  1.0000
  H   H3316     1.0  0.67632  0.82082  0.72711  1.0000
  H   H3317     1.0  0.68370  0.83067  0.70189  1.0000
  H   H3318     1.0  0.67859  0.84597  0.71906  1.0000
  H   H3319     1.0  0.54136  0.80391  0.65291  1.0000
  H   H3320     1.0  0.61543  0.76768  0.77719  1.0000
  H   H3321     1.0  0.70647  0.73119  0.66032  1.0000
  H   H3322     1.0  0.64842  0.81548  0.66508  1.0000
  H   H3323     1.0  0.64193  0.80196  0.80017  1.0000
  H   H3324     1.0  0.68620  0.85195  0.88224  1.0000
  C   C1931     1.0  0.69849  0.72261  0.67360  1.0000
  N   N138      1.0  0.62974  0.77608  0.80741  1.0000
  H   H3325     1.0  0.71102  0.73054  0.69478  1.0000
  C   C1932     1.0  0.62535  0.70822  0.96196  1.0000
  H   H3326     1.0  0.64658  0.65206  0.93713  1.0000
  C   C1933     1.0  0.70829  0.59777  0.91981  1.0000
  C   C1934     1.0  0.51214  0.70137  0.84474  1.0000
  C   C1935     1.0  0.59893  0.80116  0.81955  1.0000
  H   H3327     1.0  0.67968  0.87636  0.87030  1.0000
  H   H3328     1.0  0.59790  0.79389  0.83504  1.0000
  H   H3329     1.0  0.71345  0.86299  0.85740  1.0000
  H   H3330     1.0  0.56502  0.69293  0.81178  1.0000
  H   H3331     1.0  0.69932  0.70836  0.66986  1.0000
  H   H3332     1.0  0.62213  0.79863  0.89896  1.0000
  C   C1936     1.0  0.54235  0.71237  0.82778  1.0000
  C   C1937     1.0  0.67986  0.97261  0.80022  1.0000
  H   H3333     1.0  0.62660  0.74562  0.85334  1.0000
  C   C1938     1.0  0.64682  0.73417  0.70617  1.0000
  C   C1939     1.0  0.62042  0.75909  0.84370  1.0000
  H   H3334     1.0  0.64207  0.72805  0.72192  1.0000
  C   C1940     1.0  0.64567  0.88224  0.89542  1.0000
  H   H3335     1.0  0.69977  0.95264  0.84566  1.0000
  H   H3336     1.0  0.63714  0.73070  0.69845  1.0000
  H   H3337     1.0  0.67165  0.77532  0.80108  1.0000
  H   H3338     1.0  0.66078  0.76265  0.67530  1.0000
  H   H3339     1.0  0.68255  0.58452  0.93098  1.0000
  C   C1941     1.0  0.67606  0.75473  0.67469  1.0000
  H   H3340     1.0  0.68290  0.75506  0.70291  1.0000
  H   H3341     1.0  0.63358  0.79450  0.82528  1.0000
  H   H3342     1.0  0.61981  0.74886  0.81896  1.0000
  C   C1942     1.0  0.51579  0.73464  0.84380  1.0000
  H   H3343     1.0  0.65144  0.73790  0.66711  1.0000
  H   H3344     1.0  0.71895  0.61576  0.87015  1.0000
  S   S562      1.0  0.49352  0.64626  0.84512  1.0000
  H   H3345     1.0  0.64446  0.75016  0.70458  1.0000
  H   H3346     1.0  0.62754  0.75420  0.94159  1.0000
  N   N139      1.0  0.54494  0.81307  0.67773  1.0000
  H   H3347     1.0  0.65507  0.90631  0.91602  1.0000
  H   H3348     1.0  0.70049  0.76286  0.68132  1.0000
  C   C1943     1.0  0.56687  0.80840  0.67165  1.0000
  H   H3349     1.0  0.59971  0.77718  0.80680  1.0000
  H   H3350     1.0  0.55358  0.72019  0.82810  1.0000
  H   H3351     1.0  0.51968  0.81606  0.66540  1.0000
  H   H3352     1.0  0.70673  0.87805  0.72834  1.0000
  H   H3353     1.0  0.72747  0.79706  0.74160  1.0000
  C   C1944     1.0  0.50147  0.77046  0.73223  1.0000
  H   H3354     1.0  0.63984  0.70989  0.96128  1.0000
  S   S563      1.0  0.73793  0.50875  0.87149  1.0000
  N   N140      1.0  0.52596  0.71357  0.84544  1.0000
  H   H3355     1.0  0.70835  0.59521  0.88002  1.0000
  C   C1945     1.0  0.74031  0.55417  0.94715  1.0000
  C   C1946     1.0  0.59048  0.71753  0.97222  1.0000
  N   N141      1.0  0.72126  0.60318  0.90025  1.0000
  H   H3356     1.0  0.50599  0.74199  0.77925  1.0000
  H   H3357     1.0  0.57180  0.83619  0.65127  1.0000
  H   H3358     1.0  0.53598  0.74422  0.85612  1.0000
  H   H3359     1.0  0.70501  0.83151  0.92915  1.0000
  H   H3360     1.0  0.68430  0.62601  0.87382  1.0000
  H   H3361     1.0  0.68680  0.86465  0.92973  1.0000
  H   H3362     1.0  0.63093  0.88472  0.90482  1.0000
  H   H3363     1.0  0.64537  0.87452  0.88411  1.0000
  H   H3364     1.0  0.73369  0.95298  0.79410  1.0000
  H   H3365     1.0  0.73105  0.53738  0.93170  1.0000
  H   H3366     1.0  0.67799  0.90286  0.88412  1.0000
  C   C1947     1.0  0.74053  0.55336  0.82031  1.0000
  C   C1948     1.0  0.69017  0.62197  0.88738  1.0000
  C   C1949     1.0  0.53551  0.81629  0.66060  1.0000
  H   H3367     1.0  0.59310  0.81982  0.65772  1.0000
  H   H3368     1.0  0.67951  0.61457  0.89887  1.0000
  H   H3369     1.0  0.66161  0.95207  0.81610  1.0000
  C   C1950     1.0  0.49383  0.65158  0.88151  1.0000
  H   H3370     1.0  0.63392  0.94729  0.79791  1.0000
  H   H3371     1.0  0.50094  0.71863  0.79143  1.0000
  C   C1951     1.0  0.60424  0.69048  0.95546  1.0000
  C   C1952     1.0  0.73754  0.58598  0.89719  1.0000
  C   C1953     1.0  0.49886  0.73038  0.77849  1.0000
  H   H3372     1.0  0.57721  0.83318  0.67508  1.0000
  H   H3373     1.0  0.51046  0.70309  0.82948  1.0000
  C   C1954     1.0  0.60921  0.72008  0.97137  1.0000
  H   H3374     1.0  0.66020  0.96100  0.79120  1.0000
  H   H3375     1.0  0.72666  0.55599  0.95756  1.0000
  H   H3376     1.0  0.57793  0.72667  0.97945  1.0000
  C   C1955     1.0  0.49127  0.70532  0.85689  1.0000
  H   H3377     1.0  0.62759  0.60818  0.97544  1.0000
  S   S564      1.0  0.77964  0.27496  0.02005  1.0000
  H   H3378     1.0  0.93194  0.21471  0.24784  1.0000
  C   C1956     1.0  0.88658  0.26146  0.12778  1.0000
  H   H3379     1.0  0.90494  0.23943  0.14654  1.0000
  C   C1957     1.0  0.78692  0.28335  0.21871  1.0000
  H   H3380     1.0  0.74411  0.26299  0.09206  1.0000
  H   H3381     1.0  0.89212  0.22071  0.09169  1.0000
  C   C1958     1.0  0.93713  0.21860  0.29926  1.0000
  H   H3382     1.0  0.82961  0.31042  0.18114  1.0000
  H   H3383     1.0  0.89572  0.22020  0.13091  1.0000
  Fe  Fe287     1.0  0.90174  0.27688  0.27027  1.0000
  S   S565      1.0  0.92018  0.25651  0.25108  1.0000
  H   H3384     1.0  0.79825  0.40058  0.20146  1.0000
  Fe  Fe288     1.0  0.89564  0.30985  0.23599  1.0000
  S   S566      1.0  0.91379  0.29195  0.21395  1.0000
  S   S567      1.0  0.88159  0.34092  0.22531  1.0000
  Fe  Fe289     1.0  0.89784  0.26853  0.23245  1.0000
  S   S568      1.0  0.88561  0.24668  0.22397  1.0000
  Fe  Fe290     1.0  0.93450  0.28163  0.23469  1.0000
  S   S569      1.0  0.87823  0.28722  0.25294  1.0000
  S   S570      1.0  0.91751  0.30132  0.25524  1.0000
  Fe  Fe291     1.0  0.81204  0.25385  0.11342  1.0000
  S   S571      1.0  0.82014  0.23665  0.14165  1.0000
  S   S572      1.0  0.82985  0.24578  0.08522  1.0000
  Fe  Fe292     1.0  0.77748  0.28051  0.13363  1.0000
  S   S573      1.0  0.78267  0.26576  0.16350  1.0000
  H   H3385     1.0  0.78720  0.20422  0.04043  1.0000
  Fe  Fe293     1.0  0.81435  0.26576  0.15013  1.0000
  S   S574      1.0  0.83451  0.27976  0.15913  1.0000
  Fe  Fe294     1.0  0.78791  0.23825  0.15212  1.0000
  S   S575      1.0  0.77292  0.21322  0.16744  1.0000
  S   S576      1.0  0.80846  0.28281  0.12090  1.0000
  S   S577      1.0  0.78035  0.25324  0.12322  1.0000
  C   C1959     1.0  0.92110  0.18838  0.26491  1.0000
  N   N142      1.0  0.75547  0.14828  0.02888  1.0000
  N   N143      1.0  0.88179  0.24856  0.11702  1.0000
  H   H3386     1.0  0.81888  0.99586  0.26001  1.0000
  C   C1960     1.0  0.93004  0.20079  0.24554  1.0000
  H   H3387     1.0  0.81673  0.24780  0.02145  1.0000
  H   H3388     1.0  0.90109  0.18566  0.30281  1.0000
  C   C1961     1.0  0.75591  0.17796  0.14240  1.0000
  H   H3389     1.0  0.92941  0.18820  0.27599  1.0000
  H   H3390     1.0  0.95909  0.30560  0.24827  1.0000
  C   C1962     1.0  0.87152  0.25568  0.20585  1.0000
  C   C1963     1.0  0.85917  0.24453  0.20374  1.0000
  C   C1964     1.0  0.84771  0.25160  0.18943  1.0000
  C   C1965     1.0  0.84894  0.26965  0.17690  1.0000
  C   C1966     1.0  0.86162  0.28052  0.17877  1.0000
  C   C1967     1.0  0.87266  0.27371  0.19335  1.0000
  H   H3391     1.0  0.85826  0.23054  0.21338  1.0000
  H   H3392     1.0  0.83791  0.24314  0.18817  1.0000
  H   H3393     1.0  0.86283  0.29440  0.16901  1.0000
  H   H3394     1.0  0.88223  0.28233  0.19478  1.0000
  H   H3395     1.0  0.90604  0.23532  0.07222  1.0000
  H   H3396     1.0  0.75504  0.34561  0.11551  1.0000
  H   H3397     1.0  0.87759  0.22514  0.16116  1.0000
  H   H3398     1.0  0.74312  0.23775  0.10059  1.0000
  H   H3399     1.0  0.90672  0.26399  0.14418  1.0000
  H   H3400     1.0  0.92463  0.17319  0.26252  1.0000
  H   H3401     1.0  0.88043  0.24368  0.07871  1.0000
  C   C1968     1.0  0.85906  0.38356  0.26671  1.0000
  C   C1969     1.0  0.85684  0.36417  0.27352  1.0000
  C   C1970     1.0  0.86460  0.35058  0.26125  1.0000
  C   C1971     1.0  0.87403  0.35659  0.24195  1.0000
  C   C1972     1.0  0.87610  0.37598  0.23519  1.0000
  C   C1973     1.0  0.86894  0.38932  0.24760  1.0000
  H   H3402     1.0  0.84901  0.35972  0.28812  1.0000
  H   H3403     1.0  0.86261  0.33569  0.26639  1.0000
  H   H3404     1.0  0.88326  0.38072  0.22026  1.0000
  H   H3405     1.0  0.81015  0.29269  0.22458  1.0000
  S   S578      1.0  0.96748  0.27540  0.22556  1.0000
  H   H3406     1.0  0.87496  0.21998  0.12229  1.0000
  C   C1974     1.0  0.78305  0.20216  0.13190  1.0000
  C   C1975     1.0  0.77165  0.19980  0.15078  1.0000
  H   H3407     1.0  0.86090  0.21532  0.15441  1.0000
  H   H3408     1.0  0.91848  0.25204  0.12429  1.0000
  H   H3409     1.0  0.85097  0.26052  0.12489  1.0000
  H   H3410     1.0  0.79378  0.21124  0.12779  1.0000
  C   C1976     1.0  0.74374  0.21335  0.07630  1.0000
  H   H3411     1.0  0.93336  0.24917  0.28633  1.0000
  H   H3412     1.0  0.86282  0.28909  0.10333  1.0000
  H   H3413     1.0  0.87159  0.27652  0.08304  1.0000
  C   C1977     1.0  0.74684  0.36748  0.28157  1.0000
  H   H3414     1.0  0.87839  0.18558  0.29832  1.0000
  H   H3415     1.0  0.78847  0.33417  0.28695  1.0000
  H   H3416     1.0  0.79019  0.19388  0.10399  1.0000
  H   H3417     1.0  0.75969  0.07321  0.21988  1.0000
  C   C1978     1.0  0.75195  0.34222  0.13129  1.0000
  C   C1979     1.0  0.79696  0.99885  0.28711  1.0000
  C   C1980     1.0  0.89747  0.24652  0.09900  1.0000
  H   H3418     1.0  0.79171  0.26822  0.22652  1.0000
  H   H3419     1.0  0.85685  0.24094  0.15197  1.0000
  C   C1981     1.0  0.79480  0.26770  0.03707  1.0000
  C   C1982     1.0  0.78876  0.27531  0.05409  1.0000
  C   C1983     1.0  0.79955  0.26864  0.06882  1.0000
  C   C1984     1.0  0.81662  0.25452  0.06650  1.0000
  C   C1985     1.0  0.82297  0.24720  0.04927  1.0000
  C   C1986     1.0  0.81201  0.25373  0.03457  1.0000
  H   H3420     1.0  0.77552  0.28620  0.05601  1.0000
  H   H3421     1.0  0.79472  0.27455  0.08193  1.0000
  H   H3422     1.0  0.83620  0.23629  0.04744  1.0000
  H   H3423     1.0  0.84643  0.28171  0.09335  1.0000
  C   C1987     1.0  0.90025  0.16011  0.29331  1.0000
  H   H3424     1.0  0.78695  0.35256  0.31209  1.0000
  H   H3425     1.0  0.91523  0.34189  0.29595  1.0000
  H   H3426     1.0  0.74530  0.16879  0.14654  1.0000
  C   C1988     1.0  0.81807  0.99344  0.27591  1.0000
  H   H3427     1.0  0.84605  0.32470  0.19871  1.0000
  C   C1989     1.0  0.78094  0.19238  0.11836  1.0000
  C   C1990     1.0  0.74307  0.33378  0.17207  1.0000
  C   C1991     1.0  0.75246  0.04531  0.27207  1.0000
  H   H3428     1.0  0.91579  0.15488  0.29435  1.0000
  C   C1992     1.0  0.81841  0.46001  0.29458  1.0000
  H   H3429     1.0  0.78933  0.10973  0.04978  1.0000
  H   H3430     1.0  0.75831  0.17540  0.00828  1.0000
  H   H3431     1.0  0.81618  0.28379  0.20261  1.0000
  H   H3432     1.0  0.82733  0.44700  0.30240  1.0000
  H   H3433     1.0  0.78926  0.34498  0.16777  1.0000
  H   H3434     1.0  0.95123  0.21496  0.28997  1.0000
  H   H3435     1.0  0.86902  0.21700  0.29702  1.0000
  C   C1993     1.0  0.76864  0.05161  0.27348  1.0000
  H   H3436     1.0  0.77371  0.32214  0.21892  1.0000
  H   H3437     1.0  0.88829  0.27582  0.11811  1.0000
  H   H3438     1.0  0.77847  0.35669  0.21677  1.0000
  H   H3439     1.0  0.74907  0.05110  0.17399  1.0000
  C   C1994     1.0  0.86779  0.18905  0.26588  1.0000
  H   H3440     1.0  0.77517  0.41691  0.20424  1.0000
  H   H3441     1.0  0.92866  0.31775  0.29253  1.0000
  C   C1995     1.0  0.89423  0.18232  0.29223  1.0000
  H   H3442     1.0  0.89156  0.15245  0.30667  1.0000
  C   C1996     1.0  0.75092  0.32316  0.14126  1.0000
  H   H3443     1.0  0.75627  0.14862  0.98800  1.0000
  H   H3444     1.0  0.77683  0.16996  0.03908  1.0000
  C   C1997     1.0  0.97415  0.29837  0.24749  1.0000
  H   H3445     1.0  0.78879  0.46283  0.31005  1.0000
  H   H3446     1.0  0.92131  0.20384  0.23419  1.0000
  N   N144      1.0  0.75501  0.22812  0.06278  1.0000
  C   C1998     1.0  0.86223  0.25770  0.11176  1.0000
  H   H3447     1.0  0.78028  0.18944  0.06448  1.0000
  H   H3448     1.0  0.88781  0.20600  0.24594  1.0000
  N   N145      1.0  0.80091  0.39329  0.24202  1.0000
  C   C1999     1.0  0.79332  0.39354  0.26343  1.0000
  C   C2000     1.0  0.80201  0.37300  0.23935  1.0000
  C   C2001     1.0  0.78660  0.40801  0.23088  1.0000
  C   C2002     1.0  0.82062  0.39869  0.23626  1.0000
  C   C2003     1.0  0.78974  0.41345  0.26924  1.0000
  C   C2004     1.0  0.81644  0.35646  0.24948  1.0000
  C   C2005     1.0  0.78431  0.40388  0.21176  1.0000
  C   C2006     1.0  0.83165  0.39781  0.21525  1.0000
  H   H3449     1.0  0.77933  0.38837  0.26853  1.0000
  H   H3450     1.0  0.80344  0.38350  0.27251  1.0000
  H   H3451     1.0  0.80630  0.37201  0.22375  1.0000
  H   H3452     1.0  0.78736  0.36921  0.24451  1.0000
  H   H3453     1.0  0.77158  0.40938  0.23996  1.0000
  H   H3454     1.0  0.79001  0.42282  0.22743  1.0000
  H   H3455     1.0  0.81955  0.41375  0.23805  1.0000
  H   H3456     1.0  0.83016  0.38912  0.24616  1.0000
  H   H3457     1.0  0.78059  0.42530  0.26054  1.0000
  H   H3458     1.0  0.78184  0.41213  0.28468  1.0000
  H   H3459     1.0  0.80367  0.41767  0.26841  1.0000
  H   H3460     1.0  0.81500  0.34236  0.24713  1.0000
  H   H3461     1.0  0.83173  0.35796  0.24308  1.0000
  H   H3462     1.0  0.81352  0.35515  0.26545  1.0000
  C   C2007     1.0  0.90826  0.24263  0.30826  1.0000
  C   C2008     1.0  0.79161  0.31403  0.18333  1.0000
  H   H3463     1.0  0.77649  0.39173  0.21490  1.0000
  H   H3464     1.0  0.83435  0.38306  0.21208  1.0000
  C   C2009     1.0  0.74470  0.15510  0.04750  1.0000
  H   H3465     1.0  0.86085  0.31266  0.30199  1.0000
  H   H3466     1.0  0.79645  0.15945  0.02140  1.0000
  C   C2010     1.0  0.75851  0.18722  0.15615  1.0000
  H   H3467     1.0  0.77035  0.35198  0.19722  1.0000
  C   C2011     1.0  0.74675  0.31885  0.16167  1.0000
  C   C2012     1.0  0.92690  0.23793  0.29702  1.0000
  C   C2013     1.0  0.82060  0.31977  0.19150  1.0000
  H   H3468     1.0  0.87818  0.35622  0.30445  1.0000
  H   H3469     1.0  0.77786  0.21769  0.07952  1.0000
  H   H3470     1.0  0.86097  0.19019  0.25343  1.0000
  C   C2014     1.0  0.77666  0.34642  0.28935  1.0000
  C   C2015     1.0  0.77614  0.22087  0.06416  1.0000
  H   H3471     1.0  0.89671  0.18061  0.25022  1.0000
  C   C2016     1.0  0.74420  0.35285  0.16207  1.0000
  C   C2017     1.0  0.80150  0.46902  0.30967  1.0000
  H   H3472     1.0  0.76944  0.12307  0.06431  1.0000
  H   H3473     1.0  0.82409  0.40879  0.20450  1.0000
  H   H3474     1.0  0.75703  0.25825  0.05791  1.0000
  C   C2018     1.0  0.78276  0.34867  0.20466  1.0000
  H   H3475     1.0  0.81270  0.45444  0.28467  1.0000
  C   C2019     1.0  0.76052  0.37262  0.30671  1.0000
  S   S579      1.0  0.84885  0.40134  0.28110  1.0000
  H   H3476     1.0  0.76619  0.24545  0.09004  1.0000
  H   H3477     1.0  0.82480  0.32772  0.21747  1.0000
  H   H3478     1.0  0.75737  0.00649  0.28932  1.0000
  H   H3479     1.0  0.89985  0.22515  0.25957  1.0000
  H   H3480     1.0  0.74569  0.30415  0.16942  1.0000
  C   C2020     1.0  0.76379  0.99346  0.29930  1.0000
  H   H3481     1.0  0.78116  0.06282  0.29118  1.0000
  C   C2021     1.0  0.77925  0.12410  0.04971  1.0000
  H   H3482     1.0  0.75013  0.18486  0.17091  1.0000
  H   H3483     1.0  0.83772  0.48096  0.30753  1.0000
  H   H3484     1.0  0.87444  0.26498  0.14006  1.0000
  C   C2022     1.0  0.87517  0.22525  0.28262  1.0000
  C   C2023     1.0  0.76860  0.05802  0.29019  1.0000
  N   N146      1.0  0.80111  0.31394  0.19969  1.0000
  S   S580      1.0  0.76380  0.16963  0.10566  1.0000
  H   H3485     1.0  0.77831  0.99767  0.26051  1.0000
  H   H3486     1.0  0.80202  0.19877  0.05803  1.0000
  H   H3487     1.0  0.88510  0.33072  0.29240  1.0000
  H   H3488     1.0  0.85703  0.24754  0.10601  1.0000
  H   H3489     1.0  0.77536  0.29069  0.22932  1.0000
  H   H3490     1.0  0.78468  0.23230  0.05629  1.0000
  H   H3491     1.0  0.78318  0.18406  0.01571  1.0000
  H   H3492     1.0  0.87547  0.23979  0.28489  1.0000
  C   C2024     1.0  0.88869  0.19277  0.25782  1.0000
  C   C2025     1.0  0.78179  0.16899  0.02358  1.0000
  H   H3493     1.0  0.81927  0.33474  0.18258  1.0000
  H   H3494     1.0  0.75618  0.09938  0.21198  1.0000
  H   H3495     1.0  0.74125  0.07736  0.98817  1.0000
  H   H3496     1.0  0.75667  0.12386  0.00210  1.0000
  H   H3497     1.0  0.94480  0.19285  0.23982  1.0000
  S   S581      1.0  0.74811  0.21455  0.99247  1.0000
  C   C2026     1.0  0.76221  0.35182  0.27829  1.0000
  C   C2027     1.0  0.89602  0.21569  0.27407  1.0000
  Fe  Fe295     1.0  0.78730  0.26019  0.99452  1.0000
  H   H3498     1.0  0.84615  0.40138  0.21322  1.0000
  C   C2028     1.0  0.78793  0.32673  0.21322  1.0000
  H   H3499     1.0  0.76652  0.08378  0.19465  1.0000
  S   S582      1.0  0.94104  0.17962  0.31411  1.0000
  H   H3500     1.0  0.86554  0.22808  0.27212  1.0000
  N   N147      1.0  0.89951  0.19474  0.27228  1.0000
  H   H3501     1.0  0.78327  0.47914  0.27825  1.0000
  H   H3502     1.0  0.78074  0.28216  0.20665  1.0000
  H   H3503     1.0  0.77839  0.12445  0.02020  1.0000
  H   H3504     1.0  0.77669  0.15584  0.00261  1.0000
  H   H3505     1.0  0.80980  0.32820  0.15681  1.0000
  H   H3506     1.0  0.74843  0.19926  0.07133  1.0000
  C   C2029     1.0  0.76763  0.16223  0.01525  1.0000
  H   H3507     1.0  0.87064  0.40429  0.24219  1.0000
  C   C2030     1.0  0.98630  0.30504  0.25562  1.0000
  C   C2031     1.0  0.74793  0.13887  0.99968  1.0000
  C   C2032     1.0  0.79442  0.33011  0.16480  1.0000
  H   H3508     1.0  0.79505  0.35473  0.19467  1.0000
  H   H3509     1.0  0.86771  0.17415  0.27481  1.0000
  H   H3510     1.0  0.76653  0.23541  0.03171  1.0000
  C   C2033     1.0  0.91539  0.32897  0.29034  1.0000
  H   H3511     1.0  0.77569  0.31482  0.18867  1.0000
  H   H3512     1.0  0.79343  0.32476  0.22674  1.0000
  H   H3513     1.0  0.79725  0.30013  0.17797  1.0000
  H   H3514     1.0  0.91151  0.23823  0.10301  1.0000
  C   C2034     1.0  0.89352  0.23595  0.08480  1.0000
  C   C2035     1.0  0.90530  0.25349  0.13603  1.0000
  H   H3515     1.0  0.90051  0.26099  0.09064  1.0000
  S   S583      1.0  0.75370  0.03534  0.25201  1.0000
  C   C2036     1.0  0.88083  0.22851  0.12944  1.0000
  C   C2037     1.0  0.86834  0.22787  0.15030  1.0000
  H   H3516     1.0  0.82677  0.00318  0.27787  1.0000
  C   C2038     1.0  0.86108  0.27734  0.09703  1.0000
  C   C2039     1.0  0.83277  0.31879  0.20648  1.0000
  H   H3517     1.0  0.91648  0.33385  0.27432  1.0000
  H   H3518     1.0  0.78588  0.32879  0.15464  1.0000
  C   C2040     1.0  0.89676  0.32058  0.29932  1.0000
  C   C2041     1.0  0.80468  0.29334  0.21135  1.0000
  S   S584      1.0  0.79618  0.22799  0.99563  1.0000
  H   H3519     1.0  0.89788  0.15575  0.28063  1.0000
  H   H3520     1.0  0.90565  0.21729  0.28304  1.0000
  H   H3521     1.0  0.75461  0.15504  0.05689  1.0000
  H   H3522     1.0  0.78142  0.05115  0.26184  1.0000
  C   C2042     1.0  0.76710  0.18057  0.12342  1.0000
  H   H3523     1.0  0.74151  0.98607  0.18862  1.0000
  S   S585      1.0  0.81083  0.05434  0.31287  1.0000
  H   H3524     1.0  0.85835  0.19971  0.27454  1.0000
  S   S586      1.0  0.76386  0.33958  0.25978  1.0000
  Fe  Fe296     1.0  0.82924  0.39343  0.31008  1.0000
  C   C2043     1.0  0.75548  0.08573  0.20818  1.0000
  H   H3525     1.0  0.82856  0.46956  0.28585  1.0000
  C   C2044     1.0  0.78669  0.20225  0.05622  1.0000
  H   H3526     1.0  0.83796  0.30357  0.21375  1.0000
  C   C2045     1.0  0.75221  0.05855  0.30537  1.0000
  S   S587      1.0  0.89414  0.26607  0.30279  1.0000
  H   H3527     1.0  0.74711  0.43433  0.25220  1.0000
  C   C2046     1.0  0.76770  0.12811  0.03346  1.0000
  C   C2047     1.0  0.77588  0.35689  0.30349  1.0000
  H   H3528     1.0  0.74499  0.03474  0.00168  1.0000
  H   H3529     1.0  0.79830  0.00046  0.30157  1.0000
  C   C2048     1.0  0.98170  0.28283  0.23778  1.0000
  C   C2049     1.0  0.75365  0.23016  0.04184  1.0000
  H   H3530     1.0  0.89873  0.30692  0.29405  1.0000
  H   H3531     1.0  0.75396  0.21577  0.03875  1.0000
  S   S588      1.0  0.75265  0.30535  0.12813  1.0000
  C   C2050     1.0  0.74896  0.35697  0.14168  1.0000
  C   C2051     1.0  0.74861  0.24775  0.06849  1.0000
  C   C2052     1.0  0.75069  0.24818  0.08905  1.0000
  H   H3532     1.0  0.98193  0.32613  0.19624  1.0000
  H   H3533     1.0  0.98042  0.31731  0.26277  1.0000
  H   H3534     1.0  0.75700  0.43981  0.30701  1.0000
  H   H3535     1.0  0.78817  0.13503  0.04769  1.0000
  H   H3536     1.0  0.79059  0.01367  0.27966  1.0000
  C   C2053     1.0  0.74584  0.37767  0.29595  1.0000
  H   H3537     1.0  0.75839  0.11692  0.03811  1.0000
  H   H3538     1.0  0.74981  0.37170  0.13389  1.0000
  H   H3539     1.0  0.74718  0.20943  0.09109  1.0000
  H   H3540     1.0  0.76264  0.00776  0.98534  1.0000
  H   H3541     1.0  0.85285  0.33320  0.31403  1.0000
  C   C2054     1.0  0.92896  0.20396  0.31310  1.0000
  S   S589      1.0  0.74122  0.08194  0.14182  1.0000
  S   S590      1.0  0.76143  0.26392  0.98148  1.0000
  Fe  Fe297     1.0  0.81871  0.02503  0.33210  1.0000
  H   H3542     1.0  0.78199  0.22952  0.52364  1.0000
  H   H3543     1.0  0.86793  0.14332  0.64459  1.0000
  S   S591      1.0  0.87570  0.24340  0.62136  1.0000
  Fe  Fe298     1.0  0.80579  0.26219  0.62132  1.0000
  Fe  Fe299     1.0  0.74600  0.15532  0.42685  1.0000
  S   S592      1.0  0.79205  0.27557  0.59485  1.0000
  H   H3544     1.0  0.85001  0.26810  0.32881  1.0000
  C   C2055     1.0  0.87278  0.30839  0.32814  1.0000
  H   H3545     1.0  0.81266  0.20114  0.62294  1.0000
  H   H3546     1.0  0.78694  0.21183  0.54464  1.0000
  S   S593      1.0  0.83496  0.09264  0.32410  1.0000
  S   S594      1.0  0.82671  0.23361  0.62302  1.0000
  H   H3547     1.0  0.80124  0.42422  0.40338  1.0000
  N   N148      1.0  0.82461  0.26527  0.37754  1.0000
  H   H3548     1.0  0.76134  0.23509  0.64155  1.0000
  H   H3549     1.0  0.86608  0.30951  0.34356  1.0000
  Fe  Fe300     1.0  0.81918  0.24342  0.49582  1.0000
  S   S595      1.0  0.79032  0.25971  0.48896  1.0000
  S   S596      1.0  0.82535  0.23015  0.52583  1.0000
  Fe  Fe301     1.0  0.83756  0.24241  0.45353  1.0000
  S   S597      1.0  0.81015  0.25795  0.44303  1.0000
  S   S598      1.0  0.86531  0.23520  0.43206  1.0000
  Fe  Fe302     1.0  0.80765  0.27736  0.46352  1.0000
  S   S599      1.0  0.79816  0.30959  0.45302  1.0000
  Fe  Fe303     1.0  0.79534  0.23891  0.46908  1.0000
  H   H3550     1.0  0.74708  0.00221  0.32643  1.0000
  S   S600      1.0  0.83623  0.26315  0.47232  1.0000
  S   S601      1.0  0.82306  0.22126  0.47768  1.0000
  Fe  Fe304     1.0  0.89578  0.15644  0.37626  1.0000
  S   S602      1.0  0.90979  0.12606  0.38848  1.0000
  S   S603      1.0  0.86564  0.16797  0.39175  1.0000
  H   H3551     1.0  0.82158  0.23822  0.37213  1.0000
  S   S604      1.0  0.94439  0.12954  0.34962  1.0000
  Fe  Fe305     1.0  0.91494  0.12147  0.35800  1.0000
  S   S605      1.0  0.90897  0.09328  0.35518  1.0000
  Fe  Fe306     1.0  0.93775  0.13696  0.37914  1.0000
  S   S606      1.0  0.89927  0.15136  0.34626  1.0000
  S   S607      1.0  0.92323  0.16799  0.36992  1.0000
  Fe  Fe307     1.0  0.82067  0.06643  0.33367  1.0000
  H   H3552     1.0  0.79153  0.46754  0.37835  1.0000
  Fe  Fe308     1.0  0.78218  0.05673  0.33405  1.0000
  H   H3553     1.0  0.75231  0.26629  0.61449  1.0000
  Fe  Fe309     1.0  0.80143  0.04073  0.36915  1.0000
  S   S608      1.0  0.79723  0.02970  0.40149  1.0000
  S   S609      1.0  0.79119  0.07099  0.35345  1.0000
  Fe  Fe310     1.0  0.82275  0.36557  0.34881  1.0000
  S   S610      1.0  0.83733  0.39140  0.33855  1.0000
  S   S611      1.0  0.83825  0.33760  0.36523  1.0000
  H   H3554     1.0  0.85671  0.29903  0.57164  1.0000
  H   H3555     1.0  0.81321  0.38531  0.44274  1.0000
  S   S612      1.0  0.79335  0.38307  0.35923  1.0000
  H   H3556     1.0  0.76178  0.09392  0.41482  1.0000
  Fe  Fe311     1.0  0.92809  0.15998  0.34090  1.0000
  C   C2056     1.0  0.75535  0.20140  0.45808  1.0000
  H   H3557     1.0  0.83367  0.29917  0.56581  1.0000
  C   C2057     1.0  0.85884  0.26650  0.52176  1.0000
  C   C2058     1.0  0.81340  0.44927  0.36086  1.0000
  C   C2059     1.0  0.83236  0.44664  0.34974  1.0000
  C   C2060     1.0  0.84392  0.46036  0.34734  1.0000
  H   H3558     1.0  0.89143  0.28549  0.35599  1.0000
  H   H3559     1.0  0.78693  0.30411  0.38980  1.0000
  Fe  Fe312     1.0  0.80742  0.40904  0.34657  1.0000
  H   H3560     1.0  0.83804  0.43421  0.34280  1.0000
  C   C2061     1.0  0.80618  0.46544  0.36971  1.0000
  C   C2062     1.0  0.85665  0.31721  0.31628  1.0000
  H   H3561     1.0  0.89031  0.26684  0.53743  1.0000
  H   H3562     1.0  0.78190  0.13247  0.62596  1.0000
  H   H3563     1.0  0.74237  0.20485  0.46894  1.0000
  H   H3564     1.0  0.95727  0.16915  0.38553  1.0000
  Fe  Fe313     1.0  0.78886  0.38617  0.32907  1.0000
  H   H3565     1.0  0.79639  0.29972  0.36569  1.0000
  H   H3566     1.0  0.77294  0.20748  0.50961  1.0000
  H   H3567     1.0  0.74624  0.07896  0.38579  1.0000
  H   H3568     1.0  0.87346  0.26969  0.51474  1.0000
  H   H3569     1.0  0.82976  0.40761  0.38177  1.0000
  C   C2063     1.0  0.80905  0.12963  0.40360  1.0000
  H   H3570     1.0  0.90441  0.19752  0.33595  1.0000
  C   C2064     1.0  0.83372  0.13977  0.37434  1.0000
  H   H3571     1.0  0.77425  0.40038  0.42169  1.0000
  H   H3572     1.0  0.77436  0.02246  0.43974  1.0000
  H   H3573     1.0  0.90089  0.30503  0.35943  1.0000
  C   C2065     1.0  0.88808  0.09345  0.34688  1.0000
  C   C2066     1.0  0.87772  0.11065  0.33728  1.0000
  H   H3574     1.0  0.82640  0.00099  0.38486  1.0000
  C   C2067     1.0  0.85528  0.09262  0.33322  1.0000
  C   C2068     1.0  0.86535  0.07551  0.34323  1.0000
  C   C2069     1.0  0.88181  0.07591  0.34987  1.0000
  H   H3575     1.0  0.88246  0.12419  0.33484  1.0000
  S   S613      1.0  0.81702  0.36633  0.31958  1.0000
  H   H3576     1.0  0.86075  0.06191  0.34547  1.0000
  H   H3577     1.0  0.88978  0.06257  0.35728  1.0000
  H   H3578     1.0  0.84048  0.10346  0.41434  1.0000
  H   H3579     1.0  0.97292  0.18119  0.33862  1.0000
  H   H3580     1.0  0.75887  0.22202  0.62548  1.0000
  H   H3581     1.0  0.79269  0.14626  0.63586  1.0000
  H   H3582     1.0  0.76212  0.22074  0.54080  1.0000
  C   C2070     1.0  0.90033  0.16418  0.42920  1.0000
  H   H3583     1.0  0.80052  0.21169  0.44007  1.0000
  C   C2071     1.0  0.80915  0.31696  0.42853  1.0000
  C   C2072     1.0  0.79857  0.33136  0.41610  1.0000
  C   C2073     1.0  0.80728  0.33749  0.39653  1.0000
  C   C2074     1.0  0.82681  0.32983  0.38952  1.0000
  C   C2075     1.0  0.83744  0.31556  0.40201  1.0000
  C   C2076     1.0  0.82854  0.30887  0.42139  1.0000
  H   H3584     1.0  0.77427  0.16328  0.49267  1.0000
  C   C2077     1.0  0.85078  0.27322  0.54142  1.0000
  H   H3585     1.0  0.85259  0.30968  0.39670  1.0000
  H   H3586     1.0  0.83679  0.29777  0.43096  1.0000
  C   C2078     1.0  0.86415  0.21788  0.41969  1.0000
  C   C2079     1.0  0.84896  0.20768  0.42596  1.0000
  C   C2080     1.0  0.84897  0.19288  0.41669  1.0000
  C   C2081     1.0  0.86418  0.18834  0.40119  1.0000
  C   C2082     1.0  0.87875  0.19931  0.39423  1.0000
  C   C2083     1.0  0.87877  0.21404  0.40353  1.0000
  H   H3587     1.0  0.83746  0.21081  0.43825  1.0000
  H   H3588     1.0  0.83758  0.18450  0.42199  1.0000
  H   H3589     1.0  0.89013  0.19630  0.38184  1.0000
  H   H3590     1.0  0.89024  0.22231  0.39834  1.0000
  C   C2084     1.0  0.82148  0.42636  0.41943  1.0000
  H   H3591     1.0  0.83690  0.28749  0.35477  1.0000
  C   C2085     1.0  0.79143  0.19201  0.61330  1.0000
  C   C2086     1.0  0.77419  0.18487  0.61877  1.0000
  C   C2087     1.0  0.81759  0.47929  0.36702  1.0000
  C   C2088     1.0  0.82399  0.38179  0.42946  1.0000
  S   S614      1.0  0.82437  0.27663  0.63147  1.0000
  H   H3592     1.0  0.79854  0.19495  0.59808  1.0000
  H   H3593     1.0  0.75053  0.04421  0.45993  1.0000
  C   C2089     1.0  0.75607  0.18832  0.44650  1.0000
  C   C2090     1.0  0.79916  0.26238  0.57596  1.0000
  C   C2091     1.0  0.80824  0.24275  0.57936  1.0000
  C   C2092     1.0  0.81560  0.23288  0.56391  1.0000
  C   C2093     1.0  0.81364  0.24245  0.54494  1.0000
  C   C2094     1.0  0.80338  0.26173  0.54160  1.0000
  C   C2095     1.0  0.79618  0.27171  0.55713  1.0000
  H   H3594     1.0  0.80945  0.23503  0.59389  1.0000
  H   H3595     1.0  0.82305  0.21780  0.56666  1.0000
  H   H3596     1.0  0.80167  0.26915  0.52697  1.0000
  H   H3597     1.0  0.78889  0.28683  0.55443  1.0000
  C   C2096     1.0  0.75262  0.18563  0.54358  1.0000
  H   H3598     1.0  0.83101  0.43224  0.40566  1.0000
  C   C2097     1.0  0.84153  0.25487  0.38720  1.0000
  C   C2098     1.0  0.76125  0.23622  0.62599  1.0000
  H   H3599     1.0  0.79719  0.13646  0.39548  1.0000
  H   H3600     1.0  0.90917  0.13244  0.43029  1.0000
  H   H3601     1.0  0.91393  0.22151  0.61042  1.0000
  H   H3602     1.0  0.88050  0.36613  0.32312  1.0000
  H   H3603     1.0  0.81237  0.43921  0.42535  1.0000
  H   H3604     1.0  0.81038  0.10793  0.43120  1.0000
  C   C2099     1.0  0.80109  0.11375  0.42021  1.0000
  H   H3605     1.0  0.79346  0.23188  0.39816  1.0000
  H   H3606     1.0  0.85415  0.36821  0.39847  1.0000
  C   C2100     1.0  0.90360  0.29341  0.35107  1.0000
  H   H3607     1.0  0.74831  0.07434  0.49256  1.0000
  S   S615      1.0  0.96071  0.12716  0.39749  1.0000
  C   C2101     1.0  0.81727  0.15439  0.36534  1.0000
  C   C2102     1.0  0.80245  0.24171  0.39937  1.0000
  N   N149      1.0  0.77371  0.18199  0.53334  1.0000
  C   C2103     1.0  0.78587  0.17318  0.54872  1.0000
  C   C2104     1.0  0.78036  0.20051  0.52193  1.0000
  H   H3608     1.0  0.78407  0.18418  0.49025  1.0000
  C   C2105     1.0  0.83924  0.16157  0.64704  1.0000
  S   S616      1.0  0.76401  0.18206  0.60045  1.0000
  H   H3609     1.0  0.77715  0.47460  0.34456  1.0000
  C   C2106     1.0  0.76503  0.18110  0.63846  1.0000
  H   H3610     1.0  0.78218  0.18223  0.55996  1.0000
  H   H3611     1.0  0.79024  0.14144  0.55053  1.0000
  H   H3612     1.0  0.86150  0.20235  0.63094  1.0000
  C   C2107     1.0  0.84408  0.29182  0.57553  1.0000
  C   C2108     1.0  0.79932  0.19575  0.62736  1.0000
  H   H3613     1.0  0.89084  0.16318  0.63299  1.0000
  C   C2109     1.0  0.90934  0.21738  0.62606  1.0000
  H   H3614     1.0  0.77196  0.22716  0.59101  1.0000
  H   H3615     1.0  0.79451  0.99414  0.38598  1.0000
  C   C2110     1.0  0.77260  0.18396  0.43219  1.0000
  H   H3616     1.0  0.78539  0.07202  0.39437  1.0000
  H   H3617     1.0  0.80644  0.12373  0.62885  1.0000
  H   H3618     1.0  0.86952  0.25779  0.39063  1.0000
  C   C2111     1.0  0.85596  0.26745  0.38674  1.0000
  C   C2112     1.0  0.97679  0.14263  0.39507  1.0000
  H   H3619     1.0  0.84142  0.10238  0.37146  1.0000
  H   H3620     1.0  0.80798  0.16360  0.37575  1.0000
  H   H3621     1.0  0.79719  0.11697  0.37740  1.0000
  H   H3622     1.0  0.85371  0.12347  0.32259  1.0000
  C   C2113     1.0  0.75444  0.07047  0.43865  1.0000
  H   H3623     1.0  0.88550  0.14321  0.42552  1.0000
  H   H3624     1.0  0.91084  0.28858  0.32170  1.0000
  H   H3625     1.0  0.74334  0.07851  0.52812  1.0000
  C   C2114     1.0  0.97129  0.16284  0.38933  1.0000
  H   H3626     1.0  0.86009  0.27678  0.37233  1.0000
  C   C2115     1.0  0.88876  0.33452  0.32947  1.0000
  C   C2116     1.0  0.80263  0.38767  0.40526  1.0000
  H   H3627     1.0  0.84344  0.12797  0.41015  1.0000
  C   C2117     1.0  0.83142  0.27402  0.35633  1.0000
  H   H3628     1.0  0.79600  0.41398  0.42865  1.0000
  S   S617      1.0  0.83156  0.03687  0.35080  1.0000
  C   C2118     1.0  0.79196  0.13127  0.63565  1.0000
  S   S618      1.0  0.78936  0.02680  0.35187  1.0000
  H   H3629     1.0  0.79879  0.34805  0.38691  1.0000
  H   H3630     1.0  0.98384  0.20149  0.33754  1.0000
  C   C2119     1.0  0.78123  0.04578  0.41563  1.0000
  H   H3631     1.0  0.85908  0.25081  0.52326  1.0000
  H   H3632     1.0  0.78659  0.12038  0.42802  1.0000
  H   H3633     1.0  0.79314  0.16023  0.51784  1.0000
  Fe  Fe314     1.0  0.84394  0.24714  0.63547  1.0000
  H   H3634     1.0  0.77580  0.23824  0.61712  1.0000
  H   H3635     1.0  0.75086  0.13738  0.51749  1.0000
  N   N150      1.0  0.81752  0.39478  0.41140  1.0000
  H   H3636     1.0  0.84896  0.27452  0.51160  1.0000
  N   N151      1.0  0.86266  0.26428  0.55702  1.0000
  C   C2120     1.0  0.85034  0.26979  0.57578  1.0000
  C   C2121     1.0  0.86696  0.24243  0.55893  1.0000
  C   C2122     1.0  0.88115  0.27217  0.55061  1.0000
  C   C2123     1.0  0.87243  0.22975  0.57809  1.0000
  C   C2124     1.0  0.89464  0.26721  0.56530  1.0000
  H   H3637     1.0  0.85755  0.26322  0.58832  1.0000
  H   H3638     1.0  0.83687  0.26373  0.57992  1.0000
  H   H3639     1.0  0.85404  0.23756  0.55759  1.0000
  H   H3640     1.0  0.87890  0.23794  0.54682  1.0000
  H   H3641     1.0  0.83624  0.29398  0.59037  1.0000
  H   H3642     1.0  0.87668  0.21426  0.57667  1.0000
  H   H3643     1.0  0.85981  0.23067  0.59047  1.0000
  H   H3644     1.0  0.88481  0.23333  0.58171  1.0000
  H   H3645     1.0  0.90545  0.25351  0.56373  1.0000
  H   H3646     1.0  0.88697  0.26620  0.58068  1.0000
  H   H3647     1.0  0.90266  0.27917  0.56248  1.0000
  N   N152      1.0  0.91350  0.16770  0.44055  1.0000
  C   C2125     1.0  0.86147  0.11019  0.33032  1.0000
  C   C2126     1.0  0.91435  0.18906  0.43449  1.0000
  C   C2127     1.0  0.90442  0.16257  0.46198  1.0000
  C   C2128     1.0  0.93315  0.15477  0.43577  1.0000
  C   C2129     1.0  0.77129  0.20997  0.45573  1.0000
  C   C2130     1.0  0.92525  0.19575  0.41346  1.0000
  C   C2131     1.0  0.90989  0.17206  0.47610  1.0000
  C   C2132     1.0  0.94966  0.15746  0.44404  1.0000
  H   H3648     1.0  0.81693  0.09242  0.64683  1.0000
  H   H3649     1.0  0.90646  0.16698  0.41329  1.0000
  H   H3650     1.0  0.92158  0.19359  0.44386  1.0000
  H   H3651     1.0  0.89937  0.19817  0.43638  1.0000
  S   S619      1.0  0.76964  0.22607  0.47088  1.0000
  H   H3652     1.0  0.92104  0.30703  0.32512  1.0000
  H   H3653     1.0  0.93225  0.13914  0.44111  1.0000
  H   H3654     1.0  0.93821  0.15597  0.41975  1.0000
  C   C2133     1.0  0.89596  0.14347  0.43426  1.0000
  H   H3655     1.0  0.79516  0.07267  0.62625  1.0000
  H   H3656     1.0  0.93489  0.19498  0.62938  1.0000
  H   H3657     1.0  0.91919  0.19264  0.40229  1.0000
  H   H3658     1.0  0.92396  0.21179  0.41051  1.0000
  H   H3659     1.0  0.94100  0.18921  0.41152  1.0000
  H   H3660     1.0  0.90299  0.18778  0.47438  1.0000
  H   H3661     1.0  0.75840  0.18456  0.49958  1.0000
  H   H3662     1.0  0.90409  0.16511  0.49134  1.0000
  H   H3663     1.0  0.95001  0.14806  0.45873  1.0000
  H   H3664     1.0  0.94900  0.17270  0.44462  1.0000
  H   H3665     1.0  0.96381  0.15324  0.43418  1.0000
  H   H3666     1.0  0.86651  0.09693  0.38580  1.0000
  C   C2134     1.0  0.81250  0.25072  0.37869  1.0000
  H   H3667     1.0  0.82175  0.29272  0.38574  1.0000
  N   N153      1.0  0.82808  0.12296  0.39039  1.0000
  H   H3668     1.0  0.84324  0.31173  0.32430  1.0000
  H   H3669     1.0  0.91675  0.28273  0.35479  1.0000
  H   H3670     1.0  0.80162  0.17276  0.54219  1.0000
  H   H3671     1.0  0.83733  0.37088  0.38266  1.0000
  H   H3672     1.0  0.82382  0.16440  0.35237  1.0000
  H   H3673     1.0  0.90780  0.14652  0.46746  1.0000
  H   H3674     1.0  0.80102  0.25722  0.36992  1.0000
  H   H3675     1.0  0.81041  0.14135  0.41032  1.0000
  H   H3676     1.0  0.75161  0.17576  0.64272  1.0000
  C   C2135     1.0  0.75816  0.05034  0.44566  1.0000
  H   H3677     1.0  0.88898  0.13916  0.44977  1.0000
  C   C2136     1.0  0.77751  0.16759  0.52027  1.0000
  H   H3678     1.0  0.82907  0.35445  0.41768  1.0000
  C   C2137     1.0  0.88119  0.17468  0.64068  1.0000
  H   H3679     1.0  0.87618  0.29252  0.32812  1.0000
  H   H3680     1.0  0.86142  0.25728  0.34908  1.0000
  H   H3681     1.0  0.75116  0.04429  0.39697  1.0000
  C   C2138     1.0  0.98130  0.19211  0.32888  1.0000
  C   C2139     1.0  0.78808  0.20532  0.44174  1.0000
  H   H3682     1.0  0.83588  0.27016  0.54675  1.0000
  H   H3683     1.0  0.79888  0.10171  0.41466  1.0000
  H   H3684     1.0  0.75034  0.19292  0.55603  1.0000
  C   C2140     1.0  0.76595  0.08537  0.63930  1.0000
  C   C2141     1.0  0.78402  0.15233  0.55997  1.0000
  C   C2142     1.0  0.76442  0.07836  0.42020  1.0000
  C   C2143     1.0  0.79386  0.29245  0.38130  1.0000
  C   C2144     1.0  0.87114  0.18968  0.62522  1.0000
  S   S620      1.0  0.75242  0.06572  0.32671  1.0000
  H   H3685     1.0  0.81576  0.11608  0.35530  1.0000
  H   H3686     1.0  0.85768  0.38238  0.37441  1.0000
  H   H3687     1.0  0.83748  0.17725  0.64056  1.0000
  H   H3688     1.0  0.84989  0.27656  0.39792  1.0000
  H   H3689     1.0  0.87813  0.28829  0.54550  1.0000
  H   H3690     1.0  0.84884  0.28937  0.53788  1.0000
  H   H3691     1.0  0.97189  0.20162  0.31883  1.0000
  H   H3692     1.0  0.78328  0.28285  0.38425  1.0000
  H   H3693     1.0  0.79222  0.14821  0.57191  1.0000
  H   H3694     1.0  0.82731  0.09241  0.39327  1.0000
  H   H3695     1.0  0.97931  0.19061  0.38495  1.0000
  C   C2145     1.0  0.83461  0.39699  0.39457  1.0000
  S   S621      1.0  0.77311  0.16800  0.41725  1.0000
  H   H3696     1.0  0.80808  0.14732  0.36043  1.0000
  H   H3697     1.0  0.84077  0.14882  0.37972  1.0000
  C   C2146     1.0  0.77164  0.03804  0.43426  1.0000
  C   C2147     1.0  0.84345  0.11628  0.40263  1.0000
  H   H3698     1.0  0.83953  0.35195  0.43796  1.0000
  H   H3699     1.0  0.89104  0.18202  0.64439  1.0000
  C   C2148     1.0  0.84633  0.37835  0.38740  1.0000
  H   H3700     1.0  0.80955  0.27615  0.40385  1.0000
  H   H3701     1.0  0.79851  0.39758  0.39183  1.0000
  H   H3702     1.0  0.79607  0.19726  0.51492  1.0000
  H   H3703     1.0  0.80155  0.18900  0.41888  1.0000
  C   C2149     1.0  0.82762  0.10610  0.38199  1.0000
  H   H3704     1.0  0.76878  0.15128  0.56686  1.0000
  C   C2150     1.0  0.92123  0.20245  0.63679  1.0000
  C   C2151     1.0  0.86454  0.11018  0.39164  1.0000
  H   H3705     1.0  0.76918  0.15578  0.52740  1.0000
  H   H3706     1.0  0.87444  0.10646  0.40204  1.0000
  C   C2152     1.0  0.78358  0.38585  0.42045  1.0000
  H   H3707     1.0  0.88601  0.17442  0.43129  1.0000
  H   H3708     1.0  0.76253  0.09410  0.62566  1.0000
  H   H3709     1.0  0.86951  0.12204  0.37977  1.0000
  H   H3710     1.0  0.83870  0.15416  0.63557  1.0000
  H   H3711     1.0  0.90307  0.33777  0.32909  1.0000
  H   H3712     1.0  0.84481  0.13434  0.36211  1.0000
  H   H3713     1.0  0.81415  0.35390  0.44180  1.0000
  H   H3714     1.0  0.78351  0.33747  0.42154  1.0000
  C   C2153     1.0  0.89119  0.22641  0.63543  1.0000
  H   H3715     1.0  0.88601  0.23168  0.33149  1.0000
  S   S622      1.0  0.74996  0.13382  0.60462  1.0000
  H   H3716     1.0  0.74079  0.10403  0.51886  1.0000
  S   S623      1.0  0.79794  0.43320  0.36341  1.0000
  C   C2154     1.0  0.78867  0.19244  0.42984  1.0000
  H   H3717     1.0  0.78617  0.37767  0.43501  1.0000
  H   H3718     1.0  0.79246  0.25277  0.40733  1.0000
  C   C2155     1.0  0.77772  0.06597  0.40860  1.0000
  C   C2156     1.0  0.81139  0.10890  0.37078  1.0000
  C   C2157     1.0  0.74523  0.25342  0.61967  1.0000
  H   H3719     1.0  0.77322  0.23807  0.56587  1.0000
  H   H3720     1.0  0.80846  0.37340  0.40104  1.0000
  H   H3721     1.0  0.83036  0.41760  0.43022  1.0000
  C   C2158     1.0  0.82666  0.35949  0.43141  1.0000
  H   H3722     1.0  0.88253  0.19572  0.61345  1.0000
  H   H3723     1.0  0.81312  0.23256  0.40821  1.0000
  H   H3724     1.0  0.80873  0.09438  0.37112  1.0000
  H   H3725     1.0  0.88211  0.33182  0.34532  1.0000
  H   H3726     1.0  0.75195  0.10400  0.35947  1.0000
  H   H3727     1.0  0.88822  0.16673  0.46432  1.0000
  H   H3728     1.0  0.83632  0.24894  0.40290  1.0000
  C   C2159     1.0  0.84734  0.26057  0.34438  1.0000
  H   H3729     1.0  0.84977  0.24189  0.38095  1.0000
  H   H3730     1.0  0.83791  0.38469  0.43079  1.0000
  H   H3731     1.0  0.77516  0.37781  0.41553  1.0000
  C   C2160     1.0  0.80808  0.41483  0.41562  1.0000
  H   H3732     1.0  0.86343  0.18291  0.61819  1.0000
  H   H3733     1.0  0.75531  0.22380  0.57786  1.0000
  C   C2161     1.0  0.76306  0.23429  0.57992  1.0000
  H   H3734     1.0  0.92575  0.17024  0.47452  1.0000
  C   C2162     1.0  0.81301  0.28149  0.38784  1.0000
  H   H3735     1.0  0.81902  0.27892  0.34864  1.0000
  C   C2163     1.0  0.90041  0.22815  0.32274  1.0000
  C   C2164     1.0  0.98379  0.17497  0.38902  1.0000
  H   H3736     1.0  0.74789  0.10017  0.48523  1.0000
  H   H3737     1.0  0.84550  0.40303  0.39833  1.0000
  H   H3738     1.0  0.84302  0.24677  0.34500  1.0000
  H   H3739     1.0  0.88045  0.99292  0.35116  1.0000
  C   C2165     1.0  0.77315  0.17562  0.49965  1.0000
  C   C2166     1.0  0.77754  0.21634  0.53372  1.0000
  H   H3740     1.0  0.76587  0.08448  0.49775  1.0000
  C   C2167     1.0  0.90736  0.30137  0.32883  1.0000
  H   H3741     1.0  0.74593  0.06790  0.36699  1.0000
  H   H3742     1.0  0.85852  0.45842  0.33860  1.0000
  N   N154      1.0  0.89111  0.31668  0.32127  1.0000
  H   H3743     1.0  0.80523  0.46302  0.32426  1.0000
  C   C2168     1.0  0.87612  0.35355  0.32047  1.0000
  C   C2169     1.0  0.75033  0.08711  0.49691  1.0000
  H   H3744     1.0  0.77133  0.98890  0.32813  1.0000
  C   C2170     1.0  0.91079  0.20879  0.32521  1.0000
  C   C2171     1.0  0.79003  0.19245  0.64699  1.0000
  C   C2172     1.0  0.83645  0.47689  0.35573  1.0000
  S   S624      1.0  0.75974  0.38671  0.32342  1.0000
  H   H3745     1.0  0.97725  0.17399  0.63398  1.0000
  C   C2173     1.0  0.78437  0.07320  0.63963  1.0000
  H   H3746     1.0  0.74792  0.17163  0.55078  1.0000
  S   S625      1.0  0.80056  0.41355  0.31717  1.0000
  H   H3747     1.0  0.85631  0.99548  0.34811  1.0000
  H   H3748     1.0  0.74440  0.42803  0.32956  1.0000
  H   H3749     1.0  0.75786  0.26412  0.58247  1.0000
  C   C2174     1.0  0.76247  0.99987  0.31844  1.0000
  H   H3750     1.0  0.74369  0.18175  0.44859  1.0000
  S   S626      1.0  0.83399  0.99789  0.31986  1.0000
  H   H3751     1.0  0.82641  0.99112  0.41750  1.0000
  H   H3752     1.0  0.86052  0.35415  0.32719  1.0000
  C   C2175     1.0  0.97960  0.17914  0.64624  1.0000
  C   C2176     1.0  0.74888  0.25304  0.58465  1.0000
  H   H3753     1.0  0.74251  0.20839  0.51893  1.0000
  H   H3754     1.0  0.79974  0.98867  0.34866  1.0000
  H   H3755     1.0  0.85902  0.99472  0.38233  1.0000
  H   H3756     1.0  0.82641  0.99117  0.36505  1.0000
  S   S627      1.0  0.74087  0.13622  0.45647  1.0000
  C   C2177     1.0  0.82611  0.98720  0.38097  1.0000
  C   C2178     1.0  0.74230  0.43944  0.31637  1.0000
  H   H3757     1.0  0.85246  0.98588  0.41564  1.0000
  C   C2179     1.0  0.86796  0.98543  0.35511  1.0000
  H   H3758     1.0  0.76714  0.01402  0.31537  1.0000
  Fe  Fe315     1.0  0.83405  0.35403  0.72249  1.0000
  S   S628      1.0  0.81495  0.34278  0.75061  1.0000
  Fe  Fe316     1.0  0.83503  0.39086  0.73567  1.0000
  S   S629      1.0  0.81583  0.38252  0.76466  1.0000
  S   S630      1.0  0.84897  0.41734  0.72745  1.0000
  Fe  Fe317     1.0  0.83381  0.35246  0.76486  1.0000
  S   S631      1.0  0.84209  0.33553  0.79318  1.0000
  Fe  Fe318     1.0  0.79870  0.37380  0.74779  1.0000
  S   S632      1.0  0.76616  0.38098  0.75603  1.0000
  S   S633      1.0  0.85446  0.36129  0.73698  1.0000
  S   S634      1.0  0.81634  0.38461  0.71840  1.0000
  Fe  Fe319     1.0  0.95262  0.23515  0.84094  1.0000
  S   S635      1.0  0.92742  0.22221  0.85959  1.0000
  C   C2180     1.0  0.80213  0.46515  0.87489  1.0000
  Fe  Fe320     1.0  0.92810  0.26241  0.81286  1.0000
  S   S636      1.0  0.90104  0.25125  0.82895  1.0000
  S   S637      1.0  0.92725  0.28525  0.78548  1.0000
  Fe  Fe321     1.0  0.91040  0.25289  0.85559  1.0000
  S   S638      1.0  0.88964  0.26835  0.87844  1.0000
  Fe  Fe322     1.0  0.92061  0.22183  0.83130  1.0000
  S   S639      1.0  0.91542  0.19404  0.82728  1.0000
  S   S640      1.0  0.93636  0.26610  0.83926  1.0000
  S   S641      1.0  0.94694  0.23282  0.81276  1.0000
  C   C2181     1.0  0.97017  0.14179  0.79994  1.0000
  C   C2182     1.0  0.88538  0.22119  0.65569  1.0000
  H   H3759     1.0  0.98125  0.24651  0.90877  1.0000
  S   S642      1.0  0.80700  0.26850  0.96565  1.0000
  H   H3760     1.0  0.81767  0.45787  0.87185  1.0000
  S   S643      1.0  0.84330  0.21989  0.95340  1.0000
  H   H3761     1.0  0.91064  0.38646  0.77182  1.0000
  Fe  Fe323     1.0  0.78181  0.26935  0.95275  1.0000
  S   S644      1.0  0.77582  0.29154  0.92596  1.0000
  H   H3762     1.0  0.95365  0.20715  0.89647  1.0000
  S   S645      1.0  0.78971  0.23798  0.95039  1.0000
  Fe  Fe324     1.0  0.88754  0.14145  0.72904  1.0000
  S   S646      1.0  0.86227  0.12942  0.72676  1.0000
  Fe  Fe325     1.0  0.89342  0.17752  0.73973  1.0000
  S   S647      1.0  0.92464  0.17383  0.72451  1.0000
  S   S648      1.0  0.88051  0.20396  0.75311  1.0000
  Fe  Fe326     1.0  0.91495  0.16643  0.70094  1.0000
  S   S649      1.0  0.88342  0.17319  0.71470  1.0000
  S   S650      1.0  0.89511  0.14631  0.75558  1.0000
  H   H3763     1.0  0.84163  0.37627  0.79260  1.0000
  Fe  Fe327     1.0  0.92620  0.14236  0.73867  1.0000
  H   H3764     1.0  0.89284  0.20246  0.68208  1.0000
  H   H3765     1.0  0.97880  0.19469  0.82199  1.0000
  Fe  Fe328     1.0  0.83682  0.03351  0.72004  1.0000
  S   S651      1.0  0.81158  0.05485  0.70956  1.0000
  S   S652      1.0  0.86187  0.04198  0.72710  1.0000
  S   S653      1.0  0.79428  0.01682  0.70928  1.0000
  Fe  Fe329     1.0  0.81493  0.03504  0.68916  1.0000
  H   H3766     1.0  0.86305  0.19151  0.67135  1.0000
  Fe  Fe330     1.0  0.79316  0.03492  0.73058  1.0000
  S   S654      1.0  0.76396  0.04783  0.74704  1.0000
  S   S655      1.0  0.84172  0.01492  0.69796  1.0000
  C   C2183     1.0  0.77300  0.35604  0.78999  1.0000
  C   C2184     1.0  0.77295  0.18495  0.65256  1.0000
  H   H3767     1.0  0.77064  0.25125  0.89558  1.0000
  S   S656      1.0  0.81807  0.01496  0.74303  1.0000
  H   H3768     1.0  0.82388  0.11146  0.67748  1.0000
  H   H3769     1.0  0.76849  0.20710  0.95414  1.0000
  H   H3770     1.0  0.86838  0.36456  0.77159  1.0000
  H   H3771     1.0  0.79648  0.10134  0.70091  1.0000
  C   C2185     1.0  0.81641  0.11284  0.66542  1.0000
  C   C2186     1.0  0.74718  0.43149  0.81688  1.0000
  C   C2187     1.0  0.85802  0.15221  0.65502  1.0000
  H   H3772     1.0  0.83041  0.18756  0.69270  1.0000
  H   H3773     1.0  0.77829  0.05418  0.68830  1.0000
  C   C2188     1.0  0.76587  0.10904  0.69897  1.0000
  C   C2189     1.0  0.97104  0.13911  0.74918  1.0000
  S   S657      1.0  0.83420  0.47423  0.78568  1.0000
  C   C2190     1.0  0.77335  0.02506  0.78126  1.0000
  C   C2191     1.0  0.76880  0.01565  0.80082  1.0000
  H   H3774     1.0  0.78832  0.02419  0.77389  1.0000
  H   H3775     1.0  0.85703  0.40571  0.78584  1.0000
  C   C2192     1.0  0.86372  0.10532  0.72478  1.0000
  C   C2193     1.0  0.87880  0.09018  0.73024  1.0000
  C   C2194     1.0  0.87837  0.07086  0.73026  1.0000
  C   C2195     1.0  0.86300  0.06658  0.72466  1.0000
  C   C2196     1.0  0.84828  0.08184  0.71852  1.0000
  C   C2197     1.0  0.84859  0.10112  0.71872  1.0000
  H   H3776     1.0  0.89048  0.09329  0.73498  1.0000
  H   H3777     1.0  0.88982  0.05914  0.73498  1.0000
  H   H3778     1.0  0.83642  0.07874  0.71416  1.0000
  H   H3779     1.0  0.83685  0.11279  0.71459  1.0000
  H   H3780     1.0  0.98015  0.12051  0.71187  1.0000
  C   C2198     1.0  0.88801  0.36242  0.79783  1.0000
  H   H3781     1.0  0.91048  0.33646  0.80187  1.0000
  C   C2199     1.0  0.90586  0.19718  0.80653  1.0000
  C   C2200     1.0  0.91054  0.18196  0.79645  1.0000
  C   C2201     1.0  0.90312  0.18422  0.77979  1.0000
  C   C2202     1.0  0.89036  0.20139  0.77359  1.0000
  C   C2203     1.0  0.88545  0.21653  0.78383  1.0000
  C   C2204     1.0  0.89350  0.21458  0.80008  1.0000
  H   H3782     1.0  0.92004  0.16846  0.80142  1.0000
  H   H3783     1.0  0.90715  0.17254  0.77190  1.0000
  H   H3784     1.0  0.87534  0.22966  0.77929  1.0000
  H   H3785     1.0  0.88967  0.22629  0.80795  1.0000
  S   S658      1.0  0.79973  0.19760  0.66456  1.0000
  H   H3786     1.0  0.75582  0.31292  0.89576  1.0000
  H   H3787     1.0  0.79758  0.14916  0.66376  1.0000
  C   C2205     1.0  0.84583  0.38123  0.80389  1.0000
  H   H3788     1.0  0.87926  0.42384  0.77200  1.0000
  C   C2206     1.0  0.85036  0.29355  0.74441  1.0000
  H   H3789     1.0  0.94577  0.27626  0.91253  1.0000
  C   C2207     1.0  0.87729  0.25443  0.89922  1.0000
  C   C2208     1.0  0.88001  0.23420  0.90182  1.0000
  C   C2209     1.0  0.86975  0.22360  0.91864  1.0000
  C   C2210     1.0  0.85653  0.23323  0.93271  1.0000
  C   C2211     1.0  0.85405  0.25342  0.93013  1.0000
  C   C2212     1.0  0.86442  0.26398  0.91346  1.0000
  H   H3790     1.0  0.88990  0.22672  0.89087  1.0000
  H   H3791     1.0  0.87178  0.20795  0.92061  1.0000
  H   H3792     1.0  0.84427  0.26091  0.94106  1.0000
  H   H3793     1.0  0.86238  0.27961  0.91161  1.0000
  H   H3794     1.0  0.78826  0.35562  0.78392  1.0000
  C   C2213     1.0  0.84530  0.43232  0.74435  1.0000
  C   C2214     1.0  0.75903  0.36706  0.77920  1.0000
  H   H3795     1.0  0.84131  0.30003  0.73317  1.0000
  C   C2215     1.0  0.87638  0.37676  0.76681  1.0000
  C   C2216     1.0  0.82896  0.44257  0.77492  1.0000
  C   C2217     1.0  0.83195  0.42993  0.76210  1.0000
  H   H3796     1.0  0.82982  0.46534  0.83378  1.0000
  C   C2218     1.0  0.75646  0.07448  0.67420  1.0000
  H   H3797     1.0  0.81851  0.44074  0.78856  1.0000
  H   H3798     1.0  0.82374  0.41853  0.76587  1.0000
  C   C2219     1.0  0.86584  0.32177  0.79071  1.0000
  C   C2220     1.0  0.87757  0.32037  0.77232  1.0000
  C   C2221     1.0  0.89669  0.30961  0.77070  1.0000
  C   C2222     1.0  0.90388  0.29977  0.78750  1.0000
  C   C2223     1.0  0.89218  0.30127  0.80589  1.0000
  C   C2224     1.0  0.87322  0.31236  0.80748  1.0000
  H   H3799     1.0  0.87191  0.32733  0.75934  1.0000
  H   H3800     1.0  0.90577  0.30849  0.75648  1.0000
  H   H3801     1.0  0.89783  0.29403  0.81891  1.0000
  H   H3802     1.0  0.86428  0.31364  0.82172  1.0000
  S   S659      1.0  0.91877  0.13445  0.71361  1.0000
  H   H3803     1.0  0.79829  0.46869  0.84553  1.0000
  H   H3804     1.0  0.89631  0.24314  0.74601  1.0000
  H   H3805     1.0  0.82185  0.29552  0.76391  1.0000
  Fe  Fe331     1.0  0.82065  0.99816  0.72003  1.0000
  H   H3806     1.0  0.75149  0.44476  0.83886  1.0000
  H   H3807     1.0  0.80870  0.47014  0.74331  1.0000
  C   C2225     1.0  0.89904  0.25692  0.74780  1.0000
  H   H3808     1.0  0.77812  0.33746  0.81730  1.0000
  H   H3809     1.0  0.75683  0.10546  0.69062  1.0000
  N   N155      1.0  0.82746  0.06021  0.78089  1.0000
  C   C2226     1.0  0.83261  0.08015  0.77370  1.0000
  C   C2227     1.0  0.81690  0.05756  0.76660  1.0000
  C   C2228     1.0  0.84624  0.04528  0.78106  1.0000
  C   C2229     1.0  0.81504  0.05958  0.80113  1.0000
  C   C2230     1.0  0.84664  0.08476  0.78397  1.0000
  C   C2231     1.0  0.79731  0.07173  0.76504  1.0000
  C   C2232     1.0  0.84565  0.02416  0.78098  1.0000
  C   C2233     1.0  0.80560  0.04164  0.81058  1.0000
  H   H3810     1.0  0.83947  0.08232  0.75795  1.0000
  H   H3811     1.0  0.81939  0.09191  0.77499  1.0000
  H   H3812     1.0  0.81385  0.04274  0.76987  1.0000
  H   H3813     1.0  0.82628  0.05892  0.75173  1.0000
  H   H3814     1.0  0.85751  0.04954  0.76797  1.0000
  H   H3815     1.0  0.85231  0.04466  0.79390  1.0000
  H   H3816     1.0  0.82371  0.06030  0.81147  1.0000
  H   H3817     1.0  0.80326  0.07282  0.80178  1.0000
  H   H3818     1.0  0.84085  0.08380  0.79982  1.0000
  H   H3819     1.0  0.86133  0.07537  0.78139  1.0000
  H   H3820     1.0  0.84865  0.09999  0.77764  1.0000
  H   H3821     1.0  0.79904  0.08704  0.75939  1.0000
  H   H3822     1.0  0.79093  0.06799  0.75441  1.0000
  H   H3823     1.0  0.78667  0.07037  0.77912  1.0000
  H   H3824     1.0  0.85994  0.01470  0.78299  1.0000
  H   H3825     1.0  0.84369  0.02291  0.76668  1.0000
  H   H3826     1.0  0.83445  0.01809  0.79275  1.0000
  H   H3827     1.0  0.81507  0.03024  0.81941  1.0000
  H   H3828     1.0  0.80180  0.03518  0.80015  1.0000
  H   H3829     1.0  0.79149  0.04609  0.82040  1.0000
  N   N156      1.0  0.82394  0.28296  0.86884  1.0000
  C   C2234     1.0  0.83225  0.28265  0.84751  1.0000
  C   C2235     1.0  0.80220  0.28982  0.87118  1.0000
  C   C2236     1.0  0.82845  0.26226  0.88008  1.0000
  C   C2237     1.0  0.83350  0.29614  0.87493  1.0000
  C   C2238     1.0  0.85406  0.27357  0.84241  1.0000
  C   C2239     1.0  0.79537  0.30924  0.85758  1.0000
  C   C2240     1.0  0.81823  0.25796  0.90167  1.0000
  C   C2241     1.0  0.82177  0.30621  0.89196  1.0000
  H   H3830     1.0  0.82427  0.27460  0.84197  1.0000
  H   H3831     1.0  0.83050  0.29767  0.83841  1.0000
  H   H3832     1.0  0.79523  0.29154  0.88632  1.0000
  H   H3833     1.0  0.79556  0.27864  0.86860  1.0000
  H   H3834     1.0  0.82471  0.25210  0.87298  1.0000
  H   H3835     1.0  0.84431  0.25739  0.87995  1.0000
  H   H3836     1.0  0.84765  0.28807  0.87886  1.0000
  H   H3837     1.0  0.83738  0.30818  0.86254  1.0000
  H   H3838     1.0  0.85893  0.27607  0.82629  1.0000
  H   H3839     1.0  0.86310  0.28024  0.84807  1.0000
  H   H3840     1.0  0.85693  0.25755  0.84780  1.0000
  H   H3841     1.0  0.79671  0.30707  0.84262  1.0000
  H   H3842     1.0  0.77972  0.31496  0.86306  1.0000
  H   H3843     1.0  0.80358  0.32050  0.85679  1.0000
  H   H3844     1.0  0.82225  0.24207  0.90756  1.0000
  H   H3845     1.0  0.80218  0.26155  0.90382  1.0000
  H   H3846     1.0  0.82328  0.26511  0.91066  1.0000
  H   H3847     1.0  0.80915  0.31744  0.88787  1.0000
  H   H3848     1.0  0.83130  0.31380  0.89589  1.0000
  H   H3849     1.0  0.81654  0.29600  0.90529  1.0000
  H   H3850     1.0  0.96604  0.18954  0.65072  1.0000
  C   C2242     1.0  0.91507  0.19666  0.65695  1.0000
  H   H3851     1.0  0.83953  0.47393  0.67210  1.0000
  H   H3852     1.0  0.88937  0.36565  0.81161  1.0000
  H   H3853     1.0  0.82689  0.46150  0.71638  1.0000
  C   C2243     1.0  0.79563  0.47812  0.85629  1.0000
  C   C2244     1.0  0.97051  0.18281  0.82527  1.0000
  C   C2245     1.0  0.74750  0.34698  0.81735  1.0000
  H   H3854     1.0  0.75891  0.39559  0.83929  1.0000
  S   S660      1.0  0.98218  0.22036  0.84721  1.0000
  C   C2246     1.0  0.98640  0.25173  0.85945  1.0000
  C   C2247     1.0  0.96577  0.15526  0.81461  1.0000
  H   H3855     1.0  0.93980  0.20925  0.92045  1.0000
  H   H3856     1.0  0.95023  0.16288  0.81583  1.0000
  H   H3857     1.0  0.90532  0.12964  0.67764  1.0000
  H   H3858     1.0  0.84497  0.48231  0.82020  1.0000
  H   H3859     1.0  0.79001  0.08999  0.68562  1.0000
  H   H3860     1.0  0.85379  0.14155  0.66868  1.0000
  H   H3861     1.0  0.95121  0.23942  0.88518  1.0000
  H   H3862     1.0  0.76200  0.02963  0.96714  1.0000
  H   H3863     1.0  0.79354  0.45344  0.88062  1.0000
  H   H3864     1.0  0.96994  0.15516  0.66671  1.0000
  C   C2248     1.0  0.85573  0.44734  0.73960  1.0000
  H   H3865     1.0  0.88701  0.41175  0.75146  1.0000
  H   H3866     1.0  0.76030  0.38296  0.82024  1.0000
  C   C2249     1.0  0.84060  0.31047  0.68079  1.0000
  C   C2250     1.0  0.74407  0.24440  0.91535  1.0000
  H   H3867     1.0  0.95893  0.26565  0.89225  1.0000
  H   H3868     1.0  0.91837  0.26294  0.93487  1.0000
  C   C2251     1.0  0.75568  0.20076  0.95862  1.0000
  C   C2252     1.0  0.83901  0.46359  0.68627  1.0000
  H   H3869     1.0  0.74776  0.44549  0.80619  1.0000
  C   C2253     1.0  0.75114  0.19145  0.94605  1.0000
  H   H3870     1.0  0.76637  0.25861  0.91813  1.0000
  H   H3871     1.0  0.95034  0.20050  0.79459  1.0000
  H   H3872     1.0  0.97973  0.12772  0.80484  1.0000
  H   H3873     1.0  0.74573  0.07488  0.68762  1.0000
  H   H3874     1.0  0.96008  0.16239  0.85216  1.0000
  H   H3875     1.0  0.97233  0.25895  0.85614  1.0000
  H   H3876     1.0  0.79944  0.47334  0.88664  1.0000
  H   H3877     1.0  0.75177  0.23016  0.92269  1.0000
  S   S661      1.0  0.78806  0.25401  0.65130  1.0000
  C   C2254     1.0  0.75069  0.38865  0.83297  1.0000
  C   C2255     1.0  0.75209  0.08618  0.65667  1.0000
  H   H3878     1.0  0.79324  0.15615  0.69565  1.0000
  C   C2256     1.0  0.96056  0.19170  0.78444  1.0000
  H   H3879     1.0  0.75479  0.44082  0.77598  1.0000
  H   H3880     1.0  0.83361  0.16394  0.68768  1.0000
  H   H3881     1.0  0.90788  0.26102  0.91590  1.0000
  C   C2257     1.0  0.97618  0.13324  0.70027  1.0000
  C   C2258     1.0  0.96968  0.17318  0.84701  1.0000
  H   H3882     1.0  0.90979  0.14474  0.65408  1.0000
  H   H3883     1.0  0.83553  0.28992  0.66649  1.0000
  C   C2259     1.0  0.75177  0.30436  0.92702  1.0000
  H   H3884     1.0  0.80923  0.46650  0.70260  1.0000
  C   C2260     1.0  0.94019  0.21506  0.90478  1.0000
  C   C2261     1.0  0.78893  0.06205  0.65734  1.0000
  N   N157      1.0  0.93877  0.24873  0.91270  1.0000
  H   H3885     1.0  0.82635  0.15930  0.65878  1.0000
  H   H3886     1.0  0.91661  0.28816  0.89779  1.0000
  C   C2262     1.0  0.91869  0.25311  0.92513  1.0000
  C   C2263     1.0  0.93888  0.23736  0.89784  1.0000
  H   H3887     1.0  0.96602  0.14539  0.82909  1.0000
  H   H3888     1.0  0.76560  0.18259  0.66772  1.0000
  H   H3889     1.0  0.76252  0.42330  0.81538  1.0000
  H   H3890     1.0  0.85343  0.45983  0.69041  1.0000
  H   H3891     1.0  0.95165  0.20587  0.68307  1.0000
  N   N158      1.0  0.97896  0.16948  0.81087  1.0000
  H   H3892     1.0  0.84487  0.19158  0.65937  1.0000
  C   C2264     1.0  0.75906  0.25769  0.90682  1.0000
  C   C2265     1.0  0.89828  0.13835  0.66536  1.0000
  C   C2266     1.0  0.98122  0.16991  0.74340  1.0000
  H   H3893     1.0  0.92562  0.24329  0.89150  1.0000
  H   H3894     1.0  0.86622  0.44916  0.72598  1.0000
  H   H3895     1.0  0.85503  0.31099  0.67202  1.0000
  H   H3896     1.0  0.82101  0.08079  0.67104  1.0000
  H   H3897     1.0  0.91996  0.35665  0.78639  1.0000
  H   H3898     1.0  0.90042  0.29752  0.72620  1.0000
  H   H3899     1.0  0.87875  0.31564  0.72215  1.0000
  H   H3900     1.0  0.84104  0.25112  0.72375  1.0000
  H   H3901     1.0  0.85555  0.30622  0.74579  1.0000
  C   C2267     1.0  0.93068  0.28187  0.88908  1.0000
  C   C2268     1.0  0.76724  0.34579  0.80895  1.0000
  H   H3902     1.0  0.80825  0.32969  0.71749  1.0000
  H   H3903     1.0  0.86599  0.38937  0.76026  1.0000
  C   C2269     1.0  0.87829  0.28640  0.71819  1.0000
  H   H3904     1.0  0.86831  0.29272  0.70780  1.0000
  H   H3905     1.0  0.83290  0.39145  0.81008  1.0000
  H   H3906     1.0  0.97679  0.14832  0.78502  1.0000
  C   C2270     1.0  0.88890  0.30264  0.71751  1.0000
  C   C2271     1.0  0.83701  0.28750  0.76431  1.0000
  C   C2272     1.0  0.97029  0.17769  0.69122  1.0000
  H   H3907     1.0  0.81275  0.13574  0.69331  1.0000
  H   H3908     1.0  0.84182  0.29103  0.77618  1.0000
  S   S662      1.0  0.84737  0.33609  0.69924  1.0000
  H   H3909     1.0  0.83605  0.45024  0.68364  1.0000
  C   C2273     1.0  0.94440  0.26799  0.90206  1.0000
  H   H3910     1.0  0.90399  0.42038  0.75949  1.0000
  H   H3911     1.0  0.75335  0.42438  0.76202  1.0000
  H   H3912     1.0  0.89611  0.30763  0.70216  1.0000
  H   H3913     1.0  0.74145  0.26622  0.94215  1.0000
  C   C2274     1.0  0.86294  0.39198  0.79532  1.0000
  H   H3914     1.0  0.78181  0.98883  0.74914  1.0000
  H   H3915     1.0  0.95337  0.18064  0.78263  1.0000
  S   S663      1.0  0.92865  0.17589  0.66944  1.0000
  C   C2275     1.0  0.97462  0.23343  0.91477  1.0000
  H   H3916     1.0  0.83005  0.27271  0.73314  1.0000
  Fe  Fe332     1.0  0.80872  0.26554  0.66178  1.0000
  C   C2276     1.0  0.89106  0.41346  0.76460  1.0000
  C   C2277     1.0  0.81432  0.32098  0.70647  1.0000
  C   C2278     1.0  0.83827  0.47549  0.83518  1.0000
  H   H3917     1.0  0.97098  0.17524  0.70683  1.0000
  H   H3918     1.0  0.88851  0.16419  0.67733  1.0000
  S   S664      1.0  0.81242  0.04821  0.65810  1.0000
  C   C2279     1.0  0.74569  0.31354  0.90955  1.0000
  H   H3919     1.0  0.90819  0.37065  0.75214  1.0000
  C   C2280     1.0  0.79040  0.13910  0.67619  1.0000
  C   C2281     1.0  0.89742  0.20643  0.66647  1.0000
  H   H3920     1.0  0.78889  0.30852  0.71211  1.0000
  C   C2282     1.0  0.84383  0.26504  0.72517  1.0000
  H   H3921     1.0  0.92806  0.27472  0.87847  1.0000
  H   H3922     1.0  0.86052  0.47180  0.74839  1.0000
  H   H3923     1.0  0.75480  0.07988  0.96374  1.0000
  C   C2283     1.0  0.96726  0.20003  0.68363  1.0000
  C   C2284     1.0  0.83299  0.32174  0.69519  1.0000
  H   H3924     1.0  0.94958  0.22513  0.93536  1.0000
  H   H3925     1.0  0.90650  0.34355  0.77777  1.0000
  Fe  Fe333     1.0  0.81012  0.22610  0.65351  1.0000
  H   H3926     1.0  0.84891  0.36875  0.81598  1.0000
  C   C2285     1.0  0.80335  0.30900  0.70338  1.0000
  N   N159      1.0  0.86728  0.27800  0.73796  1.0000
  H   H3927     1.0  0.83639  0.27187  0.76804  1.0000
  C   C2286     1.0  0.85472  0.18178  0.66873  1.0000
  H   H3928     1.0  0.84752  0.27363  0.71020  1.0000
  H   H3929     1.0  0.89306  0.12810  0.65983  1.0000
  S   S665      1.0  0.95305  0.12585  0.75088  1.0000
  H   H3930     1.0  0.86614  0.39644  0.80764  1.0000
  C   C2287     1.0  0.81090  0.29779  0.68893  1.0000
  H   H3931     1.0  0.87164  0.22852  0.66306  1.0000
  H   H3932     1.0  0.84979  0.16895  0.70027  1.0000
  H   H3933     1.0  0.97037  0.20714  0.69409  1.0000
  H   H3934     1.0  0.87321  0.14682  0.68663  1.0000
  C   C2288     1.0  0.85248  0.46020  0.75224  1.0000
  H   H3935     1.0  0.89156  0.38241  0.73620  1.0000
  H   H3936     1.0  0.75257  0.27250  0.89967  1.0000
  C   C2289     1.0  0.86056  0.26053  0.73619  1.0000
  H   H3937     1.0  0.88929  0.27480  0.71162  1.0000
  Fe  Fe334     1.0  0.81372  0.23655  0.96535  1.0000
  H   H3938     1.0  0.85610  0.25124  0.75070  1.0000
  H   H3939     1.0  0.87276  0.25062  0.72848  1.0000
  C   C2290     1.0  0.74938  0.01683  0.81062  1.0000
  H   H3940     1.0  0.96324  0.20168  0.77004  1.0000
  N   N160      1.0  0.88121  0.38103  0.78417  1.0000
  H   H3941     1.0  0.84423  0.48408  0.71760  1.0000
  H   H3942     1.0  0.89338  0.35723  0.74716  1.0000
  C   C2291     1.0  0.87995  0.27160  0.75289  1.0000
  H   H3943     1.0  0.87190  0.26468  0.76718  1.0000
  C   C2292     1.0  0.79684  0.14060  0.69439  1.0000
  H   H3944     1.0  0.91891  0.22662  0.94875  1.0000
  H   H3945     1.0  0.95632  0.13881  0.79859  1.0000
  C   C2293     1.0  0.98327  0.16142  0.66284  1.0000
  C   C2294     1.0  0.95329  0.23868  0.92558  1.0000
  H   H3946     1.0  0.88370  0.28432  0.75595  1.0000
  H   H3947     1.0  0.77465  0.14576  0.67766  1.0000
  H   H3948     1.0  0.78031  0.00740  0.80839  1.0000
  H   H3949     1.0  0.96177  0.14141  0.70646  1.0000
  H   H3950     1.0  0.75895  0.40563  0.79346  1.0000
  C   C2295     1.0  0.83896  0.45795  0.76986  1.0000
  S   S666      1.0  0.79662  0.28300  0.68550  1.0000
  C   C2296     1.0  0.78770  0.10441  0.68951  1.0000
  H   H3951     1.0  0.90894  0.26304  0.73454  1.0000
  S   S667      1.0  0.82952  0.23672  0.66650  1.0000
  H   H3952     1.0  0.76352  0.10036  0.71412  1.0000
  H   H3953     1.0  0.95672  0.17319  0.69138  1.0000
  C   C2297     1.0  0.90738  0.34940  0.79015  1.0000
  C   C2298     1.0  0.84152  0.17486  0.68842  1.0000
  H   H3954     1.0  0.87715  0.35287  0.80210  1.0000
  H   H3955     1.0  0.90687  0.25309  0.76002  1.0000
  H   H3956     1.0  0.76054  0.12440  0.70046  1.0000
  C   C2299     1.0  0.75852  0.03586  0.77149  1.0000
  H   H3957     1.0  0.78906  0.13244  0.70801  1.0000
  C   C2300     1.0  0.82958  0.29853  0.67764  1.0000
  H   H3958     1.0  0.76848  0.12617  0.66014  1.0000
  C   C2301     1.0  0.77491  0.06266  0.67458  1.0000
  H   H3959     1.0  0.92778  0.21091  0.90157  1.0000
  N   N161      1.0  0.86842  0.16587  0.65909  1.0000
  H   H3960     1.0  0.89555  0.24114  0.94658  1.0000
  C   C2302     1.0  0.89350  0.37161  0.74989  1.0000
  H   H3961     1.0  0.90741  0.22649  0.92916  1.0000
  H   H3962     1.0  0.95303  0.24797  0.93582  1.0000
  H   H3963     1.0  0.97619  0.22568  0.90291  1.0000
  H   H3964     1.0  0.97506  0.12724  0.68805  1.0000
  H   H3965     1.0  0.85008  0.46642  0.84268  1.0000
  H   H3966     1.0  0.95175  0.16709  0.74662  1.0000
  H   H3967     1.0  0.96329  0.18463  0.85582  1.0000
  C   C2303     1.0  0.82283  0.47086  0.70273  1.0000
  H   H3968     1.0  0.97759  0.18566  0.74071  1.0000
  C   C2304     1.0  0.88161  0.15432  0.67295  1.0000
  H   H3969     1.0  0.97563  0.20500  0.66895  1.0000
  C   C2305     1.0  0.89612  0.39379  0.77860  1.0000
  N   N162      1.0  0.79470  0.11901  0.67182  1.0000
  H   H3970     1.0  0.95537  0.19019  0.82420  1.0000
  C   C2306     1.0  0.74586  0.43089  0.77501  1.0000
  H   H3971     1.0  0.78461  0.10483  0.65446  1.0000
  H   H3972     1.0  0.98343  0.22363  0.92525  1.0000
  H   H3973     1.0  0.76041  0.19081  0.93181  1.0000
  H   H3974     1.0  0.93758  0.29432  0.88049  1.0000
  H   H3975     1.0  0.89862  0.39705  0.79191  1.0000
  C   C2307     1.0  0.91008  0.23559  0.93802  1.0000
  C   C2308     1.0  0.96657  0.15941  0.74633  1.0000
  H   H3976     1.0  0.74680  0.37581  0.84416  1.0000
  H   H3977     1.0  0.74325  0.29842  0.95835  1.0000
  Fe  Fe335     1.0  0.77154  0.23232  0.98053  1.0000
  C   C2309     1.0  0.98017  0.18224  0.79073  1.0000
  H   H3978     1.0  0.75541  0.99101  0.77953  1.0000
  H   H3979     1.0  0.74265  0.24113  0.95227  1.0000
  H   H3980     1.0  0.98433  0.16649  0.85024  1.0000
  H   H3981     1.0  0.74390  0.31693  0.78213  1.0000
  N   N163      1.0  0.98763  0.16513  0.68071  1.0000
  C   C2310     1.0  0.74352  0.20198  0.97684  1.0000
  C   C2311     1.0  0.74812  0.06939  0.97614  1.0000
  C   C2312     1.0  0.74083  0.43700  0.83715  1.0000
  C   C2313     1.0  0.78426  0.11974  0.65607  1.0000
  C   C2314     1.0  0.82355  0.09318  0.65874  1.0000
  H   H3982     1.0  0.98807  0.19406  0.78929  1.0000
  C   C2315     1.0  0.76606  0.99151  0.74919  1.0000
  H   H3983     1.0  0.76387  0.98628  0.73695  1.0000
  C   C2316     1.0  0.74397  0.41429  0.79315  1.0000
  C   C2317     1.0  0.99022  0.12932  0.75030  1.0000
  H   H3984     1.0  0.82239  0.12410  0.65338  1.0000
  H   H3985     1.0  0.83952  0.09092  0.65312  1.0000
  H   H3986     1.0  0.98884  0.17421  0.77925  1.0000
  H   H3987     1.0  0.76083  0.00755  0.74622  1.0000
  S   S668      1.0  0.74391  0.00474  0.83498  1.0000
  H   H3988     1.0  0.74610  0.01320  0.96930  1.0000
  H   H3989     1.0  0.99039  0.27595  0.86926  1.0000
  C   C2318     1.0  0.75280  0.01981  0.97752  1.0000
  H   H3990     1.0  0.77947  0.48242  0.86022  1.0000
  H   H3991     1.0  0.76022  0.05753  0.98033  1.0000
  H   H3992     1.0  0.78003  0.56286  0.22533  1.0000
  H   H3993     1.0  0.78968  0.70209  0.12083  1.0000
  C   C2319     1.0  0.81651  0.55781  0.09418  1.0000
  C   C2320     1.0  0.89321  0.82358  0.24543  1.0000
  H   H3994     1.0  0.75351  0.94410  0.21133  1.0000
  H   H3995     1.0  0.98118  0.73504  0.24659  1.0000
  S   S669      1.0  0.82503  0.57983  0.00874  1.0000
  C   C2321     1.0  0.74809  0.60437  0.20332  1.0000
  H   H3996     1.0  0.76919  0.56647  0.20453  1.0000
  H   H3997     1.0  0.91540  0.64924  0.10842  1.0000
  Fe  Fe336     1.0  0.92083  0.65726  0.24418  1.0000
  S   S670      1.0  0.94554  0.63152  0.24651  1.0000
  S   S671      1.0  0.91073  0.67825  0.26465  1.0000
  Fe  Fe337     1.0  0.90933  0.64612  0.21114  1.0000
  S   S672      1.0  0.88505  0.65515  0.19439  1.0000
  Fe  Fe338     1.0  0.92489  0.61474  0.24339  1.0000
  S   S673      1.0  0.92206  0.58502  0.26177  1.0000
  S   S674      1.0  0.89960  0.63994  0.24347  1.0000
  S   S675      1.0  0.92842  0.66609  0.21158  1.0000
  S   S676      1.0  0.78007  0.60741  0.98246  1.0000
  C   C2322     1.0  0.82859  0.82421  0.26287  1.0000
  C   C2323     1.0  0.84842  0.62716  0.25560  1.0000
  H   H3998     1.0  0.82454  0.55579  0.10596  1.0000
  H   H3999     1.0  0.75749  0.63389  0.21905  1.0000
  Fe  Fe339     1.0  0.80417  0.63372  0.13862  1.0000
  S   S677      1.0  0.82907  0.64140  0.11447  1.0000
  S   S678      1.0  0.78522  0.65577  0.15591  1.0000
  Fe  Fe340     1.0  0.81374  0.59161  0.13513  1.0000
  S   S679      1.0  0.83946  0.59539  0.11060  1.0000
  S   S680      1.0  0.80613  0.56225  0.14823  1.0000
  Fe  Fe341     1.0  0.84618  0.61323  0.12858  1.0000
  S   S681      1.0  0.87599  0.60831  0.13547  1.0000
  Fe  Fe342     1.0  0.82010  0.62305  0.09863  1.0000
  S   S682      1.0  0.81317  0.63476  0.06843  1.0000
  S   S683      1.0  0.82188  0.60711  0.15394  1.0000
  S   S684      1.0  0.79380  0.61775  0.12186  1.0000
  H   H4000     1.0  0.93225  0.68753  0.14515  1.0000
  C   C2324     1.0  0.76008  0.65686  0.16066  1.0000
  C   C2325     1.0  0.76072  0.64007  0.01461  1.0000
  H   H4001     1.0  0.90071  0.64962  0.31127  1.0000
  H   H4002     1.0  0.96270  0.62508  0.17269  1.0000
  H   H4003     1.0  0.89849  0.83536  0.24855  1.0000
  H   H4004     1.0  0.87888  0.86397  0.27554  1.0000
  H   H4005     1.0  0.76192  0.63145  0.14952  1.0000
  C   C2326     1.0  0.76269  0.85132  0.27214  1.0000
  H   H4006     1.0  0.78779  0.64411  0.20425  1.0000
  H   H4007     1.0  0.76237  0.90830  0.28419  1.0000
  H   H4008     1.0  0.82514  0.97829  0.28152  1.0000
  C   C2327     1.0  0.87080  0.82737  0.24959  1.0000
  C   C2328     1.0  0.76776  0.57989  0.15822  1.0000
  C   C2329     1.0  0.78188  0.56277  0.16049  1.0000
  C   C2330     1.0  0.77657  0.54568  0.17245  1.0000
  H   H4009     1.0  0.77325  0.72493  0.12494  1.0000
  H   H4010     1.0  0.76034  0.68646  0.12979  1.0000
  H   H4011     1.0  0.77168  0.59307  0.14897  1.0000
  H   H4012     1.0  0.78740  0.53235  0.17407  1.0000
  C   C2331     1.0  0.77213  0.59640  0.24733  1.0000
  C   C2332     1.0  0.87753  0.62027  0.15321  1.0000
  C   C2333     1.0  0.89334  0.61375  0.16268  1.0000
  C   C2334     1.0  0.89535  0.62380  0.17609  1.0000
  C   C2335     1.0  0.88191  0.64078  0.17957  1.0000
  C   C2336     1.0  0.86587  0.64697  0.17050  1.0000
  C   C2337     1.0  0.86356  0.63664  0.15752  1.0000
  H   H4013     1.0  0.90406  0.60094  0.15955  1.0000
  H   H4014     1.0  0.90746  0.61865  0.18343  1.0000
  H   H4015     1.0  0.85534  0.66004  0.17324  1.0000
  H   H4016     1.0  0.85131  0.64174  0.15034  1.0000
  H   H4017     1.0  0.77735  0.87529  0.25800  1.0000
  C   C2338     1.0  0.75444  0.70450  0.98457  1.0000
  H   H4018     1.0  0.89475  0.57040  0.23849  1.0000
  C   C2339     1.0  0.76232  0.55132  0.29006  1.0000
  C   C2340     1.0  0.93510  0.65684  0.16128  1.0000
  C   C2341     1.0  0.78115  0.56927  0.20958  1.0000
  C   C2342     1.0  0.78816  0.62830  0.20619  1.0000
  H   H4019     1.0  0.86690  0.81690  0.24303  1.0000
  C   C2343     1.0  0.85490  0.58585  0.25114  1.0000
  H   H4020     1.0  0.80899  0.55286  0.06227  1.0000
  C   C2344     1.0  0.74663  0.54713  0.30522  1.0000
  H   H4021     1.0  0.86188  0.83510  0.29643  1.0000
  H   H4022     1.0  0.79665  0.56429  0.04283  1.0000
  H   H4023     1.0  0.75042  0.63453  0.00946  1.0000
  H   H4024     1.0  0.82658  0.56130  0.08000  1.0000
  H   H4025     1.0  0.89808  0.61673  0.27920  1.0000
  C   C2345     1.0  0.78488  0.86156  0.28593  1.0000
  H   H4026     1.0  0.81299  0.54348  0.09573  1.0000
  C   C2346     1.0  0.83042  0.49649  0.30452  1.0000
  H   H4027     1.0  0.80015  0.96716  0.31128  1.0000
  C   C2347     1.0  0.92297  0.69208  0.29030  1.0000
  C   C2348     1.0  0.92843  0.68069  0.27602  1.0000
  C   C2349     1.0  0.94784  0.67131  0.27116  1.0000
  C   C2350     1.0  0.96161  0.67292  0.28088  1.0000
  H   H4028     1.0  0.98854  0.67970  0.23700  1.0000
  H   H4029     1.0  0.90801  0.69951  0.29397  1.0000
  H   H4030     1.0  0.95228  0.66292  0.25986  1.0000
  C   C2351     1.0  0.86358  0.59042  0.30409  1.0000
  H   H4031     1.0  0.82993  0.57871  0.27358  1.0000
  H   H4032     1.0  0.85990  0.58694  0.26408  1.0000
  H   H4033     1.0  0.85463  0.63288  0.22403  1.0000
  C   C2352     1.0  0.82233  0.59554  0.02472  1.0000
  C   C2353     1.0  0.81090  0.61430  0.02198  1.0000
  C   C2354     1.0  0.80837  0.62624  0.03539  1.0000
  C   C2355     1.0  0.81724  0.61951  0.05163  1.0000
  C   C2356     1.0  0.82897  0.60087  0.05417  1.0000
  C   C2357     1.0  0.83148  0.58893  0.04076  1.0000
  H   H4034     1.0  0.80409  0.61960  0.00947  1.0000
  H   H4035     1.0  0.79953  0.64074  0.03317  1.0000
  H   H4036     1.0  0.83619  0.59571  0.06641  1.0000
  H   H4037     1.0  0.84051  0.57450  0.04284  1.0000
  H   H4038     1.0  0.78602  0.59570  0.18880  1.0000
  Fe  Fe343     1.0  0.95170  0.63898  0.21378  1.0000
  H   H4039     1.0  0.82311  0.59865  0.25535  1.0000
  S   S685      1.0  0.93324  0.61961  0.21072  1.0000
  H   H4040     1.0  0.78440  0.54177  0.09460  1.0000
  C   C2358     1.0  0.98566  0.66184  0.21870  1.0000
  H   H4041     1.0  0.83347  0.62352  0.23550  1.0000
  H   H4042     1.0  0.99030  0.71259  0.27845  1.0000
  H   H4043     1.0  0.75406  0.70371  0.02569  1.0000
  H   H4044     1.0  0.75312  0.60759  0.18717  1.0000
  H   H4045     1.0  0.77335  0.66625  0.09515  1.0000
  C   C2359     1.0  0.85823  0.59705  0.21517  1.0000
  H   H4046     1.0  0.86288  0.57121  0.24842  1.0000
  H   H4047     1.0  0.82991  0.57443  0.25010  1.0000
  S   S686      1.0  0.97343  0.68502  0.30793  1.0000
  H   H4048     1.0  0.91171  0.64844  0.14424  1.0000
  H   H4049     1.0  0.86285  0.58114  0.21537  1.0000
  C   C2360     1.0  0.78211  0.59104  0.20499  1.0000
  C   C2361     1.0  0.84890  0.62154  0.23627  1.0000
  H   H4050     1.0  0.88431  0.60367  0.24546  1.0000
  H   H4051     1.0  0.86805  0.60415  0.20233  1.0000
  H   H4052     1.0  0.88580  0.61440  0.22037  1.0000
  H   H4053     1.0  0.78971  0.56067  0.28224  1.0000
  C   C2362     1.0  0.75053  0.65766  0.02431  1.0000
  H   H4054     1.0  0.76654  0.67417  0.98601  1.0000
  C   C2363     1.0  0.89631  0.58337  0.22661  1.0000
  C   C2364     1.0  0.83324  0.58446  0.25757  1.0000
  C   C2365     1.0  0.79644  0.50047  0.28511  1.0000
  H   H4055     1.0  0.82645  0.59828  0.22178  1.0000
  H   H4056     1.0  0.83426  0.61963  0.20516  1.0000
  H   H4057     1.0  0.86562  0.84191  0.24079  1.0000
  H   H4058     1.0  0.79788  0.62372  0.19287  1.0000
  H   H4059     1.0  0.76745  0.73354  0.09507  1.0000
  H   H4060     1.0  0.83838  0.59744  0.19710  1.0000
  N   N164      1.0  0.78066  0.57332  0.09058  1.0000
  C   C2366     1.0  0.76443  0.58940  0.09736  1.0000
  C   C2367     1.0  0.77408  0.55430  0.10000  1.0000
  C   C2368     1.0  0.78361  0.57659  0.06865  1.0000
  C   C2369     1.0  0.79866  0.57456  0.09660  1.0000
  C   C2370     1.0  0.76640  0.61043  0.08671  1.0000
  C   C2371     1.0  0.77112  0.54878  0.12241  1.0000
  H   H4061     1.0  0.75014  0.58749  0.09587  1.0000
  H   H4062     1.0  0.76298  0.58898  0.11314  1.0000
  H   H4063     1.0  0.76018  0.55445  0.09601  1.0000
  H   H4064     1.0  0.76930  0.58131  0.06409  1.0000
  H   H4065     1.0  0.79156  0.58867  0.06148  1.0000
  H   H4066     1.0  0.80385  0.58808  0.08838  1.0000
  H   H4067     1.0  0.79534  0.57635  0.11197  1.0000
  C   C2372     1.0  0.77509  0.70886  0.12818  1.0000
  C   C2373     1.0  0.86680  0.85885  0.27281  1.0000
  H   H4068     1.0  0.75442  0.62083  0.09391  1.0000
  H   H4069     1.0  0.75964  0.55943  0.12971  1.0000
  H   H4070     1.0  0.76641  0.53456  0.12761  1.0000
  H   H4071     1.0  0.78491  0.54684  0.12726  1.0000
  N   N165      1.0  0.94195  0.64842  0.14309  1.0000
  S   S687      1.0  0.83225  0.89078  0.31315  1.0000
  H   H4072     1.0  0.78592  0.67061  0.11190  1.0000
  C   C2374     1.0  0.94809  0.62657  0.14878  1.0000
  H   H4073     1.0  0.82999  0.80841  0.26911  1.0000
  H   H4074     1.0  0.77757  0.95387  0.27266  1.0000
  C   C2375     1.0  0.77649  0.69672  0.09015  1.0000
  H   H4075     1.0  0.97657  0.66577  0.27701  1.0000
  H   H4076     1.0  0.86975  0.59298  0.00267  1.0000
  H   H4077     1.0  0.87976  0.79919  0.28223  1.0000
  H   H4078     1.0  0.76484  0.73055  0.06270  1.0000
  C   C2376     1.0  0.75237  0.64335  0.15567  1.0000
  S   S688      1.0  0.95914  0.74053  0.30965  1.0000
  H   H4079     1.0  0.93554  0.62014  0.15800  1.0000
  H   H4080     1.0  0.94135  0.64430  0.10556  1.0000
  H   H4081     1.0  0.83352  0.82656  0.24680  1.0000
  H   H4082     1.0  0.79814  0.97749  0.26120  1.0000
  H   H4083     1.0  0.77287  0.64350  0.00231  1.0000
  H   H4084     1.0  0.86667  0.56903  0.98777  1.0000
  H   H4085     1.0  0.76560  0.59107  0.26283  1.0000
  C   C2377     1.0  0.92759  0.64257  0.11622  1.0000
  H   H4086     1.0  0.94716  0.65540  0.16870  1.0000
  H   H4087     1.0  0.81283  0.83085  0.26584  1.0000
  C   C2378     1.0  0.95821  0.65717  0.12877  1.0000
  H   H4088     1.0  0.79303  0.51663  0.28333  1.0000
  H   H4089     1.0  0.81111  0.49732  0.27591  1.0000
  H   H4090     1.0  0.89892  0.82340  0.22969  1.0000
  H   H4091     1.0  0.76781  0.95022  0.30515  1.0000
  C   C2379     1.0  0.75157  0.73505  0.07347  1.0000
  H   H4092     1.0  0.92477  0.64851  0.17228  1.0000
  H   H4093     1.0  0.85687  0.78354  0.30743  1.0000
  C   C2380     1.0  0.87237  0.60653  0.29613  1.0000
  H   H4094     1.0  0.96633  0.60286  0.16497  1.0000
  C   C2381     1.0  0.96500  0.61884  0.15967  1.0000
  H   H4095     1.0  0.83170  0.83429  0.28735  1.0000
  H   H4096     1.0  0.83707  0.84984  0.26460  1.0000
  H   H4097     1.0  0.77463  0.70400  0.14411  1.0000
  H   H4098     1.0  0.89952  0.80931  0.25378  1.0000
  H   H4099     1.0  0.80345  0.95646  0.29117  1.0000
  H   H4100     1.0  0.75532  0.85311  0.26039  1.0000
  H   H4101     1.0  0.92035  0.66848  0.12769  1.0000
  H   H4102     1.0  0.86680  0.55951  0.30672  1.0000
  H   H4103     1.0  0.74252  0.96493  0.22253  1.0000
  H   H4104     1.0  0.78609  0.50036  0.25943  1.0000
  C   C2382     1.0  0.86432  0.80445  0.28066  1.0000
  H   H4105     1.0  0.96568  0.67648  0.14380  1.0000
  Fe  Fe344     1.0  0.81130  0.87338  0.31161  1.0000
  C   C2383     1.0  0.78238  0.49507  0.27548  1.0000
  C   C2384     1.0  0.75095  0.96020  0.20891  1.0000
  H   H4106     1.0  0.76713  0.50247  0.28032  1.0000
  H   H4107     1.0  0.86467  0.62074  0.29891  1.0000
  H   H4108     1.0  0.79766  0.66996  0.08727  1.0000
  N   N166      1.0  0.76405  0.60463  0.21312  1.0000
  S   S689      1.0  0.76393  0.54852  0.26628  1.0000
  H   H4109     1.0  0.96700  0.64692  0.11915  1.0000
  H   H4110     1.0  0.77527  0.69896  0.07471  1.0000
  H   H4111     1.0  0.76145  0.66036  0.03116  1.0000
  C   C2385     1.0  0.76734  0.62533  0.20828  1.0000
  H   H4112     1.0  0.88453  0.83026  0.28163  1.0000
  H   H4113     1.0  0.75343  0.68197  0.17376  1.0000
  C   C2386     1.0  0.92473  0.65259  0.13346  1.0000
  N   N167      1.0  0.75780  0.70600  0.10209  1.0000
  H   H4114     1.0  0.74357  0.87377  0.30278  1.0000
  C   C2387     1.0  0.77521  0.86383  0.27078  1.0000
  H   H4115     1.0  0.74654  0.68544  0.04671  1.0000
  C   C2388     1.0  0.76001  0.83639  0.28857  1.0000
  H   H4116     1.0  0.77539  0.61073  0.24653  1.0000
  H   H4117     1.0  0.85275  0.86679  0.28013  1.0000
  C   C2389     1.0  0.93679  0.69379  0.29994  1.0000
  H   H4118     1.0  0.76515  0.61334  0.07124  1.0000
  H   H4119     1.0  0.79484  0.56118  0.20180  1.0000
  H   H4120     1.0  0.74634  0.66869  0.11675  1.0000
  C   C2390     1.0  0.88154  0.60175  0.23175  1.0000
  H   H4121     1.0  0.75056  0.96512  0.17831  1.0000
  H   H4122     1.0  0.86771  0.86301  0.25688  1.0000
  C   C2391     1.0  0.79223  0.96524  0.30095  1.0000
  H   H4123     1.0  0.83978  0.64218  0.25563  1.0000
  C   C2392     1.0  0.75739  0.59807  0.23476  1.0000
  H   H4124     1.0  0.75357  0.98344  0.30258  1.0000
  H   H4125     1.0  0.78706  0.77713  0.30758  1.0000
  H   H4126     1.0  0.89938  0.55614  0.28439  1.0000
  H   H4127     1.0  0.78018  0.61389  0.08741  1.0000
  C   C2393     1.0  0.78343  0.67464  0.09679  1.0000
  H   H4128     1.0  0.86304  0.62730  0.25739  1.0000
  H   H4129     1.0  0.97907  0.62102  0.14979  1.0000
  H   H4130     1.0  0.84132  0.61747  0.26848  1.0000
  C   C2394     1.0  0.95607  0.68396  0.29542  1.0000
  C   C2395     1.0  0.83800  0.60354  0.20985  1.0000
  H   H4131     1.0  0.74197  0.73534  0.10417  1.0000
  H   H4132     1.0  0.78858  0.70382  0.08969  1.0000
  H   H4133     1.0  0.78569  0.58572  0.24355  1.0000
  H   H4134     1.0  0.77108  0.68357  0.00427  1.0000
  C   C2396     1.0  0.77076  0.96936  0.26805  1.0000
  C   C2397     1.0  0.85180  0.79917  0.30124  1.0000
  H   H4135     1.0  0.89560  0.58033  0.21259  1.0000
  H   H4136     1.0  0.91124  0.58574  0.22486  1.0000
  N   N168      1.0  0.86084  0.82570  0.27078  1.0000
  C   C2398     1.0  0.79442  0.55916  0.05891  1.0000
  N   N169      1.0  0.86035  0.60150  0.23376  1.0000
  H   H4137     1.0  0.86207  0.79515  0.27165  1.0000
  S   S690      1.0  0.80046  0.87726  0.28412  1.0000
  H   H4138     1.0  0.74534  0.91317  0.25581  1.0000
  H   H4139     1.0  0.85324  0.80752  0.31143  1.0000
  C   C2399     1.0  0.74842  0.57995  0.16806  1.0000
  C   C2400     1.0  0.75735  0.54587  0.18272  1.0000
  C   C2401     1.0  0.75943  0.68374  0.99675  1.0000
  C   C2402     1.0  0.83944  0.83421  0.27201  1.0000
  C   C2403     1.0  0.89104  0.60442  0.28447  1.0000
  C   C2404     1.0  0.90052  0.58648  0.27961  1.0000
  H   H4140     1.0  0.75567  0.97252  0.27638  1.0000
  H   H4141     1.0  0.95284  0.61980  0.13574  1.0000
  C   C2405     1.0  0.77771  0.55708  0.29395  1.0000
  C   C2406     1.0  0.78190  0.84688  0.30249  1.0000
  H   H4142     1.0  0.74422  0.58977  0.20716  1.0000
  H   H4143     1.0  0.97556  0.71131  0.25325  1.0000
  H   H4144     1.0  0.77024  0.51263  0.31379  1.0000
  H   H4145     1.0  0.79457  0.62068  0.21904  1.0000
  H   H4146     1.0  0.78569  0.54769  0.06251  1.0000
  C   C2407     1.0  0.87355  0.57205  0.30046  1.0000
  C   C2408     1.0  0.86902  0.83667  0.28085  1.0000
  H   H4147     1.0  0.79489  0.59151  0.21046  1.0000
  H   H4148     1.0  0.97009  0.66341  0.22388  1.0000
  C   C2409     1.0  0.89197  0.57014  0.28793  1.0000
  H   H4149     1.0  0.83307  0.50277  0.28869  1.0000
  C   C2410     1.0  0.87919  0.59258  0.98796  1.0000
  S   S691      1.0  0.74596  0.52468  0.23464  1.0000
  C   C2411     1.0  0.78337  0.98303  0.26927  1.0000
  H   H4150     1.0  0.90941  0.67998  0.15711  1.0000
  N   N170      1.0  0.74259  0.67597  0.01097  1.0000
  C   C2412     1.0  0.76953  0.83433  0.30376  1.0000
  C   C2413     1.0  0.75861  0.70217  0.12335  1.0000
  H   H4151     1.0  0.75299  0.58374  0.23805  1.0000
  H   H4152     1.0  0.92695  0.62689  0.12141  1.0000
  S   S692      1.0  0.98219  0.63840  0.19595  1.0000
  N   N171      1.0  0.79592  0.49097  0.30630  1.0000
  H   H4153     1.0  0.83622  0.80118  0.30096  1.0000
  C   C2414     1.0  0.97259  0.66341  0.13738  1.0000
  H   H4154     1.0  0.76353  0.63312  0.19405  1.0000
  H   H4155     1.0  0.76539  0.96418  0.20592  1.0000
  C   C2415     1.0  0.77779  0.95219  0.31336  1.0000
  C   C2416     1.0  0.92472  0.67848  0.15825  1.0000
  C   C2417     1.0  0.80869  0.49931  0.31419  1.0000
  H   H4156     1.0  0.91776  0.82638  0.31104  1.0000
  H   H4157     1.0  0.77589  0.91524  0.29763  1.0000
  H   H4158     1.0  0.76700  0.62794  0.02552  1.0000
  C   C2418     1.0  0.75477  0.72778  0.09463  1.0000
  H   H4159     1.0  0.74800  0.93327  0.18480  1.0000
  H   H4160     1.0  0.92414  0.68446  0.17110  1.0000
  C   C2419     1.0  0.74754  0.67176  0.16944  1.0000
  S   S693      1.0  0.74506  0.81996  0.29051  1.0000
  H   H4161     1.0  0.75338  0.53268  0.19213  1.0000
  H   H4162     1.0  0.95236  0.67045  0.11862  1.0000
  H   H4163     1.0  0.89397  0.58485  0.99011  1.0000
  H   H4164     1.0  0.97859  0.75459  0.26808  1.0000
  H   H4165     1.0  0.74950  0.71576  0.99362  1.0000
  H   H4166     1.0  0.93245  0.70248  0.31104  1.0000
  C   C2420     1.0  0.74334  0.56308  0.18075  1.0000
  H   H4167     1.0  0.83759  0.50424  0.31122  1.0000
  H   H4168     1.0  0.76511  0.49033  0.31257  1.0000
  H   H4169     1.0  0.80310  0.51527  0.31342  1.0000
  H   H4170     1.0  0.98392  0.62826  0.25937  1.0000
  H   H4171     1.0  0.74412  0.60826  0.24048  1.0000
  H   H4172     1.0  0.74813  0.75124  0.07030  1.0000
  H   H4173     1.0  0.75184  0.92864  0.29629  1.0000
  H   H4174     1.0  0.74458  0.70914  0.13179  1.0000
  H   H4175     1.0  0.76973  0.97133  0.25260  1.0000
  C   C2421     1.0  0.77779  0.55807  0.31298  1.0000
  C   C2422     1.0  0.76103  0.91385  0.29750  1.0000
  C   C2423     1.0  0.74155  0.69739  0.03497  1.0000
  H   H4176     1.0  0.97895  0.65182  0.14854  1.0000
  H   H4177     1.0  0.74290  0.69620  0.08490  1.0000
  H   H4178     1.0  0.84902  0.95905  0.31265  1.0000
  H   H4179     1.0  0.98913  0.60890  0.24666  1.0000
  N   N172      1.0  0.78393  0.98473  0.28944  1.0000
  Fe  Fe345     1.0  0.81066  0.59079  0.98255  1.0000
  C   C2424     1.0  0.98772  0.71934  0.24856  1.0000
  H   H4180     1.0  0.98487  0.66743  0.12546  1.0000
  C   C2425     1.0  0.74103  0.97032  0.19144  1.0000
  H   H4181     1.0  0.78910  0.84519  0.31435  1.0000
  H   H4182     1.0  0.88624  0.63247  0.31253  1.0000
  H   H4183     1.0  0.91149  0.62422  0.31168  1.0000
  H   H4184     1.0  0.76769  0.73709  0.34733  1.0000
  Fe  Fe346     1.0  0.93502  0.74492  0.33559  1.0000
  H   H4185     1.0  0.75979  0.68243  0.62329  1.0000
  H   H4186     1.0  0.77869  0.56147  0.41762  1.0000
  S   S694      1.0  0.85322  0.68357  0.62757  1.0000
  H   H4187     1.0  0.77551  0.75219  0.50986  1.0000
  H   H4188     1.0  0.86010  0.62388  0.33284  1.0000
  S   S695      1.0  0.87896  0.64256  0.61618  1.0000
  C   C2426     1.0  0.80105  0.74411  0.63691  1.0000
  C   C2427     1.0  0.80604  0.98203  0.39112  1.0000
  H   H4189     1.0  0.80838  0.49274  0.32985  1.0000
  Fe  Fe347     1.0  0.85529  0.66620  0.60501  1.0000
  S   S696      1.0  0.85668  0.68109  0.57313  1.0000
  H   H4190     1.0  0.85056  0.61750  0.35787  1.0000
  S   S697      1.0  0.83082  0.65134  0.62228  1.0000
  H   H4191     1.0  0.80325  0.98055  0.40715  1.0000
  H   H4192     1.0  0.76543  0.54330  0.40273  1.0000
  C   C2428     1.0  0.77643  0.58722  0.44232  1.0000
  H   H4193     1.0  0.78334  0.57162  0.44293  1.0000
  H   H4194     1.0  0.74204  0.81320  0.34814  1.0000
  C   C2429     1.0  0.77974  0.68221  0.64097  1.0000
  H   H4195     1.0  0.88079  0.63628  0.39680  1.0000
  Fe  Fe348     1.0  0.81441  0.89238  0.34319  1.0000
  C   C2430     1.0  0.89849  0.63447  0.31774  1.0000
  S   S698      1.0  0.80233  0.91957  0.35572  1.0000
  Fe  Fe349     1.0  0.81118  0.84978  0.35298  1.0000
  H   H4196     1.0  0.85844  0.92676  0.39111  1.0000
  H   H4197     1.0  0.87412  0.97145  0.38356  1.0000
  H   H4198     1.0  0.93115  0.72809  0.62645  1.0000
  C   C2431     1.0  0.98093  0.73447  0.64332  1.0000
  S   S699      1.0  0.80244  0.82284  0.37331  1.0000
  S   S700      1.0  0.83209  0.86512  0.35817  1.0000
  H   H4199     1.0  0.83071  0.76336  0.60350  1.0000
  Fe  Fe350     1.0  0.83482  0.65907  0.48222  1.0000
  S   S701      1.0  0.85291  0.68189  0.47100  1.0000
  S   S702      1.0  0.82459  0.65005  0.51503  1.0000
  Fe  Fe351     1.0  0.83657  0.65375  0.44059  1.0000
  S   S703      1.0  0.85520  0.67628  0.42693  1.0000
  S   S704      1.0  0.82842  0.64407  0.41669  1.0000
  Fe  Fe352     1.0  0.87128  0.66216  0.45109  1.0000
  S   S705      1.0  0.90334  0.65367  0.45051  1.0000
  Fe  Fe353     1.0  0.83475  0.69348  0.44824  1.0000
  S   S706      1.0  0.82237  0.72550  0.44055  1.0000
  S   S707      1.0  0.85432  0.63828  0.46343  1.0000
  S   S708      1.0  0.81507  0.67205  0.46073  1.0000
  C   C2432     1.0  0.88156  0.64174  0.38088  1.0000
  H   H4200     1.0  0.75197  0.71931  0.52551  1.0000
  C   C2433     1.0  0.76281  0.55271  0.32840  1.0000
  S   S709      1.0  0.95377  0.75120  0.35273  1.0000
  H   H4201     1.0  0.77150  0.62341  0.41231  1.0000
  H   H4202     1.0  0.76059  0.76947  0.48661  1.0000
  C   C2434     1.0  0.99019  0.75189  0.63107  1.0000
  Fe  Fe354     1.0  0.95857  0.71893  0.36440  1.0000
  S   S710      1.0  0.96129  0.70639  0.39548  1.0000
  C   C2435     1.0  0.74695  0.54770  0.32444  1.0000
  S   S711      1.0  0.93810  0.71300  0.34921  1.0000
  Fe  Fe355     1.0  0.83075  0.56786  0.33887  1.0000
  S   S712      1.0  0.80378  0.57606  0.36082  1.0000
  C   C2436     1.0  0.83569  0.95882  0.32356  1.0000
  Fe  Fe356     1.0  0.81981  0.55457  0.38245  1.0000
  S   S713      1.0  0.82038  0.56027  0.41165  1.0000
  Fe  Fe357     1.0  0.79465  0.55069  0.35584  1.0000
  C   C2437     1.0  0.82895  0.94125  0.33141  1.0000
  H   H4203     1.0  0.75940  0.79149  0.33005  1.0000
  H   H4204     1.0  0.87198  0.65638  0.37928  1.0000
  C   C2438     1.0  0.86228  0.93799  0.37793  1.0000
  H   H4205     1.0  0.77832  0.71646  0.59027  1.0000
  C   C2439     1.0  0.93888  0.73970  0.61732  1.0000
  H   H4206     1.0  0.75027  0.60797  0.43682  1.0000
  H   H4207     1.0  0.83739  0.97215  0.43483  1.0000
  H   H4208     1.0  0.98505  0.73109  0.60369  1.0000
  H   H4209     1.0  0.74110  0.76907  0.34937  1.0000
  H   H4210     1.0  0.82858  0.72616  0.57571  1.0000
  C   C2440     1.0  0.77110  0.59791  0.40077  1.0000
  C   C2441     1.0  0.82721  0.62031  0.41564  1.0000
  C   C2442     1.0  0.82963  0.60445  0.43115  1.0000
  C   C2443     1.0  0.82803  0.58592  0.42962  1.0000
  C   C2444     1.0  0.82444  0.58308  0.41246  1.0000
  C   C2445     1.0  0.82261  0.59885  0.39679  1.0000
  C   C2446     1.0  0.82355  0.61742  0.39856  1.0000
  H   H4211     1.0  0.83239  0.60653  0.44440  1.0000
  H   H4212     1.0  0.82939  0.57379  0.44183  1.0000
  H   H4213     1.0  0.81985  0.59686  0.38352  1.0000
  H   H4214     1.0  0.82136  0.62965  0.38664  1.0000
  C   C2447     1.0  0.91847  0.66917  0.43498  1.0000
  C   C2448     1.0  0.91382  0.68124  0.41766  1.0000
  C   C2449     1.0  0.92694  0.69267  0.40517  1.0000
  C   C2450     1.0  0.94442  0.69231  0.41030  1.0000
  C   C2451     1.0  0.94877  0.68049  0.42778  1.0000
  C   C2452     1.0  0.93599  0.66877  0.43993  1.0000
  H   H4215     1.0  0.90043  0.68131  0.41367  1.0000
  H   H4216     1.0  0.92355  0.70170  0.39164  1.0000
  H   H4217     1.0  0.96222  0.68017  0.43182  1.0000
  H   H4218     1.0  0.93968  0.65939  0.45324  1.0000
  C   C2453     1.0  0.87937  0.79483  0.33849  1.0000
  H   H4219     1.0  0.75578  0.90446  0.32888  1.0000
  C   C2454     1.0  0.74603  0.84571  0.39388  1.0000
  C   C2455     1.0  0.75594  0.74408  0.47838  1.0000
  C   C2456     1.0  0.80806  0.97559  0.34389  1.0000
  H   H4220     1.0  0.79195  0.72900  0.48913  1.0000
  H   H4221     1.0  0.78614  0.93750  0.31870  1.0000
  H   H4222     1.0  0.77796  0.49905  0.34617  1.0000
  C   C2457     1.0  0.75669  0.74046  0.36034  1.0000
  S   S714      1.0  0.84753  0.54779  0.36073  1.0000
  H   H4223     1.0  0.74165  0.74312  0.51478  1.0000
  H   H4224     1.0  0.75398  0.69830  0.50566  1.0000
  C   C2458     1.0  0.77890  0.71696  0.42016  1.0000
  H   H4225     1.0  0.87551  0.94239  0.37876  1.0000
  C   C2459     1.0  0.81177  0.94090  0.34560  1.0000
  C   C2460     1.0  0.80144  0.95809  0.35185  1.0000
  C   C2461     1.0  0.89553  0.63038  0.34023  1.0000
  S   S715      1.0  0.82053  0.54406  0.33214  1.0000
  N   N173      1.0  0.75677  0.58819  0.41692  1.0000
  H   H4226     1.0  0.90805  0.73504  0.39703  1.0000
  H   H4227     1.0  0.81173  0.49183  0.37367  1.0000
  C   C2462     1.0  0.84605  0.67309  0.55787  1.0000
  C   C2463     1.0  0.83862  0.65597  0.56398  1.0000
  C   C2464     1.0  0.83167  0.64932  0.55086  1.0000
  C   C2465     1.0  0.83222  0.65958  0.53151  1.0000
  C   C2466     1.0  0.83920  0.67694  0.52560  1.0000
  C   C2467     1.0  0.84603  0.68367  0.53872  1.0000
  H   H4228     1.0  0.83858  0.64764  0.57867  1.0000
  H   H4229     1.0  0.82618  0.63594  0.55564  1.0000
  H   H4230     1.0  0.83934  0.68525  0.51094  1.0000
  H   H4231     1.0  0.85164  0.69697  0.53388  1.0000
  C   C2468     1.0  0.85054  0.72920  0.58866  1.0000
  H   H4232     1.0  0.78095  0.62499  0.38692  1.0000
  S   S716      1.0  0.80778  0.52970  0.37999  1.0000
  H   H4233     1.0  0.76240  0.73231  0.37359  1.0000
  H   H4234     1.0  0.76985  0.59615  0.38636  1.0000
  C   C2469     1.0  0.76591  0.73491  0.41968  1.0000
  H   H4235     1.0  0.86320  0.88321  0.63028  1.0000
  C   C2470     1.0  0.75033  0.76248  0.36044  1.0000
  C   C2471     1.0  0.86144  0.98072  0.37749  1.0000
  C   C2472     1.0  0.78315  0.71873  0.48863  1.0000
  H   H4236     1.0  0.78711  0.68676  0.49710  1.0000
  H   H4237     1.0  0.83374  0.64915  0.35353  1.0000
  H   H4238     1.0  0.84174  0.65610  0.37209  1.0000
  H   H4239     1.0  0.78477  0.69836  0.51711  1.0000
  H   H4240     1.0  0.85515  0.95290  0.40984  1.0000
  C   C2473     1.0  0.87411  0.81516  0.33566  1.0000
  H   H4241     1.0  0.85083  0.74448  0.58117  1.0000
  H   H4242     1.0  0.80250  0.75957  0.63276  1.0000
  C   C2474     1.0  0.83939  0.97935  0.41916  1.0000
  S   S717      1.0  0.79204  0.87714  0.34048  1.0000
  C   C2475     1.0  0.77182  0.80989  0.39950  1.0000
  H   H4243     1.0  0.74722  0.79899  0.41844  1.0000
  Fe  Fe358     1.0  0.83429  0.52451  0.35644  1.0000
  H   H4244     1.0  0.90275  0.64073  0.34338  1.0000
  C   C2476     1.0  0.98220  0.71901  0.61639  1.0000
  H   H4245     1.0  0.92743  0.75303  0.61498  1.0000
  H   H4246     1.0  0.87519  0.89960  0.63518  1.0000
  C   C2477     1.0  0.75108  0.71126  0.49387  1.0000
  S   S718      1.0  0.82843  0.84476  0.32378  1.0000
  H   H4247     1.0  0.87295  0.97212  0.34884  1.0000
  H   H4248     1.0  0.83704  0.92802  0.32654  1.0000
  H   H4249     1.0  0.75527  0.62858  0.39547  1.0000
  H   H4250     1.0  0.77802  0.75488  0.38165  1.0000
  C   C2478     1.0  0.77166  0.49037  0.33965  1.0000
  S   S719      1.0  0.83983  0.59409  0.31774  1.0000
  C   C2479     1.0  0.89853  0.78576  0.33179  1.0000
  H   H4251     1.0  0.84399  0.73491  0.37686  1.0000
  H   H4252     1.0  0.88104  0.59080  0.36156  1.0000
  S   S720      1.0  0.76936  0.79038  0.62420  1.0000
  H   H4253     1.0  0.79285  0.75978  0.43297  1.0000
  H   H4254     1.0  0.95955  0.70452  0.61274  1.0000
  H   H4255     1.0  0.74306  0.56050  0.40241  1.0000
  H   H4256     1.0  0.83686  0.67345  0.35068  1.0000
  H   H4257     1.0  0.86090  0.71327  0.38566  1.0000
  N   N174      1.0  0.76162  0.72676  0.49397  1.0000
  H   H4258     1.0  0.75575  0.49335  0.34560  1.0000
  H   H4259     1.0  0.79294  0.80381  0.64237  1.0000
  H   H4260     1.0  0.78808  0.95792  0.36272  1.0000
  C   C2480     1.0  0.78280  0.76853  0.32250  1.0000
  C   C2481     1.0  0.87471  0.62732  0.37291  1.0000
  Fe  Fe359     1.0  0.87447  0.65845  0.64051  1.0000
  H   H4261     1.0  0.80638  0.70021  0.42654  1.0000
  H   H4262     1.0  0.89686  0.64295  0.37421  1.0000
  H   H4263     1.0  0.94597  0.73637  0.60273  1.0000
  H   H4264     1.0  0.78186  0.79311  0.33445  1.0000
  H   H4265     1.0  0.91046  0.75234  0.37435  1.0000
  H   H4266     1.0  0.95006  0.70572  0.64319  1.0000
  C   C2482     1.0  0.80139  0.72947  0.43112  1.0000
  N   N175      1.0  0.84362  0.97173  0.38526  1.0000
  H   H4267     1.0  0.75590  0.55814  0.43206  1.0000
  Fe  Fe360     1.0  0.97842  0.74382  0.32804  1.0000
  C   C2483     1.0  0.76281  0.56646  0.41795  1.0000
  C   C2484     1.0  0.82524  0.97607  0.32979  1.0000
  H   H4268     1.0  0.77061  0.85655  0.37450  1.0000
  C   C2485     1.0  0.75883  0.55905  0.40146  1.0000
  Fe  Fe361     1.0  0.85426  0.62874  0.63500  1.0000
  C   C2486     1.0  0.77004  0.73992  0.52055  1.0000
  Fe  Fe362     1.0  0.84807  0.86211  0.32785  1.0000
  C   C2487     1.0  0.76309  0.68990  0.63286  1.0000
  C   C2488     1.0  0.75545  0.73206  0.51386  1.0000
  C   C2489     1.0  0.77118  0.75048  0.42384  1.0000
  C   C2490     1.0  0.76602  0.76141  0.47456  1.0000
  H   H4269     1.0  0.86639  0.93126  0.36488  1.0000
  H   H4270     1.0  0.82809  0.77451  0.57894  1.0000
  H   H4271     1.0  0.79602  0.78204  0.37354  1.0000
  H   H4272     1.0  0.97989  0.70619  0.59312  1.0000
  H   H4273     1.0  0.75459  0.78430  0.38443  1.0000
  C   C2491     1.0  0.90708  0.81756  0.31888  1.0000
  H   H4274     1.0  0.97917  0.76567  0.62996  1.0000
  N   N176      1.0  0.76614  0.77383  0.35743  1.0000
  H   H4275     1.0  0.76543  0.56657  0.38686  1.0000
  C   C2492     1.0  0.87600  0.59736  0.34768  1.0000
  H   H4276     1.0  0.88410  0.61281  0.37688  1.0000
  S   S721      1.0  0.88055  0.85209  0.31950  1.0000
  H   H4277     1.0  0.80678  0.69633  0.49886  1.0000
  C   C2493     1.0  0.84485  0.95517  0.37564  1.0000
  H   H4278     1.0  0.84457  0.96032  0.35989  1.0000
  H   H4279     1.0  0.87220  0.66356  0.34663  1.0000
  H   H4280     1.0  0.80657  0.77699  0.34934  1.0000
  C   C2494     1.0  0.79066  0.69896  0.50132  1.0000
  S   S722      1.0  0.98479  0.71207  0.34117  1.0000
  H   H4281     1.0  0.76206  0.77193  0.46138  1.0000
  H   H4282     1.0  0.88850  0.59644  0.33514  1.0000
  C   C2495     1.0  0.77225  0.78274  0.33618  1.0000
  H   H4283     1.0  0.83059  0.73531  0.62345  1.0000
  N   N177      1.0  0.81317  0.73422  0.60330  1.0000
  C   C2496     1.0  0.79661  0.72411  0.60552  1.0000
  C   C2497     1.0  0.81662  0.73178  0.62356  1.0000
  C   C2498     1.0  0.83074  0.72381  0.59087  1.0000
  C   C2499     1.0  0.80738  0.75526  0.59367  1.0000
  C   C2500     1.0  0.79196  0.72218  0.58652  1.0000
  C   C2501     1.0  0.76930  0.61995  0.39908  1.0000
  C   C2502     1.0  0.88779  0.82661  0.32538  1.0000
  H   H4284     1.0  0.86385  0.72387  0.36026  1.0000
  H   H4285     1.0  0.79960  0.70900  0.61417  1.0000
  H   H4286     1.0  0.78284  0.73154  0.61374  1.0000
  H   H4287     1.0  0.76261  0.74541  0.53414  1.0000
  H   H4288     1.0  0.85557  0.72575  0.60257  1.0000
  H   H4289     1.0  0.83266  0.70781  0.59663  1.0000
  H   H4290     1.0  0.81186  0.75951  0.37058  1.0000
  H   H4291     1.0  0.80704  0.75652  0.57813  1.0000
  H   H4292     1.0  0.79215  0.76139  0.60034  1.0000
  H   H4293     1.0  0.78947  0.73631  0.57621  1.0000
  H   H4294     1.0  0.80346  0.71148  0.57922  1.0000
  C   C2503     1.0  0.90444  0.75062  0.39026  1.0000
  C   C2504     1.0  0.82007  0.76941  0.59392  1.0000
  C   C2505     1.0  0.80017  0.77076  0.36458  1.0000
  H   H4295     1.0  0.76157  0.76457  0.42275  1.0000
  H   H4296     1.0  0.78627  0.59072  0.40210  1.0000
  C   C2506     1.0  0.84194  0.96398  0.40685  1.0000
  H   H4297     1.0  0.91221  0.75808  0.39660  1.0000
  H   H4298     1.0  0.78957  0.74825  0.35900  1.0000
  C   C2507     1.0  0.95343  0.74394  0.62712  1.0000
  H   H4299     1.0  0.86378  0.65612  0.32946  1.0000
  N   N178      1.0  0.86896  0.74614  0.39590  1.0000
  C   C2508     1.0  0.84823  0.75681  0.40121  1.0000
  C   C2509     1.0  0.87228  0.72803  0.41146  1.0000
  C   C2510     1.0  0.87278  0.74020  0.37659  1.0000
  C   C2511     1.0  0.88243  0.75953  0.39429  1.0000
  C   C2512     1.0  0.84138  0.77500  0.38619  1.0000
  C   C2513     1.0  0.87389  0.73124  0.43119  1.0000
  C   C2514     1.0  0.85945  0.72734  0.37506  1.0000
  H   H4300     1.0  0.86631  0.58825  0.34642  1.0000
  H   H4301     1.0  0.83787  0.74696  0.40404  1.0000
  H   H4302     1.0  0.84575  0.76175  0.41515  1.0000
  H   H4303     1.0  0.88549  0.71745  0.40636  1.0000
  H   H4304     1.0  0.86025  0.72000  0.41471  1.0000
  H   H4305     1.0  0.87173  0.75316  0.36455  1.0000
  H   H4306     1.0  0.88802  0.73201  0.37300  1.0000
  H   H4307     1.0  0.88048  0.77223  0.38202  1.0000
  H   H4308     1.0  0.87877  0.76630  0.40730  1.0000
  H   H4309     1.0  0.84205  0.77150  0.37199  1.0000
  H   H4310     1.0  0.82589  0.78119  0.39182  1.0000
  H   H4311     1.0  0.84952  0.78669  0.38403  1.0000
  H   H4312     1.0  0.87524  0.71697  0.44157  1.0000
  H   H4313     1.0  0.88704  0.73697  0.42995  1.0000
  H   H4314     1.0  0.86074  0.74094  0.43771  1.0000
  H   H4315     1.0  0.86848  0.78618  0.34583  1.0000
  N   N179      1.0  0.87475  0.63228  0.35135  1.0000
  C   C2515     1.0  0.86422  0.65288  0.34524  1.0000
  S   S723      1.0  0.74341  0.73766  0.41342  1.0000
  H   H4316     1.0  0.83903  0.91123  0.63877  1.0000
  H   H4317     1.0  0.88094  0.69979  0.64030  1.0000
  C   C2516     1.0  0.86454  0.61847  0.34718  1.0000
  C   C2517     1.0  0.76556  0.84398  0.38403  1.0000
  H   H4318     1.0  0.81792  0.71622  0.63124  1.0000
  C   C2518     1.0  0.78897  0.74779  0.42945  1.0000
  H   H4319     1.0  0.78653  0.59638  0.43247  1.0000
  C   C2519     1.0  0.84296  0.65791  0.35618  1.0000
  H   H4320     1.0  0.92736  0.79017  0.31708  1.0000
  H   H4321     1.0  0.82972  0.95603  0.41289  1.0000
  H   H4322     1.0  0.78725  0.71677  0.47322  1.0000
  H   H4323     1.0  0.83169  0.94863  0.38155  1.0000
  S   S724      1.0  0.90409  0.76031  0.33461  1.0000
  H   H4324     1.0  0.81059  0.78252  0.59913  1.0000
  S   S725      1.0  0.75171  0.76167  0.59611  1.0000
  H   H4325     1.0  0.78176  0.79603  0.40194  1.0000
  S   S726      1.0  0.85069  0.49455  0.35155  1.0000
  S   S727      1.0  0.76424  0.55150  0.35263  1.0000
  H   H4326     1.0  0.95997  0.75567  0.61631  1.0000
  H   H4327     1.0  0.84974  0.93606  0.64550  1.0000
  C   C2520     1.0  0.77841  0.82598  0.38664  1.0000
  H   H4328     1.0  0.77509  0.70498  0.41655  1.0000
  C   C2521     1.0  0.78311  0.76104  0.36594  1.0000
  H   H4329     1.0  0.77308  0.75947  0.32140  1.0000
  H   H4330     1.0  0.90446  0.61585  0.34522  1.0000
  Fe  Fe363     1.0  0.96385  0.70916  0.32471  1.0000
  H   H4331     1.0  0.77438  0.59008  0.45714  1.0000
  H   H4332     1.0  0.86168  0.72013  0.57916  1.0000
  H   H4333     1.0  0.85998  0.62584  0.38171  1.0000
  H   H4334     1.0  0.85940  0.82195  0.34133  1.0000
  H   H4335     1.0  0.78598  0.74346  0.63698  1.0000
  H   H4336     1.0  0.74377  0.73466  0.36078  1.0000
  H   H4337     1.0  0.75474  0.86144  0.33917  1.0000
  H   H4338     1.0  0.98295  0.68888  0.61478  1.0000
  N   N180      1.0  0.89614  0.63570  0.51462  1.0000
  C   C2522     1.0  0.88740  0.63688  0.53563  1.0000
  C   C2523     1.0  0.88025  0.63509  0.50497  1.0000
  C   C2524     1.0  0.90501  0.65317  0.50386  1.0000
  C   C2525     1.0  0.91189  0.61763  0.51398  1.0000
  C   C2526     1.0  0.90106  0.63972  0.54743  1.0000
  C   C2527     1.0  0.87047  0.61725  0.51321  1.0000
  C   C2528     1.0  0.89179  0.67329  0.50544  1.0000
  C   C2529     1.0  0.92042  0.61244  0.49367  1.0000
  H   H4339     1.0  0.87439  0.64878  0.53667  1.0000
  H   H4340     1.0  0.88196  0.62342  0.54378  1.0000
  H   H4341     1.0  0.88562  0.63597  0.48902  1.0000
  H   H4342     1.0  0.86833  0.64805  0.50617  1.0000
  H   H4343     1.0  0.91857  0.65266  0.50863  1.0000
  H   H4344     1.0  0.90961  0.65317  0.48801  1.0000
  H   H4345     1.0  0.92440  0.61904  0.51940  1.0000
  H   H4346     1.0  0.90667  0.60471  0.52401  1.0000
  H   H4347     1.0  0.90683  0.65325  0.54116  1.0000
  H   H4348     1.0  0.89260  0.64105  0.56235  1.0000
  H   H4349     1.0  0.91321  0.62702  0.54910  1.0000
  H   H4350     1.0  0.85983  0.61802  0.50428  1.0000
  H   H4351     1.0  0.88091  0.60324  0.51258  1.0000
  H   H4352     1.0  0.86199  0.61730  0.52830  1.0000
  H   H4353     1.0  0.89992  0.68479  0.49665  1.0000
  H   H4354     1.0  0.88747  0.67570  0.52060  1.0000
  H   H4355     1.0  0.87866  0.67560  0.49940  1.0000
  H   H4356     1.0  0.90951  0.60855  0.48782  1.0000
  H   H4357     1.0  0.93243  0.59949  0.49491  1.0000
  H   H4358     1.0  0.92662  0.62435  0.48290  1.0000
  C   C2530     1.0  0.75787  0.79024  0.36840  1.0000
  H   H4359     1.0  0.79633  0.75928  0.32676  1.0000
  C   C2531     1.0  0.97539  0.70389  0.60926  1.0000
  C   C2532     1.0  0.79657  0.71421  0.42597  1.0000
  H   H4360     1.0  0.80403  0.96876  0.38763  1.0000
  H   H4361     1.0  0.76857  0.79969  0.36593  1.0000
  C   C2533     1.0  0.86485  0.88967  0.64199  1.0000
  H   H4362     1.0  0.78261  0.72831  0.52412  1.0000
  H   H4363     1.0  0.88541  0.73106  0.64489  1.0000
  H   H4364     1.0  0.78209  0.75726  0.47148  1.0000
  C   C2534     1.0  0.75106  0.70753  0.63663  1.0000
  C   C2535     1.0  0.91252  0.79711  0.32228  1.0000
  C   C2536     1.0  0.75225  0.81154  0.40896  1.0000
  C   C2537     1.0  0.76325  0.80688  0.64006  1.0000
  H   H4365     1.0  0.75648  0.70590  0.47991  1.0000
  N   N181      1.0  0.96898  0.72701  0.63357  1.0000
  S   S728      1.0  0.85598  0.59700  0.63660  1.0000
  H   H4366     1.0  0.75852  0.73945  0.46424  1.0000
  H   H4367     1.0  0.78923  0.66889  0.63754  1.0000
  C   C2538     1.0  0.75654  0.59236  0.43633  1.0000
  H   H4368     1.0  0.74679  0.58413  0.44823  1.0000
  H   H4369     1.0  0.94480  0.75064  0.63976  1.0000
  H   H4370     1.0  0.82369  0.57870  0.64383  1.0000
  Fe  Fe364     1.0  0.83054  0.66669  0.64562  1.0000
  H   H4371     1.0  0.76715  0.82321  0.31667  1.0000
  H   H4372     1.0  0.76919  0.95788  0.32649  1.0000
  H   H4373     1.0  0.78939  0.56316  0.31565  1.0000
  C   C2539     1.0  0.77529  0.49660  0.31721  1.0000
  H   H4374     1.0  0.76416  0.88552  0.31560  1.0000
  C   C2540     1.0  0.75375  0.89961  0.31625  1.0000
  C   C2541     1.0  0.77800  0.81091  0.64685  1.0000
  Fe  Fe365     1.0  0.74465  0.78374  0.61503  1.0000
  C   C2542     1.0  0.74396  0.81614  0.64587  1.0000
  H   H4375     1.0  0.98545  0.68791  0.64762  1.0000
  Fe  Fe366     1.0  0.83688  0.50539  0.77155  1.0000
  C   C2543     1.0  0.74291  0.61743  0.91432  1.0000
  H   H4376     1.0  0.77747  0.55636  0.78044  1.0000
  Fe  Fe367     1.0  0.78284  0.88662  0.70785  1.0000
  S   S729      1.0  0.80811  0.86539  0.71880  1.0000
  S   S730      1.0  0.77278  0.91858  0.70914  1.0000
  Fe  Fe368     1.0  0.77141  0.85650  0.69221  1.0000
  S   S731      1.0  0.79568  0.83297  0.70165  1.0000
  Fe  Fe369     1.0  0.78759  0.84448  0.72919  1.0000
  H   H4377     1.0  0.80823  0.64703  0.69656  1.0000
  Fe  Fe370     1.0  0.81411  0.85561  0.69045  1.0000
  S   S732      1.0  0.84382  0.84804  0.67163  1.0000
  S   S733      1.0  0.76179  0.86644  0.72077  1.0000
  Fe  Fe371     1.0  0.92641  0.77397  0.70837  1.0000
  S   S734      1.0  0.91357  0.80415  0.71420  1.0000
  Fe  Fe372     1.0  0.93320  0.73132  0.72844  1.0000
  S   S735      1.0  0.94928  0.72102  0.70078  1.0000
  S   S736      1.0  0.92816  0.71330  0.75872  1.0000
  Fe  Fe373     1.0  0.96403  0.74631  0.69518  1.0000
  C   C2544     1.0  0.75428  0.83383  0.66471  1.0000
  S   S737      1.0  0.94968  0.75491  0.72381  1.0000
  S   S738      1.0  0.90843  0.75117  0.71572  1.0000
  H   H4378     1.0  0.76450  0.65258  0.71554  1.0000
  Fe  Fe374     1.0  0.81920  0.59003  0.93922  1.0000
  S   S739      1.0  0.84061  0.57597  0.91572  1.0000
  S   S740      1.0  0.79043  0.87849  0.67842  1.0000
  S   S741      1.0  0.78968  0.60718  0.93511  1.0000
  S   S742      1.0  0.80898  0.52636  0.76745  1.0000
  Fe  Fe375     1.0  0.86039  0.53735  0.75648  1.0000
  S   S743      1.0  0.83454  0.56086  0.75079  1.0000
  S   S744      1.0  0.88825  0.54817  0.74942  1.0000
  Fe  Fe376     1.0  0.81956  0.54627  0.77971  1.0000
  S   S745      1.0  0.80235  0.56409  0.80192  1.0000
  Fe  Fe377     1.0  0.82646  0.53911  0.73887  1.0000
  S   S746      1.0  0.81297  0.54724  0.71255  1.0000
  S   S747      1.0  0.85374  0.51660  0.74181  1.0000
  Fe  Fe378     1.0  0.96532  0.58690  0.82007  1.0000
  S   S748      1.0  0.94759  0.61722  0.81577  1.0000
  Fe  Fe379     1.0  0.93069  0.56895  0.82258  1.0000
  S   S749      1.0  0.91043  0.59788  0.81838  1.0000
  S   S750      1.0  0.91787  0.54281  0.82578  1.0000
  Fe  Fe380     1.0  0.93514  0.60752  0.79537  1.0000
  S   S751      1.0  0.93140  0.62418  0.76538  1.0000
  Fe  Fe381     1.0  0.92462  0.60458  0.83928  1.0000
  S   S752      1.0  0.90621  0.62056  0.86270  1.0000
  S   S753      1.0  0.95451  0.57801  0.79787  1.0000
  S   S754      1.0  0.94329  0.57476  0.84538  1.0000
  C   C2545     1.0  0.89736  0.54577  0.77034  1.0000
  C   C2546     1.0  0.89441  0.53048  0.78635  1.0000
  C   C2547     1.0  0.90126  0.52924  0.80318  1.0000
  C   C2548     1.0  0.91064  0.54356  0.80419  1.0000
  C   C2549     1.0  0.91369  0.55873  0.78811  1.0000
  C   C2550     1.0  0.90741  0.55959  0.77111  1.0000
  H   H4379     1.0  0.88724  0.51939  0.78562  1.0000
  H   H4380     1.0  0.89915  0.51731  0.81548  1.0000
  H   H4381     1.0  0.92097  0.56980  0.78868  1.0000
  H   H4382     1.0  0.91019  0.57108  0.75863  1.0000
  C   C2551     1.0  0.85866  0.58871  0.90131  1.0000
  C   C2552     1.0  0.85788  0.60799  0.90206  1.0000
  C   C2553     1.0  0.87252  0.61779  0.89015  1.0000
  C   C2554     1.0  0.88786  0.60834  0.87744  1.0000
  C   C2555     1.0  0.88865  0.58902  0.87684  1.0000
  C   C2556     1.0  0.87416  0.57920  0.88887  1.0000
  H   H4383     1.0  0.84592  0.61544  0.91162  1.0000
  H   H4384     1.0  0.87189  0.63275  0.89065  1.0000
  H   H4385     1.0  0.90054  0.58158  0.86722  1.0000
  H   H4386     1.0  0.87501  0.56416  0.88857  1.0000
  N   N182      1.0  0.80456  0.49592  0.84754  1.0000
  H   H4387     1.0  0.75594  0.92375  0.75506  1.0000
  C   C2557     1.0  0.76948  0.55711  0.79510  1.0000
  C   C2558     1.0  0.77793  0.56188  0.80815  1.0000
  C   C2559     1.0  0.76722  0.56360  0.82686  1.0000
  H   H4388     1.0  0.76657  0.62308  0.70704  1.0000
  H   H4389     1.0  0.79651  0.61944  0.65840  1.0000
  H   H4390     1.0  0.74544  0.58144  0.90935  1.0000
  H   H4391     1.0  0.77357  0.56756  0.83690  1.0000
  S   S755      1.0  0.82581  0.96522  0.72902  1.0000
  H   H4392     1.0  0.95586  0.69595  0.78434  1.0000
  H   H4393     1.0  0.97846  0.65234  0.81967  1.0000
  C   C2560     1.0  0.77311  0.55987  0.93484  1.0000
  C   C2561     1.0  0.89299  0.71744  0.65226  1.0000
  H   H4394     1.0  0.87901  0.82133  0.66025  1.0000
  C   C2562     1.0  0.74278  0.54364  0.93255  1.0000
  H   H4395     1.0  0.78489  0.56610  0.93560  1.0000
  C   C2563     1.0  0.80198  0.53029  0.85368  1.0000
  H   H4396     1.0  0.87863  0.56502  0.93517  1.0000
  C   C2564     1.0  0.92758  0.68893  0.76017  1.0000
  C   C2565     1.0  0.92290  0.67703  0.77851  1.0000
  C   C2566     1.0  0.92379  0.65714  0.78016  1.0000
  C   C2567     1.0  0.92919  0.64917  0.76344  1.0000
  C   C2568     1.0  0.93319  0.66119  0.74504  1.0000
  C   C2569     1.0  0.93241  0.68106  0.74341  1.0000
  H   H4397     1.0  0.91867  0.68319  0.79146  1.0000
  H   H4398     1.0  0.92017  0.64800  0.79437  1.0000
  H   H4399     1.0  0.93734  0.65507  0.73209  1.0000
  H   H4400     1.0  0.93578  0.69017  0.72923  1.0000
  H   H4401     1.0  0.90603  0.80332  0.67710  1.0000
  C   C2570     1.0  0.78391  0.69175  0.65349  1.0000
  C   C2571     1.0  0.90058  0.68206  0.65865  1.0000
  C   C2572     1.0  0.82551  0.56088  0.69174  1.0000
  C   C2573     1.0  0.84122  0.56845  0.69247  1.0000
  C   C2574     1.0  0.85027  0.58021  0.67570  1.0000
  H   H4402     1.0  0.78270  0.50652  0.68983  1.0000
  H   H4403     1.0  0.84637  0.56531  0.70591  1.0000
  H   H4404     1.0  0.86255  0.58589  0.67611  1.0000
  S   S756      1.0  0.84596  0.52425  0.78657  1.0000
  S   S757      1.0  0.78738  0.82128  0.75647  1.0000
  H   H4405     1.0  0.77339  0.78758  0.77961  1.0000
  C   C2575     1.0  0.86315  0.83615  0.68361  1.0000
  C   C2576     1.0  0.86306  0.83896  0.70203  1.0000
  C   C2577     1.0  0.87875  0.82935  0.71122  1.0000
  C   C2578     1.0  0.89419  0.81630  0.70237  1.0000
  C   C2579     1.0  0.89413  0.81329  0.68407  1.0000
  C   C2580     1.0  0.87887  0.82355  0.67451  1.0000
  H   H4406     1.0  0.85102  0.84864  0.70918  1.0000
  C   C2581     1.0  0.83201  0.61252  0.71372  1.0000
  C   C2582     1.0  0.78734  0.93131  0.71520  1.0000
  C   C2583     1.0  0.78538  0.95143  0.70790  1.0000
  C   C2584     1.0  0.79724  0.96194  0.71188  1.0000
  C   C2585     1.0  0.81098  0.95243  0.72339  1.0000
  C   C2586     1.0  0.81275  0.93234  0.73094  1.0000
  C   C2587     1.0  0.80094  0.92179  0.72689  1.0000
  H   H4407     1.0  0.77484  0.95887  0.69887  1.0000
  S   S758      1.0  0.94191  0.76731  0.67916  1.0000
  H   H4408     1.0  0.82326  0.92493  0.73999  1.0000
  H   H4409     1.0  0.80230  0.90633  0.73283  1.0000
  C   C2588     1.0  0.85368  0.94062  0.67251  1.0000
  N   N183      1.0  0.79745  0.62002  0.70620  1.0000
  H   H4410     1.0  0.94768  0.79003  0.75363  1.0000
  H   H4411     1.0  0.88979  0.57809  0.70102  1.0000
  H   H4412     1.0  0.83380  0.89610  0.71065  1.0000
  H   H4413     1.0  0.80891  0.92559  0.65060  1.0000
  C   C2589     1.0  0.85099  0.77685  0.73076  1.0000
  C   C2590     1.0  0.97055  0.69547  0.78674  1.0000
  C   C2591     1.0  0.80946  0.77040  0.74408  1.0000
  H   H4414     1.0  0.75507  0.93948  0.80260  1.0000
  H   H4415     1.0  0.80819  0.78480  0.71459  1.0000
  H   H4416     1.0  0.89735  0.55236  0.97710  1.0000
  H   H4417     1.0  0.87400  0.53951  0.96827  1.0000
  H   H4418     1.0  0.77287  0.61657  0.73012  1.0000
  H   H4419     1.0  0.83744  0.80908  0.70266  1.0000
  C   C2592     1.0  0.77353  0.82432  0.65917  1.0000
  H   H4420     1.0  0.80569  0.96489  0.78084  1.0000
  C   C2593     1.0  0.74889  0.83465  0.77282  1.0000
  H   H4421     1.0  0.97966  0.69864  0.66895  1.0000
  H   H4422     1.0  0.79396  0.77676  0.74945  1.0000
  H   H4423     1.0  0.84759  0.80829  0.72971  1.0000
  H   H4424     1.0  0.76235  0.59058  0.72088  1.0000
  C   C2594     1.0  0.76148  0.79996  0.78075  1.0000
  S   S759      1.0  0.80792  0.56940  0.96616  1.0000
  H   H4425     1.0  0.85807  0.79243  0.74922  1.0000
  H   H4426     1.0  0.85873  0.88793  0.71208  1.0000
  H   H4427     1.0  0.79463  0.51263  0.66506  1.0000
  C   C2595     1.0  0.74832  0.64900  0.95272  1.0000
  H   H4428     1.0  0.96356  0.66481  0.77817  1.0000
  C   C2596     1.0  0.84358  0.79445  0.69897  1.0000
  C   C2597     1.0  0.79254  0.62751  0.67048  1.0000
  C   C2598     1.0  0.85450  0.92691  0.65898  1.0000
  C   C2599     1.0  0.77761  0.59268  0.71570  1.0000
  H   H4429     1.0  0.81718  0.76898  0.75589  1.0000
  H   H4430     1.0  0.77895  0.51413  0.86178  1.0000
  S   S760      1.0  0.74811  0.85113  0.67973  1.0000
  H   H4431     1.0  0.96758  0.70398  0.79834  1.0000
  C   C2600     1.0  0.76434  0.81863  0.77093  1.0000
  H   H4432     1.0  0.87166  0.74109  0.71102  1.0000
  H   H4433     1.0  0.82942  0.48747  0.86161  1.0000
  H   H4434     1.0  0.75523  0.82547  0.72392  1.0000
  C   C2601     1.0  0.78185  0.95471  0.77618  1.0000
  H   H4435     1.0  0.78284  0.58868  0.70119  1.0000
  H   H4436     1.0  0.86585  0.50346  0.69553  1.0000
  H   H4437     1.0  0.94388  0.66029  0.83270  1.0000
  C   C2602     1.0  0.75070  0.55301  0.80114  1.0000
  C   C2603     1.0  0.83648  0.79479  0.68051  1.0000
  H   H4438     1.0  0.83134  0.62751  0.71528  1.0000
  C   C2604     1.0  0.84386  0.58400  0.65817  1.0000
  S   S761      1.0  0.75169  0.57681  0.96562  1.0000
  H   H4439     1.0  0.84816  0.51735  0.68163  1.0000
  C   C2605     1.0  0.84862  0.89868  0.70345  1.0000
  H   H4440     1.0  0.87194  0.76330  0.69315  1.0000
  H   H4441     1.0  0.82636  0.50410  0.67230  1.0000
  H   H4442     1.0  0.84969  0.91334  0.70439  1.0000
  H   H4443     1.0  0.83232  0.75913  0.70130  1.0000
  H   H4444     1.0  0.87003  0.89323  0.67772  1.0000
  C   C2606     1.0  0.98053  0.79585  0.68218  1.0000
  S   S762      1.0  0.82424  0.61010  0.95571  1.0000
  H   H4445     1.0  0.83912  0.74762  0.72360  1.0000
  C   C2607     1.0  0.74316  0.79713  0.79181  1.0000
  H   H4446     1.0  0.76398  0.57522  0.87771  1.0000
  C   C2608     1.0  0.77984  0.50969  0.82497  1.0000
  H   H4447     1.0  0.76000  0.79972  0.72721  1.0000
  C   C2609     1.0  0.80126  0.50360  0.82700  1.0000
  N   N184      1.0  0.98055  0.67468  0.79318  1.0000
  H   H4448     1.0  0.81432  0.59182  0.71729  1.0000
  H   H4449     1.0  0.87450  0.60622  0.94220  1.0000
  C   C2610     1.0  0.82285  0.91687  0.67617  1.0000
  C   C2611     1.0  0.79010  0.96490  0.78761  1.0000
  H   H4450     1.0  0.89538  0.58636  0.91639  1.0000
  N   N185      1.0  0.89769  0.61564  0.71901  1.0000
  C   C2612     1.0  0.89372  0.59614  0.71896  1.0000
  C   C2613     1.0  0.90074  0.61470  0.73911  1.0000
  C   C2614     1.0  0.91598  0.61866  0.70389  1.0000
  C   C2615     1.0  0.88051  0.63116  0.71392  1.0000
  C   C2616     1.0  0.89209  0.59313  0.69910  1.0000
  C   C2617     1.0  0.88330  0.61148  0.75612  1.0000
  C   C2618     1.0  0.92787  0.63216  0.70693  1.0000
  C   C2619     1.0  0.88044  0.65215  0.71500  1.0000
  H   H4451     1.0  0.90531  0.58405  0.72427  1.0000
  H   H4452     1.0  0.87987  0.59349  0.72913  1.0000
  H   H4453     1.0  0.90475  0.62811  0.74017  1.0000
  H   H4454     1.0  0.91345  0.60296  0.74237  1.0000
  H   H4455     1.0  0.92642  0.60451  0.70307  1.0000
  H   H4456     1.0  0.91262  0.62440  0.68903  1.0000
  H   H4457     1.0  0.87937  0.63214  0.69864  1.0000
  H   H4458     1.0  0.86650  0.62730  0.72270  1.0000
  H   H4459     1.0  0.90555  0.59447  0.68783  1.0000
  C   C2620     1.0  0.96095  0.82872  0.70354  1.0000
  H   H4460     1.0  0.87945  0.60317  0.69369  1.0000
  H   H4461     1.0  0.87027  0.62309  0.75423  1.0000
  H   H4462     1.0  0.87976  0.59694  0.75841  1.0000
  H   H4463     1.0  0.88728  0.61200  0.76980  1.0000
  H   H4464     1.0  0.91897  0.64644  0.70944  1.0000
  H   H4465     1.0  0.93935  0.63492  0.69367  1.0000
  H   H4466     1.0  0.93542  0.62510  0.71925  1.0000
  H   H4467     1.0  0.88860  0.65964  0.70115  1.0000
  H   H4468     1.0  0.88615  0.65320  0.72736  1.0000
  H   H4469     1.0  0.86519  0.66039  0.71744  1.0000
  C   C2621     1.0  0.90107  0.56243  0.96285  1.0000
  H   H4470     1.0  0.95551  0.85576  0.68253  1.0000
  C   C2622     1.0  0.91516  0.69993  0.67367  1.0000
  H   H4471     1.0  0.97291  0.78401  0.69095  1.0000
  N   N186      1.0  0.85058  0.56594  0.84401  1.0000
  C   C2623     1.0  0.86241  0.54545  0.84493  1.0000
  C   C2624     1.0  0.83940  0.57009  0.82796  1.0000
  C   C2625     1.0  0.83681  0.56672  0.86354  1.0000
  C   C2626     1.0  0.86451  0.57949  0.83988  1.0000
  C   C2627     1.0  0.87319  0.53710  0.86205  1.0000
  C   C2628     1.0  0.85178  0.56917  0.80728  1.0000
  C   C2629     1.0  0.81786  0.58231  0.86398  1.0000
  C   C2630     1.0  0.85571  0.60144  0.83763  1.0000
  H   H4472     1.0  0.85309  0.53511  0.84560  1.0000
  H   H4473     1.0  0.87386  0.54450  0.83153  1.0000
  H   H4474     1.0  0.82968  0.58464  0.82677  1.0000
  H   H4475     1.0  0.82944  0.55967  0.83135  1.0000
  H   H4476     1.0  0.83189  0.55262  0.86992  1.0000
  H   H4477     1.0  0.84435  0.56876  0.87427  1.0000
  H   H4478     1.0  0.87250  0.57609  0.85186  1.0000
  H   H4479     1.0  0.87649  0.57707  0.82708  1.0000
  H   H4480     1.0  0.88084  0.52190  0.86121  1.0000
  H   H4481     1.0  0.88463  0.54515  0.86109  1.0000
  H   H4482     1.0  0.86323  0.53660  0.87652  1.0000
  H   H4483     1.0  0.84199  0.57377  0.79669  1.0000
  H   H4484     1.0  0.86220  0.57915  0.80255  1.0000
  H   H4485     1.0  0.85959  0.55415  0.80602  1.0000
  H   H4486     1.0  0.81029  0.58214  0.87944  1.0000
  H   H4487     1.0  0.80774  0.57900  0.85663  1.0000
  H   H4488     1.0  0.82043  0.59722  0.85761  1.0000
  H   H4489     1.0  0.85082  0.60568  0.85209  1.0000
  H   H4490     1.0  0.84370  0.60626  0.82965  1.0000
  H   H4491     1.0  0.86696  0.60979  0.82866  1.0000
  N   N187      1.0  0.84398  0.91020  0.66744  1.0000
  H   H4492     1.0  0.78502  0.82756  0.66409  1.0000
  H   H4493     1.0  0.92462  0.69986  0.68305  1.0000
  N   N188      1.0  0.81951  0.49207  0.70352  1.0000
  H   H4494     1.0  0.80819  0.49242  0.81791  1.0000
  H   H4495     1.0  0.91181  0.57007  0.96472  1.0000
  C   C2631     1.0  0.84241  0.75921  0.71056  1.0000
  H   H4496     1.0  0.94021  0.68193  0.81445  1.0000
  H   H4497     1.0  0.78550  0.93890  0.78254  1.0000
  H   H4498     1.0  0.81774  0.49092  0.74446  1.0000
  C   C2632     1.0  0.79597  0.64100  0.70710  1.0000
  H   H4499     1.0  0.79735  0.64204  0.72177  1.0000
  H   H4500     1.0  0.94941  0.71870  0.66075  1.0000
  H   H4501     1.0  0.95187  0.83615  0.71547  1.0000
  C   C2633     1.0  0.81915  0.56472  0.67422  1.0000
  H   H4502     1.0  0.79584  0.93646  0.67072  1.0000
  H   H4503     1.0  0.86668  0.77465  0.72356  1.0000
  Fe  Fe382     1.0  0.92561  0.74278  0.68755  1.0000
  H   H4504     1.0  0.76021  0.60076  0.87669  1.0000
  C   C2634     1.0  0.77806  0.61405  0.71491  1.0000
  H   H4505     1.0  0.78961  0.49129  0.71872  1.0000
  H   H4506     1.0  0.95049  0.82311  0.69855  1.0000
  C   C2635     1.0  0.91304  0.68225  0.67055  1.0000
  C   C2636     1.0  0.97349  0.69443  0.65845  1.0000
  H   H4507     1.0  0.78925  0.54757  0.90987  1.0000
  H   H4508     1.0  0.75674  0.60716  0.91027  1.0000
  C   C2637     1.0  0.81072  0.93189  0.66231  1.0000
  H   H4509     1.0  0.98356  0.63367  0.77411  1.0000
  C   C2638     1.0  0.75540  0.56249  0.94819  1.0000
  C   C2639     1.0  0.81427  0.50542  0.68511  1.0000
  H   H4510     1.0  0.98410  0.61119  0.84020  1.0000
  H   H4511     1.0  0.85813  0.58041  0.94563  1.0000
  H   H4512     1.0  0.79802  0.48763  0.67707  1.0000
  C   C2640     1.0  0.77561  0.54929  0.92031  1.0000
  H   H4513     1.0  0.85846  0.49204  0.68027  1.0000
  H   H4514     1.0  0.79249  0.49067  0.75162  1.0000
  H   H4515     1.0  0.83243  0.50453  0.83959  1.0000
  N   N189      1.0  0.88303  0.57693  0.95827  1.0000
  Fe  Fe383     1.0  0.79344  0.62516  0.95438  1.0000
  Fe  Fe384     1.0  0.77864  0.58805  0.96326  1.0000
  H   H4516     1.0  0.87117  0.87733  0.65267  1.0000
  S   S763      1.0  0.78390  0.65758  0.94888  1.0000
  C   C2641     1.0  0.77154  0.70906  0.65771  1.0000
  H   H4517     1.0  0.78904  0.95716  0.80307  1.0000
  C   C2642     1.0  0.87082  0.56896  0.94933  1.0000
  H   H4518     1.0  0.82110  0.92344  0.68883  1.0000
  C   C2643     1.0  0.75895  0.66365  0.94913  1.0000
  H   H4519     1.0  0.83963  0.80798  0.66944  1.0000
  C   C2644     1.0  0.90535  0.71760  0.66426  1.0000
  H   H4520     1.0  0.85952  0.79383  0.69468  1.0000
  C   C2645     1.0  0.74886  0.81308  0.72391  1.0000
  C   C2646     1.0  0.97892  0.66289  0.77942  1.0000
  C   C2647     1.0  0.77700  0.65552  0.70345  1.0000
  C   C2648     1.0  0.81167  0.60731  0.71853  1.0000
  C   C2649     1.0  0.76036  0.54139  0.91897  1.0000
  N   N190      1.0  0.76045  0.96098  0.77586  1.0000
  H   H4521     1.0  0.77875  0.67046  0.70296  1.0000
  S   S764      1.0  0.90909  0.74019  0.66602  1.0000
  C   C2650     1.0  0.84462  0.90047  0.65107  1.0000
  C   C2651     1.0  0.98800  0.82024  0.72066  1.0000
  S   S765      1.0  0.80450  0.68248  0.66400  1.0000
  H   H4522     1.0  0.96521  0.68294  0.66699  1.0000
  H   H4523     1.0  0.94427  0.81551  0.74360  1.0000
  C   C2652     1.0  0.88805  0.59544  0.94485  1.0000
  C   C2653     1.0  0.85392  0.89519  0.68243  1.0000
  H   H4524     1.0  0.77470  0.71645  0.66742  1.0000
  N   N191      1.0  0.83858  0.77859  0.71636  1.0000
  H   H4525     1.0  0.77453  0.92177  0.76776  1.0000
  H   H4526     1.0  0.87872  0.83170  0.72539  1.0000
  H   H4527     1.0  0.83964  0.94348  0.68279  1.0000
  C   C2654     1.0  0.80252  0.49608  0.72010  1.0000
  H   H4528     1.0  0.80557  0.60749  0.73428  1.0000
  C   C2655     1.0  0.96830  0.84482  0.68676  1.0000
  H   H4529     1.0  0.81682  0.94524  0.65603  1.0000
  H   H4530     1.0  0.97666  0.78274  0.72802  1.0000
  H   H4531     1.0  0.84075  0.60244  0.72413  1.0000
  H   H4532     1.0  0.79790  0.51203  0.71977  1.0000
  C   C2656     1.0  0.90124  0.59346  0.92482  1.0000
  H   H4533     1.0  0.97848  0.82870  0.73166  1.0000
  C   C2657     1.0  0.74868  0.55904  0.83302  1.0000
  H   H4534     1.0  0.84013  0.61050  0.69895  1.0000
  H   H4535     1.0  0.77930  0.51501  0.80929  1.0000
  H   H4536     1.0  0.76775  0.70794  0.97390  1.0000
  H   H4537     1.0  0.79733  0.50489  0.87535  1.0000
  H   H4538     1.0  0.90237  0.60826  0.91593  1.0000
  H   H4539     1.0  0.90805  0.53445  0.95335  1.0000
  H   H4540     1.0  0.79091  0.95593  0.76117  1.0000
  H   H4541     1.0  0.89588  0.60251  0.95155  1.0000
  H   H4542     1.0  0.91626  0.58578  0.92621  1.0000
  C   C2658     1.0  0.84685  0.79449  0.74053  1.0000
  H   H4543     1.0  0.90958  0.55486  0.93299  1.0000
  H   H4544     1.0  0.84973  0.76366  0.74255  1.0000
  S   S766      1.0  0.76314  0.53011  0.89937  1.0000
  H   H4545     1.0  0.97654  0.83915  0.67353  1.0000
  H   H4546     1.0  0.77684  0.62792  0.67610  1.0000
  C   C2659     1.0  0.94909  0.66700  0.81721  1.0000
  C   C2660     1.0  0.85318  0.50258  0.69005  1.0000
  H   H4547     1.0  0.97195  0.67625  0.82376  1.0000
  C   C2661     1.0  0.80519  0.61689  0.68561  1.0000
  C   C2662     1.0  0.96636  0.79691  0.72523  1.0000
  H   H4548     1.0  0.77216  0.49732  0.83035  1.0000
  C   C2663     1.0  0.98115  0.70706  0.76778  1.0000
  C   C2664     1.0  0.97087  0.66722  0.81387  1.0000
  C   C2665     1.0  0.79502  0.51078  0.86019  1.0000
  H   H4549     1.0  0.85633  0.59177  0.97449  1.0000
  H   H4550     1.0  0.83251  0.79599  0.75071  1.0000
  C   C2666     1.0  0.81725  0.78406  0.72512  1.0000
  H   H4551     1.0  0.97033  0.80758  0.67459  1.0000
  C   C2667     1.0  0.83714  0.49659  0.70764  1.0000
  C   C2668     1.0  0.91180  0.54911  0.94808  1.0000
  H   H4552     1.0  0.74337  0.70587  0.97601  1.0000
  H   H4553     1.0  0.75565  0.63391  0.95427  1.0000
  C   C2669     1.0  0.95949  0.71187  0.64884  1.0000
  C   C2670     1.0  0.82846  0.57604  0.65744  1.0000
  H   H4554     1.0  0.81364  0.79897  0.72824  1.0000
  C   C2671     1.0  0.75441  0.98270  0.76904  1.0000
  H   H4555     1.0  0.92108  0.66866  0.67740  1.0000
  C   C2672     1.0  0.99014  0.80336  0.69475  1.0000
  H   H4556     1.0  0.75760  0.69453  0.94380  1.0000
  H   H4557     1.0  0.95536  0.79372  0.71890  1.0000
  H   H4558     1.0  0.92772  0.54662  0.94724  1.0000
  C   C2673     1.0  0.89045  0.69973  0.64961  1.0000
  H   H4559     1.0  0.85539  0.95524  0.66352  1.0000
  H   H4560     1.0  0.96555  0.80292  0.75387  1.0000
  H   H4561     1.0  0.94632  0.65814  0.80824  1.0000
  H   H4562     1.0  0.79249  0.54052  0.86296  1.0000
  H   H4563     1.0  0.83278  0.50885  0.71547  1.0000
  H   H4564     1.0  0.80848  0.51614  0.81954  1.0000
  C   C2674     1.0  0.95545  0.80192  0.74515  1.0000
  C   C2675     1.0  0.82614  0.49133  0.84673  1.0000
  H   H4565     1.0  0.85050  0.88068  0.68384  1.0000
  H   H4566     1.0  0.79582  0.97736  0.70589  1.0000
  H   H4567     1.0  0.77185  0.52174  0.83248  1.0000
  H   H4568     1.0  0.81556  0.90416  0.68220  1.0000
  H   H4569     1.0  0.80982  0.75581  0.74164  1.0000
  C   C2676     1.0  0.74935  0.68317  0.94697  1.0000
  H   H4570     1.0  0.97715  0.85270  0.69121  1.0000
  H   H4571     1.0  0.74626  0.73088  0.65178  1.0000
  H   H4572     1.0  0.81163  0.52092  0.68647  1.0000
  C   C2677     1.0  0.86354  0.75171  0.70039  1.0000
  H   H4573     1.0  0.87025  0.92134  0.65376  1.0000
  H   H4574     1.0  0.82058  0.79563  0.68337  1.0000
  S   S767      1.0  0.85153  0.64258  0.66015  1.0000
  H   H4575     1.0  0.80093  0.53729  0.83848  1.0000
  H   H4576     1.0  0.80702  0.55893  0.67359  1.0000
  C   C2678     1.0  0.86270  0.55107  0.96209  1.0000
  H   H4577     1.0  0.86560  0.93509  0.68076  1.0000
  H   H4578     1.0  0.81700  0.52855  0.85568  1.0000
  H   H4579     1.0  0.98660  0.66820  0.76435  1.0000
  H   H4580     1.0  0.85662  0.54481  0.95299  1.0000
  H   H4581     1.0  0.80905  0.60122  0.68508  1.0000
  H   H4582     1.0  0.78595  0.58238  0.72630  1.0000
  H   H4583     1.0  0.74690  0.63151  0.91347  1.0000
  H   H4584     1.0  0.86345  0.74430  0.68874  1.0000
  H   H4585     1.0  0.97200  0.73888  0.65708  1.0000
  H   H4586     1.0  0.85049  0.55525  0.97405  1.0000
  H   H4587     1.0  0.79516  0.64251  0.66433  1.0000
  H   H4588     1.0  0.75111  0.84916  0.76553  1.0000
  N   N192      1.0  0.97640  0.81231  0.71105  1.0000
  H   H4589     1.0  0.77350  0.65583  0.68939  1.0000
  H   H4590     1.0  0.75680  0.97082  0.81298  1.0000
  C   C2679     1.0  0.79633  0.50263  0.67923  1.0000
  C   C2680     1.0  0.87046  0.58223  0.97706  1.0000
  H   H4591     1.0  0.84433  0.78206  0.67384  1.0000
  H   H4592     1.0  0.81929  0.62167  0.67950  1.0000
  S   S768      1.0  0.89829  0.65953  0.65516  1.0000
  H   H4593     1.0  0.97187  0.72172  0.76426  1.0000
  H   H4594     1.0  0.98345  0.70016  0.75514  1.0000
  C   C2681     1.0  0.80587  0.48624  0.74089  1.0000
  H   H4595     1.0  0.87926  0.60798  0.98054  1.0000
  H   H4596     1.0  0.74439  0.54878  0.79122  1.0000
  C   C2682     1.0  0.74367  0.96736  0.81072  1.0000
  C   C2683     1.0  0.75268  0.58882  0.87796  1.0000
  H   H4597     1.0  0.83488  0.88968  0.65610  1.0000
  H   H4598     1.0  0.80321  0.73870  0.65215  1.0000
  C   C2684     1.0  0.74820  0.95431  0.79562  1.0000
  H   H4599     1.0  0.74611  0.59129  0.86507  1.0000
  H   H4600     1.0  0.78334  0.98042  0.78696  1.0000
  C   C2685     1.0  0.75928  0.92888  0.76684  1.0000
  C   C2686     1.0  0.75544  0.71722  0.64887  1.0000
  C   C2687     1.0  0.98726  0.64082  0.78420  1.0000
  H   H4601     1.0  0.98097  0.63384  0.79911  1.0000
  C   C2688     1.0  0.75646  0.95133  0.76147  1.0000
  H   H4602     1.0  0.76607  0.95465  0.74693  1.0000
  H   H4603     1.0  0.74642  0.81404  0.70917  1.0000
  H   H4604     1.0  0.74926  0.92372  0.78052  1.0000
  H   H4605     1.0  0.99020  0.74381  0.72373  1.0000
  H   H4606     1.0  0.74100  0.78257  0.79898  1.0000
  H   H4607     1.0  0.74129  0.95706  0.75911  1.0000
  H   H4608     1.0  0.74088  0.55959  0.84772  1.0000
