data_image0
_chemical_formula_structural       HCHS2NCH2CH2CH4C2HCH4CHC2HCH3CNC2H2CHC2H5FeS2FeS2FeSFeS4H2CSH8Fe2S2FeS2HS2C2HCH3CH2CH2C2H2CHCH4C2HSC2SC2HCH4CHC7H4C6H4C6H8CH4C2H5NH2CHNC5SHCH3CH9CSCH4C2HCH2NH4C3H2C2H3CHCHC2H4C2H4CH3CH2N2HCSCH12CH4CSCHCHC2SCHCFeH3C2H5CHC2HC2HCSHSH2NH3FeH5CH2CH4CFe2H4SH2NC4HCH2CH3CH4CHCFeHFeS2FeS2FeSFeS4CHSHSHC3H2SCFeS2FeSCFeSFeS3HNC2HCH4CNCH3FeHC2H2NH3CH2C3HCH2CH2CH2C2HC6H4C6H4C6H6CSH3CHCHS2HSC3HCHCH2CH3C3HSC3HCH2CH2CHNCNHC3H5C2H7CHCSCHC2HNC8H21CHC2SHSCH2CSHC2FeHCHCHC2SFeH6FeCSHSH4Fe2H6CH2CH2C2FeCH3CH8CSHNH3SH4SC3H3SCH2C2H2CHCFeH5CH5CHC6HCH4CH5C3HCH14CH3NH2FeHFe2SHSHCHCH3C2HC4HCFeHC3HNH2CHFeHCSHC4SCH2SHSCH2SH2CH2SH4CH4CFeHNCH4CHCHSFeS2FeCH3CH2FeS2FeS2FeSFeS3FeS2FeS2FeSFeS3FeS2FeS2FeSFeHS2C6H4C6H4C6FeCH3CHC2SH2C4H2CFeNHC6H5SH2CH3CHC6H8CHCHNCH3NHCH6CH2CHC4SHCHFeCHCH3CH2SHC2H2CNC8H22CFe2HCH4CHFeH2SHFeCH4SHFeH2CSC4FeH2NH4CHSH2C2H2NC8H20CHSH3C2H2CH2CSH2CSH2SH3C3H2CHNHCH2CH2CSH6CHCH3CH3C2H4SHNH6CFeS2CH3CH4CH4CHSCHSH2S2H2FeSHSH5C4H3C2H2CHC4H7C2HCHCH4NC6H4CH3CH4C2HCSH2CH3C3FeC2NHCH3CH2C2SC2HSNC2SCH3C3H6C2H2SCH4CH3FeH4C2H2CH5NCHC3H3CSH7NCHCH2CSCFeHCH2C3H2C2HC2H3CH2C2FeCHCH3SCH5CH2NH4CSHS2CH2SH5CHFeHCHCHC2H2SH3NHCH2SH2C2H2C2HCH2SCHCH2C2H2FeS2H3C2H2SC7HCH3C2H3CHCSNH4C2HSH2C2H2CH3C3HFeHFeH2C5HSH4NH2CHCHCHCH2C2H2CHC2HSHCHCH7CH5SHCH2FeHSH5SH3CH3C4H2NHSCFeH2C2HCNCSH2FeHCH3CH3C3H7FeCH3CNH2CH2C2S2HC5FeH2CH7CHC3HC2H3CH3CSH2FeCHSFeS2H2CHFeHCHSH2SFeS2FeSFeSFeSFeSFeSFeS3FeS2FeS2FeSFeS3C2SHSCHNH2C6H4SHSH2C7H4CHC4NH13FeH5C2HC6H8SH2C2HFeHC3H3C3HFeCSC2H2CH3C2H2CHCH2CHNHCH2CH3C2H2FeSHFeH3C2SHSH2C2HS2H2CH2C2H5C3H3NHCHCH4CH2NH4C3H2CHC2H3NC8H4CH2SC2H2C3H3SHCSH2C2H2C2H3C2H3CNH2CH2NCHCHSC2H2CH2CHC2H6CHCHSC4H2C2HCHNHCSHCH2NHCH11C3H4FeC3H5CH3CHCHCH5CH2CH2CHSHCHC2H6FeH3CH6FeH4CH3C2H2C2HCH3SHFeSCHCS2FeCHS2FeS2FeS2FeSFeS3HSCHCHFeHC2H2C6H4CHSH2C6H5C4H5C6H9S2NC6HCH14NH10C2HCHFeH5CH2CHCH2C2HNC4HCH6CH8CHCHC2H2CH2CH2NHCH2C2H3SFeH2CH3CNSHFeHCSH2SHS2H2FeCHCH5C2SFeC2HNCHCHSCH2S2H3FeCHC4H3CSH2C2HC2FeHCSH5CNFe2C2H3C2HCH3C3H3FeCS2H2C2H2CH4SHCFeH3CFeH2NSH6CHC2H4C2HCSC3H3CH2CSH3SH5FeH3CHCHCHCHCH3SCH2SFeS2CH2SCH5SH2FeHSC2S2CSCSH6CHC2H2C2HNCH2SHSC3H2CSHFeH2CHFeCHCH5C3HCSCH2CFe2C9H4FeH3CNH2CFeH2CHCNC2SH2C3H2CHSNH5SH2SCH2FeC2H3CHC2H2FeH8C3H2CH5FeHCH5CH3CHCH2SHC2H2C2SH5NCHSH4C2H2CHCH8C2HSH2C2H7CHCHCH3CH2CHCHCFeS2H5FeS2H2CFeHFeS3H4NHSH2CHFeS2CH5Fe2CH5C3HCH2CHCH2C6H2C3H2CHCH5CFeC6H7S2H2CSCHNH2CH4CHCHCFeH7SC2SHSC3H2SHCH4CSHCHS2C2HC2H3C3HC2H4C2S2H3CHNC6HCH10CH4CH7CHNH2FeH5CHFeHCH3FeSH3CH2CHSFe2SFeS2CHFeS2FeS2FeHFeS3FeS2FeSHFeSFeS3FeS2FeS2NHC6H4C2H2C6H4C6H4SC4H4C7H6C3HC4HNC4HC4H3CH3FeH12CHNC6HCH8CHSH3C2H9CHCH4CHCSH2SH2SH3SC2H2CNC8H22CHSH6C2H3S2HCSFeH4C2HFeHFeNSH3CH2CHC2H4SH5NC2HCHCFeC4H5CHSCHCHC2H4CH3SH2CH2NH2CHSH3CHSHSCH2C4H2C2HCH6CH6CH3C4HC2H2C2H4CH3CHC4H3CH4NH7CH2C2H3CHNHCHC3S2H6CH3CH4FeHCH2CH3CH2C4HCHCH2CFeS2H4SFeS2FeS2FeSFeS3FeSFeS2FeSFeS3FeS2FeS2FeSFeCS2HC4HCHCHCH2CH3SFe2HC4H2CH4CHSC2H3C8H4C6H4C6H4C6H4C3HSH4CHSHNC8H20C4H4CH3C2HCSH3CH2C2SHC2H4CHSHNFeCH2SCHNH3S2HNC8H8C2H4FeCH4NHC5HCNH3CHCHSH4FeCH2NC6H13SH3FeCHCFeHCHCH2NCH2CH7SHFeH2NH3CH3CHCH7NSCNH3CH2SHC2H2FeH2CH6CFeSHCH3C5HCH2CH2SCH2CH2CSH3C2HCHCH3CHCH2CH2CH3CHC2H2C2H3C2H2CH3CH2CHCH4C4H2C2HFeS2FeH2C2H2FeS2FeSHFeSFeS3CSCFeH4C2FeS2FeS2FeHSCNH2C5HSH3CH3C7H4CH2CH4C8H4C3H2C2H3C6H5C2H2CH2CHNFeC2H3CH3CH3CHCH3NC8H16CHCH3NH2CH5CHCHN2H2CH4CH2SHC2FeH3CSH2CHSHCH2CSHSH4CHC4NSH4C2HCH2CH3NCHCHCH4CSH2SH3CSH3CHCSH6CHCHCH2CH2CH2CH3CH5C2FeHCH3C2H2C2HCH8CH4C2HSCH4CH3CHC3H2NHCH4CH6NH2CH
_chemical_formula_sum              "H2304 C1344 S384 N96 Fe192"
_cell_length_a       54.5606
_cell_length_b       54.2451
_cell_length_c       71.6435
_cell_angle_alpha    81.2882
_cell_angle_beta     80.9754
_cell_angle_gamma    106.711

_space_group_name_H-M_alt    "P 1"
_space_group_IT_number       1

loop_
  _space_group_symop_operation_xyz
  'x, y, z'

loop_
  _atom_site_type_symbol
  _atom_site_label
  _atom_site_symmetry_multiplicity
  _atom_site_fract_x
  _atom_site_fract_y
  _atom_site_fract_z
  _atom_site_occupancy
  H   H1        1.0  0.45184  0.23897  0.03633  1.0000
  C   C1        1.0  0.44279  0.43930  0.18846  1.0000
  H   H2        1.0  0.45609  0.29564  0.11852  1.0000
  S   S1        1.0  0.46482  0.31923  0.06242  1.0000
  S   S2        1.0  0.45719  0.08636  0.21216  1.0000
  N   N1        1.0  0.47280  0.23775  0.11764  1.0000
  C   C2        1.0  0.44579  0.39598  0.16615  1.0000
  H   H3        1.0  0.44857  0.19904  0.13443  1.0000
  H   H4        1.0  0.44001  0.24726  0.13227  1.0000
  C   C3        1.0  0.44886  0.38140  0.14944  1.0000
  H   H5        1.0  0.44997  0.27705  0.10041  1.0000
  H   H6        1.0  0.47804  0.17767  0.00617  1.0000
  C   C4        1.0  0.46469  0.42659  0.18586  1.0000
  H   H7        1.0  0.44704  0.45762  0.17756  1.0000
  H   H8        1.0  0.46237  0.24528  0.08973  1.0000
  H   H9        1.0  0.45902  0.40960  0.19829  1.0000
  H   H10       1.0  0.43848  0.27631  0.04577  1.0000
  C   C5        1.0  0.46805  0.21812  0.15421  1.0000
  C   C6        1.0  0.47884  0.99732  0.20003  1.0000
  H   H11       1.0  0.40275  0.07450  0.21270  1.0000
  C   C7        1.0  0.46805  0.21382  0.13337  1.0000
  H   H12       1.0  0.43719  0.22133  0.10768  1.0000
  H   H13       1.0  0.46819  0.19977  0.16346  1.0000
  H   H14       1.0  0.42944  0.36755  0.14930  1.0000
  H   H15       1.0  0.45404  0.20137  0.08259  1.0000
  C   C8        1.0  0.45658  0.27365  0.04857  1.0000
  H   H16       1.0  0.42343  0.42544  0.18838  1.0000
  C   C9        1.0  0.47282  0.29170  0.05703  1.0000
  C   C10       1.0  0.46421  0.25266  0.04315  1.0000
  H   H17       1.0  0.42916  0.40361  0.16470  1.0000
  C   C11       1.0  0.40476  0.06277  0.22565  1.0000
  H   H18       1.0  0.43882  0.38095  0.17990  1.0000
  H   H19       1.0  0.44115  0.44479  0.20284  1.0000
  H   H20       1.0  0.47039  0.26448  0.13715  1.0000
  C   C12       1.0  0.46643  0.20703  0.09315  1.0000
  N   N2        1.0  0.46973  0.41789  0.16699  1.0000
  C   C13       1.0  0.45880  0.22871  0.10207  1.0000
  C   C14       1.0  0.42968  0.06449  0.22904  1.0000
  H   H21       1.0  0.47456  0.36835  0.18362  1.0000
  H   H22       1.0  0.46574  0.14294  0.01093  1.0000
  C   C15       1.0  0.47504  0.44019  0.14994  1.0000
  H   H23       1.0  0.45600  0.39497  0.13510  1.0000
  C   C16       1.0  0.46292  0.28183  0.11073  1.0000
  C   C17       1.0  0.46114  0.25715  0.12547  1.0000
  H   H24       1.0  0.44995  0.22212  0.16038  1.0000
  H   H25       1.0  0.46325  0.18894  0.10404  1.0000
  H   H26       1.0  0.45661  0.44451  0.14841  1.0000
  H   H27       1.0  0.46201  0.36938  0.15135  1.0000
  H   H28       1.0  0.47926  0.16136  0.03875  1.0000
  Fe  Fe1       1.0  0.18275  0.20358  0.42985  1.0000
  S   S3        1.0  0.21715  0.20129  0.40959  1.0000
  S   S4        1.0  0.17143  0.18538  0.46163  1.0000
  Fe  Fe2       1.0  0.16181  0.22760  0.39789  1.0000
  S   S5        1.0  0.19415  0.22699  0.37431  1.0000
  S   S6        1.0  0.13025  0.24670  0.39615  1.0000
  Fe  Fe3       1.0  0.18872  0.18663  0.39129  1.0000
  S   S7        1.0  0.19802  0.15390  0.37872  1.0000
  Fe  Fe4       1.0  0.22092  0.24167  0.39384  1.0000
  S   S8        1.0  0.26279  0.26672  0.38008  1.0000
  S   S9        1.0  0.15375  0.18567  0.41283  1.0000
  S   S10       1.0  0.18921  0.24560  0.41626  1.0000
  S   S11       1.0  0.11678  0.04010  0.38980  1.0000
  H   H29       1.0  0.45332  0.00637  0.26352  1.0000
  H   H30       1.0  0.17847  0.08312  0.31062  1.0000
  C   C18       1.0  0.30813  0.35024  0.31054  1.0000
  S   S12       1.0  0.02195  0.18931  0.37570  1.0000
  H   H31       1.0  0.43489  0.42271  0.25480  1.0000
  H   H32       1.0  0.31108  0.38211  0.33459  1.0000
  H   H33       1.0  0.23629  0.29268  0.44184  1.0000
  H   H34       1.0  0.09007  0.40690  0.31914  1.0000
  H   H35       1.0  0.27481  0.33563  0.28720  1.0000
  H   H36       1.0  0.27353  0.41047  0.32073  1.0000
  H   H37       1.0  0.26116  0.38027  0.30341  1.0000
  H   H38       1.0  0.10149  0.17058  0.44007  1.0000
  Fe  Fe5       1.0  0.39416  0.46579  0.33908  1.0000
  Fe  Fe6       1.0  0.35369  0.41112  0.35197  1.0000
  S   S13       1.0  0.36790  0.39783  0.32528  1.0000
  S   S14       1.0  0.31698  0.38821  0.37474  1.0000
  Fe  Fe7       1.0  0.36940  0.43753  0.30969  1.0000
  S   S15       1.0  0.35704  0.44242  0.28130  1.0000
  S   S16       1.0  0.35259  0.44968  0.33594  1.0000
  H   H39       1.0  0.98860  0.33541  0.43139  1.0000
  S   S17       1.0  0.17807  0.01254  0.45222  1.0000
  S   S18       1.0  0.41073  0.45733  0.31114  1.0000
  C   C19       1.0  0.11202  0.20649  0.44971  1.0000
  C   C20       1.0  0.40961  0.03253  0.25933  1.0000
  H   H40       1.0  0.35024  0.32018  0.43125  1.0000
  C   C21       1.0  0.44730  0.41875  0.26448  1.0000
  H   H41       1.0  0.31684  0.29343  0.47405  1.0000
  H   H42       1.0  0.24364  0.34071  0.29437  1.0000
  H   H43       1.0  0.01781  0.29414  0.43260  1.0000
  C   C22       1.0  0.33008  0.36552  0.29269  1.0000
  H   H44       1.0  0.26859  0.00696  0.44123  1.0000
  H   H45       1.0  0.03267  0.38906  0.32380  1.0000
  C   C23       1.0  0.19126  0.12944  0.44159  1.0000
  H   H46       1.0  0.29963  0.33055  0.30742  1.0000
  H   H47       1.0  0.14471  0.26248  0.46358  1.0000
  C   C24       1.0  0.45998  0.00768  0.27722  1.0000
  C   C25       1.0  0.47250  0.41851  0.25697  1.0000
  H   H48       1.0  0.07925  0.45357  0.31500  1.0000
  H   H49       1.0  0.12635  0.01130  0.35765  1.0000
  C   C26       1.0  0.27689  0.37185  0.29883  1.0000
  H   H50       1.0  0.01366  0.39235  0.28523  1.0000
  C   C27       1.0  0.16825  0.01985  0.34776  1.0000
  H   H51       1.0  0.24805  0.35139  0.33317  1.0000
  H   H52       1.0  0.01164  0.28158  0.41169  1.0000
  H   H53       1.0  0.13177  0.21498  0.44011  1.0000
  H   H54       1.0  0.26281  0.30563  0.45301  1.0000
  C   C28       1.0  0.47762  0.09503  0.26567  1.0000
  C   C29       1.0  0.13974  0.09534  0.44331  1.0000
  H   H55       1.0  0.27157  0.34607  0.34634  1.0000
  S   S19       1.0  0.44330  0.40529  0.32223  1.0000
  C   C30       1.0  0.24789  0.99419  0.44559  1.0000
  C   C31       1.0  0.26577  0.34498  0.33221  1.0000
  S   S20       1.0  0.37393  0.01557  0.32195  1.0000
  C   C32       1.0  0.14023  0.01315  0.34400  1.0000
  C   C33       1.0  0.19088  0.20212  0.47597  1.0000
  H   H56       1.0  0.20948  0.03957  0.36524  1.0000
  C   C34       1.0  0.21714  0.14670  0.44542  1.0000
  H   H57       1.0  0.26760  0.38944  0.34444  1.0000
  H   H58       1.0  0.02981  0.18703  0.44321  1.0000
  H   H59       1.0  0.40630  0.08219  0.30317  1.0000
  H   H60       1.0  0.98980  0.44900  0.27176  1.0000
  C   C35       1.0  0.06576  0.46984  0.27796  1.0000
  H   H61       1.0  0.04030  0.43303  0.27550  1.0000
  C   C36       1.0  0.05313  0.15099  0.44487  1.0000
  C   C37       1.0  0.27634  0.30097  0.37747  1.0000
  C   C38       1.0  0.30212  0.31332  0.36692  1.0000
  C   C39       1.0  0.31458  0.34022  0.36565  1.0000
  C   C40       1.0  0.30139  0.35487  0.37513  1.0000
  C   C41       1.0  0.27547  0.34263  0.38551  1.0000
  C   C42       1.0  0.26283  0.31575  0.38651  1.0000
  H   H62       1.0  0.31268  0.30192  0.35995  1.0000
  H   H63       1.0  0.33463  0.34945  0.35778  1.0000
  H   H64       1.0  0.26520  0.35397  0.39283  1.0000
  H   H65       1.0  0.24294  0.30636  0.39465  1.0000
  C   C43       1.0  0.17480  0.12262  0.38225  1.0000
  C   C44       1.0  0.14796  0.11818  0.38829  1.0000
  C   C45       1.0  0.13014  0.09278  0.39052  1.0000
  C   C46       1.0  0.13919  0.07171  0.38733  1.0000
  C   C47       1.0  0.16608  0.07622  0.38170  1.0000
  C   C48       1.0  0.18376  0.10163  0.37884  1.0000
  H   H66       1.0  0.14093  0.13437  0.39078  1.0000
  H   H67       1.0  0.10933  0.08944  0.39474  1.0000
  H   H68       1.0  0.17328  0.06030  0.37914  1.0000
  H   H69       1.0  0.20450  0.10503  0.37411  1.0000
  C   C49       1.0  0.10077  0.23080  0.38965  1.0000
  C   C50       1.0  0.09709  0.20745  0.38281  1.0000
  C   C51       1.0  0.07298  0.19505  0.37824  1.0000
  C   C52       1.0  0.05224  0.20550  0.38102  1.0000
  C   C53       1.0  0.05598  0.22878  0.38794  1.0000
  C   C54       1.0  0.08025  0.24154  0.39199  1.0000
  H   H70       1.0  0.11287  0.19911  0.38084  1.0000
  H   H71       1.0  0.07026  0.17716  0.37273  1.0000
  H   H72       1.0  0.04031  0.23722  0.38983  1.0000
  H   H73       1.0  0.08305  0.25966  0.39718  1.0000
  H   H74       1.0  0.26378  0.31935  0.42814  1.0000
  H   H75       1.0  0.04725  0.23461  0.43423  1.0000
  H   H76       1.0  0.34123  0.38532  0.29428  1.0000
  H   H77       1.0  0.30814  0.32043  0.40688  1.0000
  C   C55       1.0  0.20939  0.22690  0.46823  1.0000
  H   H78       1.0  0.06100  0.13680  0.45293  1.0000
  H   H79       1.0  0.31599  0.40215  0.31144  1.0000
  H   H80       1.0  0.45127  0.05067  0.24860  1.0000
  H   H81       1.0  0.21221  0.23564  0.45313  1.0000
  C   C56       1.0  0.21112  0.10305  0.42345  1.0000
  C   C57       1.0  0.05758  0.14839  0.42348  1.0000
  H   H82       1.0  0.47048  0.09882  0.25215  1.0000
  H   H83       1.0  0.04568  0.46040  0.33989  1.0000
  H   H84       1.0  0.07846  0.15632  0.41595  1.0000
  H   H85       1.0  0.05071  0.12723  0.42284  1.0000
  H   H86       1.0  0.04589  0.15795  0.41530  1.0000
  N   N3        1.0  0.18973  0.10156  0.44018  1.0000
  H   H87       1.0  0.39643  0.07093  0.32869  1.0000
  H   H88       1.0  0.04236  0.47176  0.31604  1.0000
  C   C58       1.0  0.43647  0.07269  0.31761  1.0000
  H   H89       1.0  0.17829  0.07179  0.33488  1.0000
  N   N4        1.0  0.29928  0.28665  0.43000  1.0000
  C   C59       1.0  0.30799  0.27091  0.41611  1.0000
  C   C60       1.0  0.31325  0.31535  0.42107  1.0000
  C   C61       1.0  0.27004  0.28069  0.43221  1.0000
  C   C62       1.0  0.30608  0.27817  0.44905  1.0000
  C   C63       1.0  0.29268  0.24115  0.42058  1.0000
  S   S21       1.0  0.31460  0.99939  0.36468  1.0000
  H   H90       1.0  0.05599  0.48480  0.27449  1.0000
  C   C64       1.0  0.30227  0.29392  0.46488  1.0000
  H   H91       1.0  0.30672  0.27887  0.40113  1.0000
  H   H92       1.0  0.32893  0.27247  0.41533  1.0000
  H   H93       1.0  0.30686  0.32858  0.42966  1.0000
  C   C65       1.0  0.34337  0.32419  0.41769  1.0000
  H   H94       1.0  0.26427  0.27863  0.41817  1.0000
  H   H95       1.0  0.25944  0.26131  0.44207  1.0000
  H   H96       1.0  0.29409  0.25743  0.45574  1.0000
  H   H97       1.0  0.32653  0.27751  0.44701  1.0000
  H   H98       1.0  0.29375  0.23100  0.43492  1.0000
  H   H99       1.0  0.27192  0.23728  0.41943  1.0000
  H   H100      1.0  0.30147  0.23195  0.40961  1.0000
  H   H101      1.0  0.24182  0.05565  0.35154  1.0000
  H   H102      1.0  0.35206  0.31520  0.40656  1.0000
  C   C66       1.0  0.38472  0.03070  0.25570  1.0000
  S   S22       1.0  0.99083  0.20854  0.45875  1.0000
  C   C67       1.0  0.18586  0.00083  0.32236  1.0000
  H   H103      1.0  0.34812  0.48506  0.29794  1.0000
  H   H104      1.0  0.41143  0.02096  0.27240  1.0000
  H   H105      1.0  0.30578  0.31504  0.45938  1.0000
  H   H106      1.0  0.23360  0.15157  0.43282  1.0000
  C   C68       1.0  0.00402  0.48839  0.27661  1.0000
  C   C69       1.0  0.25672  0.31532  0.33204  1.0000
  H   H107      1.0  0.20926  0.08731  0.31792  1.0000
  C   C70       1.0  0.19433  0.08672  0.45817  1.0000
  H   H108      1.0  0.29191  0.38863  0.28819  1.0000
  H   H109      1.0  0.46631  0.02889  0.27759  1.0000
  N   N5        1.0  0.05223  0.42571  0.30272  1.0000
  H   H110      1.0  0.21785  0.06468  0.42980  1.0000
  H   H111      1.0  0.29481  0.41872  0.33687  1.0000
  H   H112      1.0  0.35110  0.34583  0.41204  1.0000
  H   H113      1.0  0.32242  0.36730  0.27927  1.0000
  C   C71       1.0  0.37640  0.48606  0.25188  1.0000
  C   C72       1.0  0.21626  0.03231  0.33583  1.0000
  C   C73       1.0  0.03120  0.16565  0.48117  1.0000
  H   H114      1.0  0.17814  0.26460  0.45801  1.0000
  H   H115      1.0  0.23238  0.04168  0.32284  1.0000
  C   C74       1.0  0.00616  0.47751  0.24489  1.0000
  C   C75       1.0  0.08451  0.39956  0.30627  1.0000
  H   H116      1.0  0.47084  0.48219  0.30862  1.0000
  H   H117      1.0  0.19195  0.06596  0.45717  1.0000
  H   H118      1.0  0.23083  0.11247  0.42618  1.0000
  C   C76       1.0  0.36424  0.47600  0.27140  1.0000
  H   H119      1.0  0.36319  0.04436  0.23597  1.0000
  C   C77       1.0  0.16368  0.08704  0.43589  1.0000
  H   H120      1.0  0.16773  0.99616  0.31650  1.0000
  C   C78       1.0  0.21174  0.07646  0.41845  1.0000
  C   C79       1.0  0.09381  0.18756  0.43987  1.0000
  H   H121      1.0  0.99854  0.30967  0.45597  1.0000
  H   H122      1.0  0.15563  0.07452  0.47761  1.0000
  H   H123      1.0  0.00212  0.46305  0.23596  1.0000
  H   H124      1.0  0.47091  0.11389  0.32291  1.0000
  C   C80       1.0  0.22375  0.24061  0.48019  1.0000
  C   C81       1.0  0.04047  0.45383  0.32667  1.0000
  H   H125      1.0  0.01164  0.40633  0.31697  1.0000
  H   H126      1.0  0.22611  0.00363  0.38529  1.0000
  H   H127      1.0  0.20969  0.11570  0.41012  1.0000
  H   H128      1.0  0.23752  0.26005  0.47441  1.0000
  C   C82       1.0  0.45420  0.40963  0.29715  1.0000
  H   H129      1.0  0.44512  0.10451  0.28025  1.0000
  H   H130      1.0  0.31750  0.34651  0.32298  1.0000
  H   H131      1.0  0.47289  0.05712  0.33623  1.0000
  C   C83       1.0  0.30074  0.38728  0.32312  1.0000
  H   H132      1.0  0.17065  0.03632  0.35539  1.0000
  H   H133      1.0  0.15838  0.06538  0.44127  1.0000
  N   N6        1.0  0.06469  0.17824  0.44850  1.0000
  N   N7        1.0  0.18991  0.02573  0.33021  1.0000
  H   H134      1.0  0.22221  0.13782  0.45864  1.0000
  C   C84       1.0  0.05881  0.22422  0.44190  1.0000
  S   S23       1.0  0.35614  0.00948  0.27173  1.0000
  C   C85       1.0  0.18923  0.04729  0.31450  1.0000
  H   H135      1.0  0.41759  0.10370  0.31936  1.0000
  H   H136      1.0  0.44047  0.07033  0.28234  1.0000
  H   H137      1.0  0.05584  0.19747  0.42290  1.0000
  H   H138      1.0  0.05952  0.42477  0.33170  1.0000
  H   H139      1.0  0.13401  0.99397  0.33957  1.0000
  H   H140      1.0  0.28244  0.28508  0.47438  1.0000
  H   H141      1.0  0.44356  0.99801  0.28978  1.0000
  H   H142      1.0  0.07045  0.16351  0.47670  1.0000
  H   H143      1.0  0.14148  0.11507  0.43507  1.0000
  H   H144      1.0  0.43971  0.07178  0.33261  1.0000
  H   H145      1.0  0.20656  0.05239  0.30245  1.0000
  H   H146      1.0  0.17243  0.04052  0.30742  1.0000
  C   C86       1.0  0.18444  0.99493  0.47243  1.0000
  H   H147      1.0  0.42954  0.05187  0.31597  1.0000
  H   H148      1.0  0.07775  0.46842  0.26437  1.0000
  H   H149      1.0  0.11448  0.19563  0.46335  1.0000
  H   H150      1.0  0.00936  0.31338  0.41295  1.0000
  C   C87       1.0  0.04479  0.44302  0.28759  1.0000
  S   S24       1.0  0.99604  0.47918  0.30186  1.0000
  C   C88       1.0  0.22086  0.05021  0.35059  1.0000
  H   H151      1.0  0.01936  0.17741  0.47561  1.0000
  C   C89       1.0  0.18901  0.07367  0.32004  1.0000
  H   H152      1.0  0.16483  0.08950  0.42005  1.0000
  C   C90       1.0  0.00540  0.29343  0.42171  1.0000
  C   C91       1.0  0.06000  0.17631  0.47009  1.0000
  S   S25       1.0  0.39415  0.42835  0.35739  1.0000
  C   C92       1.0  0.02917  0.40115  0.31109  1.0000
  H   H153      1.0  0.13790  0.02890  0.33331  1.0000
  C   C93       1.0  0.41317  0.08337  0.31689  1.0000
  Fe  Fe8       1.0  0.40820  0.41880  0.32893  1.0000
  H   H154      1.0  0.03651  0.37527  0.29114  1.0000
  H   H155      1.0  0.44486  0.47357  0.34920  1.0000
  H   H156      1.0  0.27182  0.30620  0.33523  1.0000
  C   C94       1.0  0.16001  0.25614  0.46949  1.0000
  C   C95       1.0  0.05144  0.19582  0.43878  1.0000
  H   H157      1.0  0.21488  0.09500  0.45974  1.0000
  H   H158      1.0  0.41885  0.41501  0.29014  1.0000
  H   H159      1.0  0.34438  0.35462  0.29070  1.0000
  H   H160      1.0  0.07907  0.47769  0.28733  1.0000
  H   H161      1.0  0.21487  0.16574  0.44782  1.0000
  C   C96       1.0  0.43825  0.41455  0.28451  1.0000
  H   H162      1.0  0.01974  0.44112  0.33065  1.0000
  C   C97       1.0  0.28271  0.40195  0.33169  1.0000
  C   C98       1.0  0.26479  0.35060  0.28790  1.0000
  H   H163      1.0  0.18796  0.13986  0.42800  1.0000
  C   C99       1.0  0.17626  0.08546  0.47731  1.0000
  C   C100      1.0  0.45486  0.08931  0.28313  1.0000
  H   H164      1.0  0.10539  0.22321  0.45262  1.0000
  C   C101      1.0  0.26527  0.00269  0.37526  1.0000
  S   S26       1.0  0.43927  0.00457  0.33039  1.0000
  H   H165      1.0  0.27450  0.01872  0.38176  1.0000
  S   S27       1.0  0.17284  0.01214  0.40103  1.0000
  H   H166      1.0  0.21640  0.06868  0.34672  1.0000
  H   H167      1.0  0.05385  0.22512  0.45733  1.0000
  N   N8        1.0  0.28759  0.36308  0.31590  1.0000
  H   H168      1.0  0.09785  0.19711  0.42435  1.0000
  H   H169      1.0  0.17556  0.13001  0.45326  1.0000
  H   H170      1.0  0.07967  0.23521  0.43547  1.0000
  Fe  Fe9       1.0  0.13068  0.00647  0.40086  1.0000
  H   H171      1.0  0.25121  0.31108  0.31840  1.0000
  H   H172      1.0  0.23916  0.30520  0.34383  1.0000
  H   H173      1.0  0.26690  0.36003  0.27259  1.0000
  H   H174      1.0  0.03151  0.14358  0.45019  1.0000
  H   H175      1.0  0.38160  0.47316  0.24297  1.0000
  C   C102      1.0  0.05910  0.43923  0.31903  1.0000
  H   H176      1.0  0.02204  0.14457  0.48116  1.0000
  H   H177      1.0  0.07220  0.41161  0.28004  1.0000
  C   C103      1.0  0.02079  0.38283  0.29711  1.0000
  H   H178      1.0  0.09287  0.43747  0.28806  1.0000
  H   H179      1.0  0.02610  0.44631  0.29329  1.0000
  H   H180      1.0  0.13662  0.09538  0.45892  1.0000
  H   H181      1.0  0.45812  0.12638  0.30409  1.0000
  C   C104      1.0  0.07564  0.41928  0.29329  1.0000
  Fe  Fe10      1.0  0.98608  0.19244  0.39444  1.0000
  Fe  Fe11      1.0  0.15802  0.99078  0.43182  1.0000
  H   H182      1.0  0.12188  0.08127  0.44076  1.0000
  H   H183      1.0  0.10215  0.39681  0.29793  1.0000
  H   H184      1.0  0.06822  0.19575  0.47377  1.0000
  H   H185      1.0  0.19278  0.06454  0.41597  1.0000
  S   S28       1.0  0.98446  0.22831  0.40590  1.0000
  H   H186      1.0  0.47175  0.05229  0.30228  1.0000
  H   H187      1.0  0.22646  0.08032  0.40486  1.0000
  N   N9        1.0  0.46144  0.08783  0.30292  1.0000
  C   C105      1.0  0.99905  0.46959  0.26511  1.0000
  C   C106      1.0  0.43211  0.04926  0.24587  1.0000
  C   C107      1.0  0.38238  0.04573  0.23882  1.0000
  C   C108      1.0  0.25796  0.30095  0.43930  1.0000
  H   H188      1.0  0.17804  0.10523  0.48042  1.0000
  C   C109      1.0  0.23790  0.99418  0.37728  1.0000
  H   H189      1.0  0.06938  0.37989  0.31091  1.0000
  H   H190      1.0  0.15542  0.23456  0.47168  1.0000
  C   C110      1.0  0.20812  0.00082  0.30610  1.0000
  H   H191      1.0  0.23584  0.00757  0.44608  1.0000
  H   H192      1.0  0.00411  0.36538  0.30524  1.0000
  H   H193      1.0  0.21166  0.01653  0.29321  1.0000
  C   C111      1.0  0.47147  0.11490  0.30719  1.0000
  H   H194      1.0  0.99568  0.31534  0.35669  1.0000
  H   H195      1.0  0.21985  0.01399  0.34232  1.0000
  H   H196      1.0  0.22661  0.00232  0.31116  1.0000
  H   H197      1.0  0.16887  0.00317  0.35864  1.0000
  C   C112      1.0  0.28072  0.99026  0.36514  1.0000
  H   H198      1.0  0.17170  0.28837  0.48374  1.0000
  C   C113      1.0  0.47922  0.40878  0.28966  1.0000
  Fe  Fe12      1.0  0.36135  0.99140  0.30047  1.0000
  H   H199      1.0  0.24260  0.98986  0.41692  1.0000
  Fe  Fe13      1.0  0.22935  0.24328  0.58631  1.0000
  S   S29       1.0  0.18824  0.21841  0.60060  1.0000
  S   S30       1.0  0.25396  0.25879  0.60732  1.0000
  Fe  Fe14      1.0  0.21999  0.23448  0.54651  1.0000
  S   S31       1.0  0.17826  0.20868  0.55792  1.0000
  S   S32       1.0  0.23728  0.24784  0.51452  1.0000
  Fe  Fe15      1.0  0.17607  0.23877  0.57588  1.0000
  S   S33       1.0  0.14421  0.25748  0.58046  1.0000
  Fe  Fe16      1.0  0.19437  0.19066  0.58152  1.0000
  S   S34       1.0  0.18166  0.14781  0.59597  1.0000
  S   S35       1.0  0.21681  0.26598  0.56290  1.0000
  S   S36       1.0  0.23650  0.21399  0.56876  1.0000
  S   S37       1.0  0.19559  0.06665  0.54392  1.0000
  C   C114      1.0  0.11419  0.04309  0.60311  1.0000
  H   H200      1.0  0.06735  0.04019  0.59845  1.0000
  S   S38       1.0  0.03920  0.20506  0.55440  1.0000
  H   H201      1.0  0.11562  0.01554  0.62790  1.0000
  S   S39       1.0  0.00212  0.38309  0.66610  1.0000
  H   H202      1.0  0.98960  0.42383  0.58111  1.0000
  C   C115      1.0  0.11930  0.03814  0.54927  1.0000
  C   C116      1.0  0.31971  0.48050  0.70250  1.0000
  C   C117      1.0  0.20171  0.28702  0.63544  1.0000
  H   H203      1.0  0.23486  0.33170  0.64427  1.0000
  H   H204      1.0  0.16184  0.26058  0.64876  1.0000
  S   S40       1.0  0.05158  0.43846  0.68351  1.0000
  C   C118      1.0  0.26615  0.02796  0.59799  1.0000
  Fe  Fe17      1.0  0.33012  0.39959  0.62078  1.0000
  S   S41       1.0  0.32925  0.38025  0.65096  1.0000
  S   S42       1.0  0.31173  0.38078  0.59803  1.0000
  Fe  Fe18      1.0  0.36323  0.45349  0.62499  1.0000
  S   S43       1.0  0.36508  0.43888  0.65557  1.0000
  C   C119      1.0  0.34695  0.29947  0.62305  1.0000
  Fe  Fe19      1.0  0.37168  0.40418  0.64495  1.0000
  S   S44       1.0  0.40286  0.38926  0.65476  1.0000
  Fe  Fe20      1.0  0.32271  0.41642  0.65930  1.0000
  S   S45       1.0  0.29276  0.41079  0.68618  1.0000
  S   S46       1.0  0.37354  0.42055  0.61387  1.0000
  S   S47       1.0  0.31981  0.43402  0.62963  1.0000
  H   H205      1.0  0.19887  0.19567  0.52251  1.0000
  N   N10       1.0  0.19789  0.30726  0.62023  1.0000
  C   C120      1.0  0.19719  0.99486  0.50336  1.0000
  C   C121      1.0  0.44908  0.03489  0.63186  1.0000
  H   H206      1.0  0.41652  0.36142  0.62068  1.0000
  C   C122      1.0  0.00469  0.33655  0.62605  1.0000
  H   H207      1.0  0.09868  0.03429  0.54786  1.0000
  H   H208      1.0  0.46695  0.48101  0.60310  1.0000
  H   H209      1.0  0.42838  0.02977  0.63211  1.0000
  H   H210      1.0  0.22093  0.28399  0.63089  1.0000
  C   C123      1.0  0.18069  0.25973  0.64092  1.0000
  N   N11       1.0  0.36768  0.32183  0.62736  1.0000
  C   C124      1.0  0.42970  0.48787  0.60555  1.0000
  H   H211      1.0  0.39600  0.42615  0.70388  1.0000
  H   H212      1.0  0.16976  0.31341  0.64250  1.0000
  H   H213      1.0  0.20810  0.34536  0.64361  1.0000
  Fe  Fe21      1.0  0.36422  0.05728  0.67877  1.0000
  H   H214      1.0  0.47478  0.12828  0.65938  1.0000
  C   C125      1.0  0.31885  0.45850  0.69415  1.0000
  C   C126      1.0  0.29518  0.43804  0.69703  1.0000
  H   H215      1.0  0.19401  0.02884  0.48544  1.0000
  H   H216      1.0  0.33888  0.31668  0.67578  1.0000
  N   N12       1.0  0.00311  0.46638  0.57826  1.0000
  H   H217      1.0  0.33640  0.45729  0.68555  1.0000
  H   H218      1.0  0.09798  0.26263  0.52968  1.0000
  H   H219      1.0  0.11157  0.11311  0.57803  1.0000
  C   C127      1.0  0.18711  0.19092  0.49557  1.0000
  H   H220      1.0  0.10986  0.07914  0.56087  1.0000
  H   H221      1.0  0.18098  0.28252  0.53801  1.0000
  C   C128      1.0  0.39442  0.32070  0.61907  1.0000
  C   C129      1.0  0.19823  0.31789  0.58383  1.0000
  C   C130      1.0  0.28038  0.03036  0.63380  1.0000
  H   H222      1.0  0.25454  0.42314  0.71139  1.0000
  C   C131      1.0  0.98912  0.45728  0.54657  1.0000
  H   H223      1.0  0.01205  0.34595  0.63723  1.0000
  H   H224      1.0  0.35280  0.02187  0.57683  1.0000
  C   C132      1.0  0.41687  0.38390  0.70885  1.0000
  H   H225      1.0  0.46317  0.05109  0.70310  1.0000
  H   H226      1.0  0.41280  0.45480  0.71146  1.0000
  C   C133      1.0  0.36420  0.34801  0.62016  1.0000
  H   H227      1.0  0.37074  0.30021  0.65462  1.0000
  H   H228      1.0  0.19358  0.30754  0.57196  1.0000
  C   C134      1.0  0.33728  0.31320  0.66105  1.0000
  C   C135      1.0  0.27362  0.46092  0.71725  1.0000
  H   H229      1.0  0.37820  0.33457  0.65322  1.0000
  C   C136      1.0  0.27025  0.29267  0.60445  1.0000
  C   C137      1.0  0.27506  0.31007  0.58680  1.0000
  C   C138      1.0  0.28804  0.33702  0.58504  1.0000
  C   C139      1.0  0.29601  0.34677  0.60093  1.0000
  C   C140      1.0  0.29085  0.32941  0.61868  1.0000
  C   C141      1.0  0.27826  0.30238  0.62036  1.0000
  H   H230      1.0  0.26899  0.30274  0.57446  1.0000
  H   H231      1.0  0.29187  0.35041  0.57130  1.0000
  H   H232      1.0  0.29625  0.33684  0.63113  1.0000
  H   H233      1.0  0.27431  0.28899  0.63410  1.0000
  C   C142      1.0  0.11399  0.24133  0.57510  1.0000
  C   C143      1.0  0.09394  0.25278  0.57666  1.0000
  C   C144      1.0  0.07032  0.24109  0.57121  1.0000
  C   C145      1.0  0.06687  0.21813  0.56389  1.0000
  C   C146      1.0  0.08674  0.20646  0.56265  1.0000
  C   C147      1.0  0.11011  0.21787  0.56844  1.0000
  H   H234      1.0  0.09675  0.27087  0.58190  1.0000
  H   H235      1.0  0.05508  0.25023  0.57218  1.0000
  H   H236      1.0  0.08406  0.18860  0.55711  1.0000
  H   H237      1.0  0.12520  0.20864  0.56753  1.0000
  C   C148      1.0  0.18580  0.12577  0.58119  1.0000
  C   C149      1.0  0.19320  0.13382  0.56109  1.0000
  C   C150      1.0  0.19638  0.11557  0.54970  1.0000
  C   C151      1.0  0.19264  0.08944  0.55841  1.0000
  C   C152      1.0  0.18586  0.08167  0.57853  1.0000
  C   C153      1.0  0.18196  0.09966  0.58987  1.0000
  H   H238      1.0  0.19626  0.15402  0.55432  1.0000
  H   H239      1.0  0.20173  0.12172  0.53412  1.0000
  H   H240      1.0  0.18342  0.06180  0.58538  1.0000
  H   H241      1.0  0.17634  0.09344  0.60545  1.0000
  H   H242      1.0  0.98888  0.35085  0.58257  1.0000
  H   H243      1.0  0.45186  0.11197  0.69384  1.0000
  C   C154      1.0  0.39174  0.37632  0.72053  1.0000
  S   S48       1.0  0.16111  0.99206  0.54978  1.0000
  H   H244      1.0  0.34909  0.28023  0.62921  1.0000
  H   H245      1.0  0.11412  0.21480  0.49266  1.0000
  H   H246      1.0  0.24532  0.99724  0.64533  1.0000
  C   C155      1.0  0.43410  0.10525  0.70475  1.0000
  H   H247      1.0  0.03750  0.44313  0.59624  1.0000
  C   C156      1.0  0.99831  0.41527  0.73138  1.0000
  H   H248      1.0  0.18718  0.24640  0.65096  1.0000
  S   S49       1.0  0.32649  0.07059  0.61813  1.0000
  S   S50       1.0  0.46517  0.12379  0.72927  1.0000
  H   H249      1.0  0.35633  0.37313  0.68521  1.0000
  S   S51       1.0  0.99872  0.25578  0.56229  1.0000
  C   C157      1.0  0.37418  0.47745  0.73249  1.0000
  C   C158      1.0  0.10757  0.01483  0.61461  1.0000
  C   C159      1.0  0.17881  0.27345  0.52521  1.0000
  H   H250      1.0  0.18084  0.25369  0.52886  1.0000
  C   C160      1.0  0.99219  0.22698  0.49170  1.0000
  H   H251      1.0  0.11643  0.01204  0.57581  1.0000
  C   C161      1.0  0.41041  0.09267  0.69989  1.0000
  H   H252      1.0  0.11318  0.25382  0.48861  1.0000
  H   H253      1.0  0.13554  0.05285  0.60167  1.0000
  C   C162      1.0  0.42365  0.45586  0.68049  1.0000
  H   H254      1.0  0.13804  0.08327  0.57087  1.0000
  H   H255      1.0  0.37964  0.34821  0.58891  1.0000
  H   H256      1.0  0.03051  0.16712  0.49654  1.0000
  C   C163      1.0  0.37637  0.36138  0.59866  1.0000
  C   C164      1.0  0.29692  0.48181  0.71385  1.0000
  C   C165      1.0  0.36483  0.31751  0.64907  1.0000
  H   H257      1.0  0.08613  0.00513  0.61947  1.0000
  S   S52       1.0  0.98030  0.43024  0.67964  1.0000
  C   C166      1.0  0.99184  0.33929  0.59519  1.0000
  C   C167      1.0  0.12193  0.03356  0.57055  1.0000
  C   C168      1.0  0.19216  0.00821  0.48686  1.0000
  H   H258      1.0  0.08564  0.08565  0.59315  1.0000
  C   C169      1.0  0.98609  0.31190  0.59701  1.0000
  H   H259      1.0  0.01138  0.22465  0.49046  1.0000
  H   H260      1.0  0.41022  0.08954  0.68536  1.0000
  C   C170      1.0  0.25745  0.01126  0.63247  1.0000
  H   H261      1.0  0.17461  0.33346  0.61934  1.0000
  H   H262      1.0  0.18300  0.26142  0.49087  1.0000
  C   C171      1.0  0.04664  0.46238  0.58605  1.0000
  H   H263      1.0  0.31682  0.40646  0.72451  1.0000
  N   N13       1.0  0.14356  0.25660  0.50556  1.0000
  C   C172      1.0  0.15190  0.27234  0.52052  1.0000
  N   N14       1.0  0.43615  0.48511  0.67285  1.0000
  H   H264      1.0  0.99322  0.43430  0.60294  1.0000
  C   C173      1.0  0.13887  0.22795  0.51394  1.0000
  C   C174      1.0  0.12292  0.20713  0.50410  1.0000
  C   C175      1.0  0.09512  0.25233  0.51757  1.0000
  H   H265      1.0  0.20226  0.29382  0.64929  1.0000
  H   H266      1.0  0.41887  0.46751  0.60641  1.0000
  H   H267      1.0  0.10660  0.19232  0.51511  1.0000
  H   H268      1.0  0.13752  0.26445  0.53456  1.0000
  H   H269      1.0  0.34311  0.34624  0.62269  1.0000
  C   C176      1.0  0.38704  0.08460  0.71372  1.0000
  C   C177      1.0  0.22600  0.34352  0.63503  1.0000
  H   H270      1.0  0.15780  0.22416  0.51426  1.0000
  H   H271      1.0  0.12879  0.22284  0.52941  1.0000
  H   H272      1.0  0.20309  0.00528  0.51448  1.0000
  H   H273      1.0  0.24062  0.36356  0.63030  1.0000
  H   H274      1.0  0.46264  0.07517  0.68380  1.0000
  H   H275      1.0  0.99479  0.40704  0.71838  1.0000
  H   H276      1.0  0.07824  0.25632  0.51231  1.0000
  C   C178      1.0  0.06586  0.00577  0.58618  1.0000
  H   H277      1.0  0.21852  0.34829  0.60655  1.0000
  C   C179      1.0  0.16545  0.26647  0.48783  1.0000
  S   S53       1.0  0.44854  0.08523  0.63039  1.0000
  C   C180      1.0  0.46399  0.06105  0.63029  1.0000
  H   H278      1.0  0.39592  0.30089  0.62443  1.0000
  C   C181      1.0  0.00057  0.35154  0.60992  1.0000
  C   C182      1.0  0.10703  0.09320  0.58716  1.0000
  H   H279      1.0  0.12716  0.02466  0.54180  1.0000
  N   N15       1.0  0.25630  0.11192  0.60077  1.0000
  C   C183      1.0  0.25586  0.11707  0.57949  1.0000
  C   C184      1.0  0.24348  0.12970  0.60987  1.0000
  C   C185      1.0  0.24008  0.08363  0.60933  1.0000
  C   C186      1.0  0.28440  0.11697  0.60277  1.0000
  C   C187      1.0  0.26394  0.09796  0.56777  1.0000
  C   C188      1.0  0.25575  0.15933  0.60087  1.0000
  C   C189      1.0  0.23731  0.07397  0.63111  1.0000
  C   C190      1.0  0.29107  0.12382  0.62199  1.0000
  H   H280      1.0  0.23608  0.11686  0.57735  1.0000
  H   H281      1.0  0.26910  0.13712  0.57207  1.0000
  H   H282      1.0  0.24306  0.12744  0.62553  1.0000
  H   H283      1.0  0.22244  0.12420  0.60902  1.0000
  H   H284      1.0  0.21997  0.07972  0.60648  1.0000
  H   H285      1.0  0.24840  0.07002  0.60243  1.0000
  H   H286      1.0  0.29090  0.09981  0.60047  1.0000
  H   H287      1.0  0.29759  0.13381  0.59124  1.0000
  H   H288      1.0  0.28259  0.09515  0.57027  1.0000
  H   H289      1.0  0.24825  0.07863  0.57089  1.0000
  H   H290      1.0  0.26672  0.10613  0.55211  1.0000
  H   H291      1.0  0.27731  0.16619  0.59917  1.0000
  H   H292      1.0  0.25053  0.16413  0.58670  1.0000
  H   H293      1.0  0.24755  0.17072  0.61038  1.0000
  H   H294      1.0  0.25627  0.07330  0.63452  1.0000
  H   H295      1.0  0.22390  0.05334  0.63540  1.0000
  H   H296      1.0  0.22862  0.08554  0.64004  1.0000
  H   H297      1.0  0.30660  0.11546  0.62542  1.0000
  H   H298      1.0  0.27479  0.11606  0.63476  1.0000
  H   H299      1.0  0.29984  0.14542  0.62034  1.0000
  H   H300      1.0  0.36305  0.37119  0.59285  1.0000
  C   C191      1.0  0.28925  0.04691  0.59929  1.0000
  H   H301      1.0  0.14246  0.30386  0.60966  1.0000
  C   C192      1.0  0.29665  0.04782  0.61713  1.0000
  C   C193      1.0  0.00310  0.48516  0.59175  1.0000
  S   S54       1.0  0.22159  0.00740  0.55715  1.0000
  H   H302      1.0  0.26097  0.02680  0.58411  1.0000
  S   S55       1.0  0.37844  0.03811  0.62929  1.0000
  C   C194      1.0  0.19897  0.29796  0.60140  1.0000
  H   H303      1.0  0.44951  0.99526  0.63352  1.0000
  H   H304      1.0  0.40814  0.01184  0.72372  1.0000
  C   C195      1.0  0.39837  0.38346  0.68008  1.0000
  S   S56       1.0  0.01916  0.44154  0.63708  1.0000
  H   H305      1.0  0.41910  0.33612  0.63904  1.0000
  C   C196      1.0  0.37324  0.37594  0.69173  1.0000
  C   C197      1.0  0.17291  0.31326  0.62678  1.0000
  Fe  Fe22      1.0  0.18880  0.02487  0.55915  1.0000
  H   H306      1.0  0.28580  0.03119  0.64764  1.0000
  C   C198      1.0  0.46099  0.01524  0.63293  1.0000
  H   H307      1.0  0.43625  0.34133  0.61471  1.0000
  C   C199      1.0  0.14736  0.29495  0.62302  1.0000
  H   H308      1.0  0.23925  0.32905  0.61035  1.0000
  C   C200      1.0  0.22084  0.33215  0.61701  1.0000
  C   C201      1.0  0.40359  0.44781  0.69976  1.0000
  S   S57       1.0  0.37803  0.08742  0.65101  1.0000
  Fe  Fe23      1.0  0.40572  0.06526  0.64318  1.0000
  H   H309      1.0  0.06298  0.00212  0.57171  1.0000
  H   H310      1.0  0.21713  0.29263  0.59767  1.0000
  H   H311      1.0  0.43865  0.44615  0.68289  1.0000
  H   H312      1.0  0.39648  0.48362  0.67051  1.0000
  H   H313      1.0  0.43382  0.38743  0.71532  1.0000
  H   H314      1.0  0.33991  0.48319  0.65466  1.0000
  Fe  Fe24      1.0  0.00317  0.21546  0.56562  1.0000
  C   C202      1.0  0.43483  0.10892  0.72360  1.0000
  S   S58       1.0  0.17252  0.00787  0.59078  1.0000
  H   H315      1.0  0.25602  0.46179  0.72611  1.0000
  S   S59       1.0  0.33296  0.02931  0.66809  1.0000
  H   H316      1.0  0.46406  0.45352  0.65345  1.0000
  H   H317      1.0  0.33936  0.31654  0.59553  1.0000
  H   H318      1.0  0.11788  0.09604  0.59898  1.0000
  H   H319      1.0  0.04593  0.99846  0.59557  1.0000
  Fe  Fe25      1.0  0.34932  0.05779  0.63951  1.0000
  Fe  Fe26      1.0  0.01886  0.42548  0.66795  1.0000
  H   H320      1.0  0.41363  0.44631  0.66980  1.0000
  H   H321      1.0  0.30184  0.06038  0.58636  1.0000
  H   H322      1.0  0.33054  0.28175  0.60074  1.0000
  H   H323      1.0  0.07203  0.04566  0.57287  1.0000
  H   H324      1.0  0.34628  0.00690  0.72239  1.0000
  H   H325      1.0  0.13078  0.29316  0.63489  1.0000
  C   C203      1.0  0.03037  0.46593  0.57071  1.0000
  H   H326      1.0  0.35043  0.36590  0.72086  1.0000
  H   H327      1.0  0.46657  0.48365  0.68882  1.0000
  C   C204      1.0  0.42013  0.38700  0.68869  1.0000
  H   H328      1.0  0.14708  0.27468  0.62231  1.0000
  H   H329      1.0  0.39811  0.32295  0.60318  1.0000
  C   C205      1.0  0.11629  0.07539  0.57473  1.0000
  C   C206      1.0  0.20159  0.20460  0.50748  1.0000
  Fe  Fe27      1.0  0.36450  0.01196  0.65883  1.0000
  C   C207      1.0  0.07778  0.03562  0.58542  1.0000
  H   H330      1.0  0.08930  0.23080  0.52299  1.0000
  H   H331      1.0  0.15245  0.29314  0.51609  1.0000
  H   H332      1.0  0.32703  0.29881  0.63003  1.0000
  C   C208      1.0  0.36991  0.37185  0.71194  1.0000
  H   H333      1.0  0.36438  0.30028  0.59274  1.0000
  H   H334      1.0  0.10407  0.05288  0.61288  1.0000
  H   H335      1.0  0.17294  0.17164  0.50159  1.0000
  H   H336      1.0  0.37303  0.36255  0.62861  1.0000
  H   H337      1.0  0.13548  0.19638  0.49768  1.0000
  H   H338      1.0  0.32767  0.32675  0.65464  1.0000
  H   H339      1.0  0.32450  0.29259  0.66279  1.0000
  H   H340      1.0  0.18303  0.32734  0.58715  1.0000
  C   C209      1.0  0.25038  0.00987  0.61458  1.0000
  S   S60       1.0  0.39428  0.03740  0.67191  1.0000
  H   H341      1.0  0.39494  0.37748  0.59733  1.0000
  N   N16       1.0  0.10707  0.04625  0.58356  1.0000
  H   H342      1.0  0.18300  0.27956  0.60234  1.0000
  H   H343      1.0  0.38635  0.45439  0.69873  1.0000
  H   H344      1.0  0.17783  0.25045  0.62837  1.0000
  S   S61       1.0  0.98201  0.20203  0.59662  1.0000
  H   H345      1.0  0.12359  0.28377  0.49590  1.0000
  H   H346      1.0  0.00844  0.45736  0.53885  1.0000
  H   H347      1.0  0.21763  0.33322  0.57821  1.0000
  H   H348      1.0  0.19520  0.28593  0.51321  1.0000
  S   S62       1.0  0.35744  0.06733  0.70814  1.0000
  C   C210      1.0  0.34577  0.29997  0.60168  1.0000
  C   C211      1.0  0.47265  0.47526  0.65050  1.0000
  C   C212      1.0  0.41766  0.34118  0.62373  1.0000
  H   H349      1.0  0.01083  0.45708  0.72308  1.0000
  H   H350      1.0  0.43960  0.39286  0.67975  1.0000
  H   H351      1.0  0.38007  0.03317  0.73289  1.0000
  S   S63       1.0  0.00547  0.38544  0.60817  1.0000
  C   C213      1.0  0.98924  0.29677  0.61354  1.0000
  H   H352      1.0  0.01952  0.41893  0.73098  1.0000
  H   H353      1.0  0.04197  0.48393  0.55963  1.0000
  C   C214      1.0  0.27278  0.43906  0.70894  1.0000
  C   C215      1.0  0.21975  0.22961  0.49984  1.0000
  H   H354      1.0  0.07674  0.99321  0.59206  1.0000
  H   H355      1.0  0.31832  0.01224  0.58642  1.0000
  C   C216      1.0  0.99195  0.44146  0.72964  1.0000
  H   H356      1.0  0.00191  0.29768  0.64049  1.0000
  C   C217      1.0  0.38750  0.08946  0.73236  1.0000
  Fe  Fe28      1.0  0.99877  0.39943  0.63616  1.0000
  H   H357      1.0  0.14320  0.04090  0.57050  1.0000
  H   H358      1.0  0.02961  0.44946  0.56299  1.0000
  H   H359      1.0  0.35085  0.41863  0.72419  1.0000
  H   H360      1.0  0.13121  0.05842  0.54146  1.0000
  H   H361      1.0  0.05001  0.47856  0.59409  1.0000
  C   C218      1.0  0.05120  0.46746  0.69136  1.0000
  H   H362      1.0  0.07466  0.46325  0.71248  1.0000
  H   H363      1.0  0.00806  0.47811  0.60564  1.0000
  H   H364      1.0  0.11660  0.00265  0.60662  1.0000
  H   H365      1.0  0.34160  0.02673  0.60023  1.0000
  H   H366      1.0  0.99372  0.24143  0.51801  1.0000
  C   C219      1.0  0.33739  0.01304  0.59023  1.0000
  H   H367      1.0  0.02765  0.47702  0.67179  1.0000
  C   C220      1.0  0.99898  0.30925  0.62787  1.0000
  C   C221      1.0  0.11941  0.26220  0.50087  1.0000
  C   C222      1.0  0.47581  0.06579  0.69013  1.0000
  C   C223      1.0  0.98217  0.23637  0.50734  1.0000
  C   C224      1.0  0.03697  0.48245  0.68346  1.0000
  C   C225      1.0  0.98676  0.43908  0.58926  1.0000
  H   H368      1.0  0.31039  0.00211  0.62575  1.0000
  C   C226      1.0  0.06363  0.47487  0.70633  1.0000
  H   H369      1.0  0.06620  0.46245  0.57876  1.0000
  H   H370      1.0  0.36215  0.47291  0.72162  1.0000
  H   H371      1.0  0.18205  0.07445  0.48935  1.0000
  H   H372      1.0  0.43759  0.48112  0.64331  1.0000
  C   C227      1.0  0.99205  0.47521  0.56143  1.0000
  H   H373      1.0  0.42656  0.99271  0.73357  1.0000
  H   H374      1.0  0.98126  0.32075  0.67861  1.0000
  H   H375      1.0  0.98298  0.48602  0.59633  1.0000
  H   H376      1.0  0.39490  0.48611  0.72464  1.0000
  H   H377      1.0  0.33320  0.98945  0.63505  1.0000
  C   C228      1.0  0.45132  0.48879  0.65259  1.0000
  C   C229      1.0  0.33130  0.41015  0.73392  1.0000
  C   C230      1.0  0.34602  0.99885  0.73767  1.0000
  H   H378      1.0  0.37407  0.03899  0.79339  1.0000
  C   C231      1.0  0.38243  0.04978  0.77822  1.0000
  H   H379      1.0  0.47426  0.12781  0.98300  1.0000
  H   H380      1.0  0.38515  0.45992  0.75701  1.0000
  H   H381      1.0  0.32734  0.48305  0.74908  1.0000
  H   H382      1.0  0.98682  0.41798  0.76856  1.0000
  H   H383      1.0  0.35359  0.40162  0.76372  1.0000
  H   H384      1.0  0.40966  0.02834  0.77415  1.0000
  H   H385      1.0  0.39756  0.06815  0.77896  1.0000
  H   H386      1.0  0.32300  0.44560  0.73686  1.0000
  H   H387      1.0  0.47054  0.35350  0.84394  1.0000
  H   H388      1.0  0.46619  0.38371  0.86416  1.0000
  H   H389      1.0  0.32192  0.44258  0.78592  1.0000
  H   H390      1.0  0.35374  0.03249  0.75036  1.0000
  H   H391      1.0  0.36704  0.05540  0.77198  1.0000
  H   H392      1.0  0.43690  0.46926  0.82988  1.0000
  C   C232      1.0  0.33475  0.45498  0.77200  1.0000
  H   H393      1.0  0.36029  0.40035  0.79706  1.0000
  H   H394      1.0  0.43055  0.02449  0.73889  1.0000
  H   H395      1.0  0.44767  0.27203  0.89739  1.0000
  N   N17       1.0  0.46647  0.31863  0.86521  1.0000
  H   H396      1.0  0.41193  0.26686  0.87947  1.0000
  H   H397      1.0  0.41177  0.10503  0.75176  1.0000
  Fe  Fe29      1.0  0.44230  0.44270  0.77350  1.0000
  H   H398      1.0  0.38398  0.42738  0.78031  1.0000
  Fe  Fe30      1.0  0.47708  0.43809  0.73765  1.0000
  Fe  Fe31      1.0  0.45246  0.06686  0.79551  1.0000
  S   S64       1.0  0.41938  0.03086  0.81163  1.0000
  H   H399      1.0  0.43807  0.35513  0.87268  1.0000
  S   S65       1.0  0.44873  0.10719  0.78789  1.0000
  H   H400      1.0  0.46980  0.02430  0.80137  1.0000
  C   C233      1.0  0.36290  0.41935  0.78733  1.0000
  H   H401      1.0  0.35782  0.43259  0.79653  1.0000
  C   C234      1.0  0.46839  0.28456  0.89438  1.0000
  H   H402      1.0  0.35150  0.46880  0.77615  1.0000
  H   H403      1.0  0.00671  0.48761  0.74106  1.0000
  H   H404      1.0  0.40799  0.04817  0.75271  1.0000
  C   C235      1.0  0.98526  0.47718  0.74501  1.0000
  C   C236      1.0  0.35690  0.99499  0.77923  1.0000
  H   H405      1.0  0.47962  0.42433  0.80807  1.0000
  C   C237      1.0  0.41593  0.00678  0.73668  1.0000
  C   C238      1.0  0.99015  0.43941  0.76521  1.0000
  C   C239      1.0  0.39559  0.03397  0.76607  1.0000
  C   C240      1.0  0.31837  0.47141  0.76389  1.0000
  H   H406      1.0  0.32558  0.40148  0.78028  1.0000
  C   C241      1.0  0.43776  0.30671  0.86553  1.0000
  Fe  Fe32      1.0  0.47116  0.10800  0.75859  1.0000
  H   H407      1.0  0.30515  0.41858  0.75594  1.0000
  C   C242      1.0  0.37144  0.45289  0.74755  1.0000
  C   C243      1.0  0.34560  0.41410  0.77230  1.0000
  C   C244      1.0  0.42745  0.27674  0.86625  1.0000
  H   H408      1.0  0.44229  0.26655  0.86618  1.0000
  N   N18       1.0  0.34427  0.43818  0.75933  1.0000
  H   H409      1.0  0.43568  0.47762  0.85349  1.0000
  H   H410      1.0  0.36933  0.08407  0.74286  1.0000
  C   C245      1.0  0.39379  0.99351  0.75478  1.0000
  H   H411      1.0  0.45676  0.15052  0.96094  1.0000
  Fe  Fe33      1.0  0.42387  0.39684  0.75428  1.0000
  H   H412      1.0  0.39397  0.46062  0.84576  1.0000
  C   C246      1.0  0.44515  0.48445  0.83801  1.0000
  S   S66       1.0  0.42629  0.39930  0.78502  1.0000
  H   H413      1.0  0.02342  0.47338  0.76600  1.0000
  C   C247      1.0  0.45490  0.00606  0.80160  1.0000
  C   C248      1.0  0.47211  0.31331  0.88513  1.0000
  C   C249      1.0  0.47941  0.31236  0.83033  1.0000
  C   C250      1.0  0.32510  0.42890  0.74678  1.0000
  S   S67       1.0  0.42798  0.47072  0.78857  1.0000
  C   C251      1.0  0.45957  0.36252  0.87128  1.0000
  H   H414      1.0  0.45942  0.31990  0.89565  1.0000
  H   H415      1.0  0.42567  0.31056  0.87810  1.0000
  S   S68       1.0  0.43640  0.44028  0.74344  1.0000
  H   H416      1.0  0.36742  0.46035  0.83407  1.0000
  S   S69       1.0  0.46423  0.39406  0.74631  1.0000
  C   C252      1.0  0.42841  0.00382  0.80650  1.0000
  H   H417      1.0  0.46604  0.48609  0.83748  1.0000
  H   H418      1.0  0.98667  0.39967  0.74400  1.0000
  S   S70       1.0  0.38738  0.37425  0.74566  1.0000
  H   H419      1.0  0.46451  0.36182  0.88574  1.0000
  H   H420      1.0  0.29837  0.45864  0.76391  1.0000
  C   C253      1.0  0.38100  0.47201  0.84192  1.0000
  H   H421      1.0  0.36564  0.99596  0.79223  1.0000
  H   H422      1.0  0.34114  0.00420  0.78140  1.0000
  S   S71       1.0  0.47178  0.06649  0.76550  1.0000
  H   H423      1.0  0.41823  0.27306  0.85372  1.0000
  H   H424      1.0  0.03169  0.45309  0.74973  1.0000
  H   H425      1.0  0.31608  0.48549  0.77326  1.0000
  H   H426      1.0  0.47407  0.28422  0.90863  1.0000
  C   C254      1.0  0.01962  0.45295  0.76373  1.0000
  H   H427      1.0  0.45890  0.30227  0.82968  1.0000
  H   H428      1.0  0.32938  0.39063  0.74253  1.0000
  H   H429      1.0  0.37952  0.43952  0.74008  1.0000
  H   H430      1.0  0.45878  0.16935  0.97948  1.0000
  C   C255      1.0  0.41143  0.10123  0.73740  1.0000
  Fe  Fe34      1.0  0.46813  0.40103  0.77594  1.0000
  H   H431      1.0  0.98236  0.44721  0.83043  1.0000
  N   N19       1.0  0.37742  0.01007  0.76122  1.0000
  C   C256      1.0  0.36506  0.01975  0.74544  1.0000
  H   H432      1.0  0.43259  0.31668  0.85262  1.0000
  H   H433      1.0  0.02626  0.44226  0.77539  1.0000
  H   H434      1.0  0.36872  0.47381  0.85524  1.0000
  H   H435      1.0  0.32573  0.99342  0.74623  1.0000
  C   C257      1.0  0.47399  0.34814  0.85868  1.0000
  H   H436      1.0  0.41090  0.99156  0.85406  1.0000
  C   C258      1.0  0.47056  0.16330  0.96806  1.0000
  H   H437      1.0  0.34470  0.70373  0.04498  1.0000
  S   S72       1.0  0.41759  0.92978  0.21108  1.0000
  Fe  Fe35      1.0  0.05809  0.60909  0.17563  1.0000
  S   S73       1.0  0.06282  0.58978  0.20427  1.0000
  S   S74       1.0  0.09304  0.63286  0.15201  1.0000
  Fe  Fe36      1.0  0.02734  0.55721  0.20285  1.0000
  C   C259      1.0  0.45337  0.97962  0.20287  1.0000
  H   H438      1.0  0.29168  0.59328  0.02180  1.0000
  H   H439      1.0  0.11376  0.57476  0.16493  1.0000
  H   H440      1.0  0.47676  0.70518  0.04055  1.0000
  C   C260      1.0  0.98602  0.64333  0.12681  1.0000
  H   H441      1.0  0.17511  0.56369  0.11486  1.0000
  H   H442      1.0  0.29086  0.66894  0.02279  1.0000
  Fe  Fe37      1.0  0.36468  0.78892  0.10422  1.0000
  S   S75       1.0  0.39406  0.79259  0.07751  1.0000
  S   S76       1.0  0.37100  0.82134  0.12095  1.0000
  Fe  Fe38      1.0  0.32698  0.73874  0.09856  1.0000
  S   S77       1.0  0.35331  0.73763  0.07178  1.0000
  S   S78       1.0  0.28760  0.70766  0.10903  1.0000
  Fe  Fe39      1.0  0.38568  0.74924  0.08763  1.0000
  S   S79       1.0  0.42027  0.73429  0.08647  1.0000
  Fe  Fe40      1.0  0.35949  0.78077  0.06380  1.0000
  S   S80       1.0  0.35822  0.80096  0.03439  1.0000
  S   S81       1.0  0.35866  0.74618  0.11561  1.0000
  S   S82       1.0  0.33064  0.78120  0.08952  1.0000
  Fe  Fe41      1.0  0.36872  0.59673  0.01927  1.0000
  S   S83       1.0  0.34733  0.58436  0.05024  1.0000
  S   S84       1.0  0.34765  0.57744  0.99827  1.0000
  Fe  Fe42      1.0  0.40915  0.64348  0.02633  1.0000
  S   S85       1.0  0.39067  0.63546  0.05765  1.0000
  S   S86       1.0  0.44360  0.68018  0.01663  1.0000
  Fe  Fe43      1.0  0.38733  0.59359  0.05710  1.0000
  S   S87       1.0  0.39539  0.56846  0.08209  1.0000
  Fe  Fe44      1.0  0.35280  0.62721  0.04802  1.0000
  S   S88       1.0  0.32314  0.64588  0.05859  1.0000
  S   S89       1.0  0.40860  0.60191  0.02611  1.0000
  S   S90       1.0  0.37150  0.63917  0.01663  1.0000
  Fe  Fe45      1.0  0.19944  0.65537  0.04210  1.0000
  S   S91       1.0  0.21553  0.62497  0.03221  1.0000
  S   S92       1.0  0.22870  0.69544  0.03952  1.0000
  Fe  Fe46      1.0  0.14398  0.61741  0.05351  1.0000
  S   S93       1.0  0.15575  0.58368  0.04472  1.0000
  S   S94       1.0  0.10188  0.60933  0.06798  1.0000
  Fe  Fe47      1.0  0.18922  0.59776  0.05896  1.0000
  S   S95       1.0  0.20639  0.57205  0.07651  1.0000
  Fe  Fe48      1.0  0.18089  0.61374  0.01857  1.0000
  H   H443      1.0  0.22441  0.58422  0.01175  1.0000
  S   S96       1.0  0.17557  0.62889  0.07006  1.0000
  S   S97       1.0  0.16659  0.64676  0.02604  1.0000
  C   C261      1.0  0.29083  0.62477  0.06520  1.0000
  C   C262      1.0  0.27048  0.63562  0.06685  1.0000
  C   C263      1.0  0.24448  0.61920  0.07112  1.0000
  C   C264      1.0  0.23873  0.59190  0.07398  1.0000
  C   C265      1.0  0.25901  0.58093  0.07336  1.0000
  C   C266      1.0  0.28511  0.59741  0.06886  1.0000
  H   H444      1.0  0.27476  0.65674  0.06439  1.0000
  H   H445      1.0  0.22889  0.62779  0.07183  1.0000
  H   H446      1.0  0.25461  0.55980  0.07558  1.0000
  H   H447      1.0  0.30067  0.58888  0.06813  1.0000
  C   C267      1.0  0.24445  0.69906  0.05916  1.0000
  C   C268      1.0  0.23371  0.68207  0.07725  1.0000
  C   C269      1.0  0.24678  0.68501  0.09258  1.0000
  C   C270      1.0  0.27086  0.70477  0.08989  1.0000
  C   C271      1.0  0.28139  0.72210  0.07193  1.0000
  C   C272      1.0  0.26814  0.71936  0.05667  1.0000
  H   H448      1.0  0.21520  0.66686  0.07952  1.0000
  H   H449      1.0  0.23824  0.67192  0.10651  1.0000
  H   H450      1.0  0.29968  0.73778  0.06974  1.0000
  H   H451      1.0  0.27641  0.73291  0.04287  1.0000
  C   C273      1.0  0.43837  0.69840  0.03425  1.0000
  C   C274      1.0  0.45778  0.70769  0.04446  1.0000
  C   C275      1.0  0.45220  0.71899  0.06034  1.0000
  C   C276      1.0  0.42728  0.72125  0.06594  1.0000
  C   C277      1.0  0.40821  0.71271  0.05532  1.0000
  C   C278      1.0  0.41367  0.70119  0.03959  1.0000
  Fe  Fe49      1.0  0.42190  0.89018  0.22056  1.0000
  C   C279      1.0  0.27258  0.67892  0.99984  1.0000
  H   H452      1.0  0.38884  0.71375  0.05968  1.0000
  H   H453      1.0  0.39845  0.69368  0.03195  1.0000
  H   H454      1.0  0.15356  0.63216  0.98815  1.0000
  C   C280      1.0  0.47463  0.76819  0.01142  1.0000
  H   H455      1.0  0.19462  0.63518  0.12000  1.0000
  C   C281      1.0  0.32836  0.69002  0.98596  1.0000
  C   C282      1.0  0.32443  0.73112  0.99653  1.0000
  S   S98       1.0  0.99843  0.57369  0.21798  1.0000
  H   H456      1.0  0.38234  0.76004  0.03391  1.0000
  H   H457      1.0  0.43334  0.68308  0.19180  1.0000
  C   C283      1.0  0.34512  0.91369  0.22458  1.0000
  C   C284      1.0  0.38099  0.81568  0.14294  1.0000
  C   C285      1.0  0.38936  0.78650  0.16858  1.0000
  C   C286      1.0  0.38337  0.79129  0.15031  1.0000
  H   H458      1.0  0.39075  0.76749  0.17442  1.0000
  H   H459      1.0  0.38031  0.77604  0.14207  1.0000
  C   C287      1.0  0.17389  0.63449  0.12368  1.0000
  Fe  Fe50      1.0  0.03363  0.60778  0.21701  1.0000
  N   N20       1.0  0.01155  0.63832  0.12073  1.0000
  H   H460      1.0  0.38354  0.85441  0.14805  1.0000
  C   C288      1.0  0.09871  0.61641  0.09113  1.0000
  C   C289      1.0  0.11695  0.63805  0.09494  1.0000
  C   C290      1.0  0.11462  0.64318  0.11362  1.0000
  C   C291      1.0  0.09418  0.62663  0.12861  1.0000
  C   C292      1.0  0.07568  0.60517  0.12476  1.0000
  C   C293      1.0  0.07786  0.60017  0.10600  1.0000
  H   H461      1.0  0.13279  0.65096  0.08343  1.0000
  H   H462      1.0  0.12884  0.65994  0.11648  1.0000
  H   H463      1.0  0.06005  0.59211  0.13625  1.0000
  H   H464      1.0  0.06378  0.58336  0.10308  1.0000
  H   H465      1.0  0.33691  0.67800  0.02045  1.0000
  S   S99       1.0  0.03207  0.63016  0.18860  1.0000
  H   H466      1.0  0.28691  0.56564  0.00107  1.0000
  H   H467      1.0  0.46355  0.74247  0.14567  1.0000
  C   C294      1.0  0.02751  0.65861  0.10287  1.0000
  H   H468      1.0  0.42185  0.53830  0.11520  1.0000
  H   H469      1.0  0.17358  0.65167  0.13030  1.0000
  H   H470      1.0  0.01759  0.66725  0.15522  1.0000
  C   C295      1.0  0.43902  0.81578  0.02830  1.0000
  H   H471      1.0  0.43991  0.77837  0.05504  1.0000
  C   C296      1.0  0.40314  0.60949  0.13299  1.0000
  C   C297      1.0  0.39246  0.58210  0.13625  1.0000
  C   C298      1.0  0.39022  0.56954  0.12056  1.0000
  C   C299      1.0  0.39916  0.58429  0.10159  1.0000
  C   C300      1.0  0.41089  0.61155  0.09841  1.0000
  C   C301      1.0  0.41237  0.62422  0.11406  1.0000
  H   H472      1.0  0.38523  0.57064  0.15086  1.0000
  H   H473      1.0  0.38100  0.54846  0.12312  1.0000
  H   H474      1.0  0.41916  0.62291  0.08389  1.0000
  H   H475      1.0  0.42104  0.64536  0.11141  1.0000
  H   H476      1.0  0.46618  0.68251  0.18698  1.0000
  H   H477      1.0  0.41966  0.80063  0.03487  1.0000
  H   H478      1.0  0.39516  0.84621  0.18009  1.0000
  H   H479      1.0  0.40459  0.74555  0.00690  1.0000
  C   C302      1.0  0.42748  0.74935  0.14208  1.0000
  H   H480      1.0  0.46711  0.72564  0.06841  1.0000
  C   C303      1.0  0.11507  0.55691  0.15960  1.0000
  H   H481      1.0  0.28443  0.69924  0.02208  1.0000
  N   N21       1.0  0.43393  0.70412  0.15210  1.0000
  C   C304      1.0  0.44738  0.53700  0.07879  1.0000
  H   H482      1.0  0.44844  0.67138  0.15936  1.0000
  H   H483      1.0  0.99383  0.58620  0.14528  1.0000
  H   H484      1.0  0.24096  0.56378  0.02369  1.0000
  N   N22       1.0  0.46066  0.80343  0.02736  1.0000
  H   H485      1.0  0.36446  0.81578  0.99338  1.0000
  C   C305      1.0  0.46765  0.53765  0.09169  1.0000
  H   H486      1.0  0.03730  0.68371  0.13161  1.0000
  H   H487      1.0  0.46577  0.75093  0.00524  1.0000
  H   H488      1.0  0.44838  0.57869  0.09498  1.0000
  H   H489      1.0  0.26894  0.60716  0.01299  1.0000
  H   H490      1.0  0.46057  0.71350  0.18433  1.0000
  H   H491      1.0  0.44743  0.58823  0.12810  1.0000
  C   C306      1.0  0.47084  0.94332  0.20516  1.0000
  H   H492      1.0  0.45417  0.84821  0.00238  1.0000
  H   H493      1.0  0.14231  0.54210  0.14310  1.0000
  C   C307      1.0  0.05643  0.66010  0.09714  1.0000
  H   H494      1.0  0.25240  0.67313  0.00859  1.0000
  C   C308      1.0  0.46889  0.81073  0.06109  1.0000
  C   C309      1.0  0.14262  0.56084  0.14776  1.0000
  C   C310      1.0  0.17820  0.58276  0.11960  1.0000
  C   C311      1.0  0.12660  0.55791  0.10885  1.0000
  S   S100      1.0  0.02324  0.51436  0.21106  1.0000
  H   H495      1.0  0.35834  0.71040  0.01050  1.0000
  C   C312      1.0  0.38335  0.68672  0.15424  1.0000
  H   H496      1.0  0.11527  0.58448  0.12520  1.0000
  Fe  Fe51      1.0  0.41029  0.57603  0.21688  1.0000
  C   C313      1.0  0.02548  0.63976  0.13730  1.0000
  H   H497      1.0  0.02702  0.67866  0.10408  1.0000
  C   C314      1.0  0.43176  0.50668  0.13065  1.0000
  H   H498      1.0  0.15606  0.56287  0.15805  1.0000
  H   H499      1.0  0.45946  0.70746  0.10324  1.0000
  H   H500      1.0  0.16505  0.60823  0.15138  1.0000
  C   C315      1.0  0.44234  0.73310  0.15228  1.0000
  H   H501      1.0  0.14347  0.55704  0.09837  1.0000
  H   H502      1.0  0.38321  0.67199  0.14503  1.0000
  S   S101      1.0  0.44520  0.87262  0.20097  1.0000
  H   H503      1.0  0.35129  0.89635  0.22892  1.0000
  C   C316      1.0  0.39588  0.76094  0.00396  1.0000
  C   C317      1.0  0.46011  0.79134  0.04790  1.0000
  H   H504      1.0  0.13749  0.61194  0.14299  1.0000
  H   H505      1.0  0.34554  0.74277  0.99297  1.0000
  C   C318      1.0  0.45268  0.69237  0.16069  1.0000
  N   N23       1.0  0.29199  0.77390  0.15049  1.0000
  C   C319      1.0  0.28201  0.75366  0.13876  1.0000
  C   C320      1.0  0.31643  0.76984  0.15581  1.0000
  C   C321      1.0  0.29906  0.80077  0.13764  1.0000
  C   C322      1.0  0.27068  0.77033  0.16785  1.0000
  C   C323      1.0  0.25905  0.75622  0.12932  1.0000
  C   C324      1.0  0.31300  0.74234  0.16756  1.0000
  C   C325      1.0  0.31020  0.82469  0.14649  1.0000
  C   C326      1.0  0.27934  0.78093  0.18550  1.0000
  H   H506      1.0  0.29806  0.75391  0.12697  1.0000
  H   H507      1.0  0.27522  0.73338  0.14776  1.0000
  H   H508      1.0  0.32583  0.78432  0.16397  1.0000
  H   H509      1.0  0.33155  0.77326  0.14248  1.0000
  H   H510      1.0  0.31356  0.80246  0.12430  1.0000
  H   H511      1.0  0.28170  0.80396  0.13268  1.0000
  H   H512      1.0  0.25597  0.77948  0.16363  1.0000
  H   H513      1.0  0.25971  0.74900  0.17338  1.0000
  H   H514      1.0  0.26574  0.77279  0.11657  1.0000
  H   H515      1.0  0.25111  0.73813  0.12377  1.0000
  H   H516      1.0  0.24277  0.75828  0.13967  1.0000
  H   H517      1.0  0.31076  0.72752  0.15828  1.0000
  H   H518      1.0  0.33098  0.74304  0.17322  1.0000
  H   H519      1.0  0.29624  0.73573  0.18007  1.0000
  H   H520      1.0  0.32787  0.82432  0.15213  1.0000
  H   H521      1.0  0.29508  0.82700  0.15776  1.0000
  H   H522      1.0  0.31646  0.84277  0.13494  1.0000
  H   H523      1.0  0.26465  0.78937  0.19212  1.0000
  H   H524      1.0  0.29847  0.79655  0.18239  1.0000
  H   H525      1.0  0.27927  0.76458  0.19693  1.0000
  H   H526      1.0  0.40475  0.66982  0.17157  1.0000
  H   H527      1.0  0.21967  0.59465  0.12001  1.0000
  C   C327      1.0  0.29226  0.68741  0.01274  1.0000
  Fe  Fe52      1.0  0.41941  0.60401  0.17529  1.0000
  Fe  Fe53      1.0  0.41532  0.83397  0.21610  1.0000
  H   H528      1.0  0.31089  0.69578  0.04444  1.0000
  C   C328      1.0  0.39184  0.83088  0.17183  1.0000
  H   H529      1.0  0.24396  0.54168  0.99683  1.0000
  H   H530      1.0  0.46816  0.92260  0.20714  1.0000
  H   H531      1.0  0.43209  0.49513  0.11918  1.0000
  H   H532      1.0  0.44012  0.73628  0.16735  1.0000
  C   C329      1.0  0.38302  0.76891  0.01924  1.0000
  H   H533      1.0  0.20044  0.59737  0.14146  1.0000
  Fe  Fe54      1.0  0.44254  0.56083  0.18536  1.0000
  H   H534      1.0  0.02597  0.60693  0.11357  1.0000
  H   H535      1.0  0.01889  0.65478  0.09008  1.0000
  S   S102      1.0  0.40050  0.79934  0.20232  1.0000
  H   H536      1.0  0.44145  0.83021  0.03787  1.0000
  Fe  Fe55      1.0  0.46407  0.61295  0.19652  1.0000
  C   C330      1.0  0.03319  0.66657  0.14348  1.0000
  H   H537      1.0  0.40658  0.74300  0.14930  1.0000
  H   H538      1.0  0.05825  0.64128  0.09396  1.0000
  H   H539      1.0  0.01301  0.62533  0.15047  1.0000
  H   H540      1.0  0.20765  0.70481  0.98644  1.0000
  S   S103      1.0  0.02505  0.57485  0.17300  1.0000
  H   H541      1.0  0.43568  0.76580  0.02468  1.0000
  Fe  Fe56      1.0  0.99928  0.59439  0.18830  1.0000
  H   H542      1.0  0.00053  0.61064  0.10211  1.0000
  H   H543      1.0  0.33280  0.90903  0.21382  1.0000
  C   C331      1.0  0.33748  0.69890  0.01679  1.0000
  S   S104      1.0  0.38961  0.85201  0.23335  1.0000
  C   C332      1.0  0.00721  0.61142  0.11598  1.0000
  C   C333      1.0  0.28734  0.60296  0.00845  1.0000
  C   C334      1.0  0.20073  0.58503  0.13053  1.0000
  C   C335      1.0  0.45285  0.69311  0.18216  1.0000
  Fe  Fe57      1.0  0.46502  0.86775  0.22580  1.0000
  H   H544      1.0  0.42896  0.67785  0.13213  1.0000
  H   H545      1.0  0.42113  0.70666  0.12474  1.0000
  N   N24       1.0  0.15291  0.58381  0.13081  1.0000
  H   H546      1.0  0.44499  0.50323  0.14027  1.0000
  H   H547      1.0  0.42702  0.52660  0.08691  1.0000
  H   H548      1.0  0.04311  0.63344  0.13465  1.0000
  H   H549      1.0  0.38323  0.70517  0.14533  1.0000
  C   C336      1.0  0.28714  0.58519  0.99338  1.0000
  H   H550      1.0  0.41991  0.83895  0.01205  1.0000
  S   S105      1.0  0.45259  0.52722  0.17525  1.0000
  H   H551      1.0  0.11124  0.55901  0.10051  1.0000
  H   H552      1.0  0.20950  0.54970  0.01883  1.0000
  C   C337      1.0  0.39787  0.77304  0.98489  1.0000
  C   C338      1.0  0.24080  0.56104  0.99332  1.0000
  H   H553      1.0  0.30364  0.62177  0.00319  1.0000
  H   H554      1.0  0.05166  0.66935  0.14885  1.0000
  N   N25       1.0  0.32162  0.63018  0.12008  1.0000
  C   C339      1.0  0.30411  0.64534  0.11353  1.0000
  C   C340      1.0  0.34855  0.64982  0.11740  1.0000
  C   C341      1.0  0.31086  0.61755  0.14124  1.0000
  C   C342      1.0  0.32122  0.60952  0.10811  1.0000
  C   C343      1.0  0.27467  0.62971  0.11721  1.0000
  C   C344      1.0  0.36135  0.66570  0.09669  1.0000
  C   C345      1.0  0.33015  0.61054  0.15312  1.0000
  C   C346      1.0  0.33911  0.59267  0.11118  1.0000
  H   H555      1.0  0.30580  0.66255  0.12059  1.0000
  H   H556      1.0  0.31017  0.65375  0.09773  1.0000
  H   H557      1.0  0.36274  0.64051  0.12219  1.0000
  H   H558      1.0  0.34776  0.66440  0.12670  1.0000
  H   H559      1.0  0.30270  0.63080  0.14892  1.0000
  H   H560      1.0  0.29419  0.59916  0.14301  1.0000
  H   H561      1.0  0.30123  0.59519  0.11072  1.0000
  H   H562      1.0  0.32543  0.61806  0.09249  1.0000
  H   H563      1.0  0.26427  0.64329  0.11192  1.0000
  H   H564      1.0  0.27079  0.61379  0.10897  1.0000
  H   H565      1.0  0.26584  0.62172  0.13277  1.0000
  H   H566      1.0  0.38208  0.67693  0.09614  1.0000
  H   H567      1.0  0.36151  0.65287  0.08613  1.0000
  H   H568      1.0  0.35168  0.68032  0.09211  1.0000
  H   H569      1.0  0.34470  0.62846  0.15517  1.0000
  H   H570      1.0  0.34058  0.59805  0.14685  1.0000
  H   H571      1.0  0.31907  0.59935  0.16779  1.0000
  H   H572      1.0  0.32919  0.57500  0.12291  1.0000
  H   H573      1.0  0.35784  0.60370  0.11416  1.0000
  H   H574      1.0  0.34457  0.58611  0.09759  1.0000
  C   C347      1.0  0.33079  0.70744  0.03601  1.0000
  H   H575      1.0  0.06598  0.67528  0.08368  1.0000
  S   S106      1.0  0.40119  0.56166  0.19021  1.0000
  H   H576      1.0  0.44892  0.55696  0.07120  1.0000
  H   H577      1.0  0.11046  0.54084  0.17251  1.0000
  H   H578      1.0  0.46719  0.51698  0.09601  1.0000
  C   C348      1.0  0.37303  0.80030  0.99633  1.0000
  C   C349      1.0  0.43790  0.53618  0.12247  1.0000
  H   H579      1.0  0.47324  0.70265  0.15279  1.0000
  H   H580      1.0  0.47993  0.55184  0.13491  1.0000
  C   C350      1.0  0.38531  0.83548  0.15370  1.0000
  H   H581      1.0  0.09967  0.55081  0.15126  1.0000
  H   H582      1.0  0.11842  0.53947  0.11999  1.0000
  C   C351      1.0  0.37196  0.78891  0.01546  1.0000
  S   S107      1.0  0.40481  0.62550  0.15244  1.0000
  H   H583      1.0  0.40281  0.70023  0.17658  1.0000
  H   H584      1.0  0.46935  0.79927  0.07520  1.0000
  C   C352      1.0  0.15669  0.60902  0.13819  1.0000
  S   S108      1.0  0.46010  0.60195  0.16801  1.0000
  H   H585      1.0  0.36270  0.93043  0.21691  1.0000
  H   H586      1.0  0.06765  0.66595  0.10828  1.0000
  S   S109      1.0  0.45026  0.57147  0.21345  1.0000
  H   H587      1.0  0.31641  0.73880  0.00885  1.0000
  H   H588      1.0  0.33309  0.72869  0.03398  1.0000
  H   H589      1.0  0.18534  0.59763  0.10576  1.0000
  C   C353      1.0  0.39366  0.80628  0.17934  1.0000
  C   C354      1.0  0.13379  0.58262  0.11765  1.0000
  C   C355      1.0  0.40668  0.69027  0.16446  1.0000
  H   H590      1.0  0.36478  0.67889  0.16531  1.0000
  H   H591      1.0  0.27420  0.69477  0.98766  1.0000
  C   C356      1.0  0.43510  0.69932  0.13180  1.0000
  H   H592      1.0  0.20033  0.56524  0.13773  1.0000
  N   N26       1.0  0.32035  0.70211  0.00259  1.0000
  H   H593      1.0  0.39206  0.52066  0.22894  1.0000
  C   C357      1.0  0.44934  0.95250  0.20571  1.0000
  H   H594      1.0  0.16650  0.63720  0.11025  1.0000
  H   H595      1.0  0.14138  0.59962  0.10528  1.0000
  C   C358      1.0  0.22863  0.56540  0.01293  1.0000
  H   H596      1.0  0.43578  0.54528  0.13529  1.0000
  H   H597      1.0  0.47185  0.77777  0.04868  1.0000
  C   C359      1.0  0.98763  0.58809  0.13132  1.0000
  S   S110      1.0  0.42482  0.61874  0.20239  1.0000
  H   H598      1.0  0.98961  0.66350  0.12977  1.0000
  H   H599      1.0  0.47310  0.49076  0.19542  1.0000
  H   H600      1.0  0.43168  0.81855  0.99842  1.0000
  H   H601      1.0  0.44964  0.78862  0.00226  1.0000
  H   H602      1.0  0.32607  0.66894  0.99133  1.0000
  H   H603      1.0  0.46668  0.61560  0.10947  1.0000
  C   C360      1.0  0.46561  0.59561  0.11676  1.0000
  H   H604      1.0  0.45128  0.52606  0.06735  1.0000
  C   C361      1.0  0.46536  0.57811  0.10160  1.0000
  H   H605      1.0  0.29169  0.73898  0.98521  1.0000
  H   H606      1.0  0.42951  0.74894  0.12650  1.0000
  H   H607      1.0  0.40078  0.57515  0.98749  1.0000
  C   C362      1.0  0.43648  0.83106  0.00902  1.0000
  H   H608      1.0  0.43581  0.77028  0.14303  1.0000
  H   H609      1.0  0.43747  0.63039  0.98714  1.0000
  H   H610      1.0  0.45488  0.82156  0.06436  1.0000
  C   C363      1.0  0.46190  0.71162  0.11767  1.0000
  C   C364      1.0  0.45385  0.78161  0.01639  1.0000
  H   H611      1.0  0.41164  0.49899  0.13978  1.0000
  H   H612      1.0  0.27479  0.66146  0.99434  1.0000
  H   H613      1.0  0.43685  0.98691  0.20325  1.0000
  H   H614      1.0  0.98673  0.56952  0.12630  1.0000
  S   S111      1.0  0.19008  0.60241  0.98991  1.0000
  H   H615      1.0  0.25227  0.61465  0.98832  1.0000
  N   N27       1.0  0.46414  0.55009  0.10899  1.0000
  H   H616      1.0  0.37212  0.96702  0.23115  1.0000
  H   H617      1.0  0.46925  0.73331  0.11584  1.0000
  H   H618      1.0  0.22547  0.55833  0.98447  1.0000
  H   H619      1.0  0.47669  0.70272  0.12182  1.0000
  H   H620      1.0  0.17626  0.68471  0.98476  1.0000
  H   H621      1.0  0.30146  0.94121  0.42469  1.0000
  C   C365      1.0  0.02225  0.52301  0.24775  1.0000
  Fe  Fe58      1.0  0.11294  0.94935  0.42267  1.0000
  S   S112      1.0  0.15402  0.95085  0.42524  1.0000
  S   S113      1.0  0.07943  0.91201  0.43680  1.0000
  C   C366      1.0  0.33182  0.94316  0.26905  1.0000
  H   H622      1.0  0.30950  0.90604  0.24560  1.0000
  H   H623      1.0  0.42645  0.63925  0.26285  1.0000
  H   H624      1.0  0.20238  0.98175  0.30138  1.0000
  C   C367      1.0  0.28299  0.97257  0.42023  1.0000
  H   H625      1.0  0.06405  0.67058  0.30570  1.0000
  H   H626      1.0  0.08083  0.64934  0.29654  1.0000
  H   H627      1.0  0.20814  0.94871  0.41041  1.0000
  H   H628      1.0  0.21035  0.91853  0.40494  1.0000
  C   C368      1.0  0.22591  0.97345  0.36892  1.0000
  H   H629      1.0  0.21855  0.96709  0.43575  1.0000
  H   H630      1.0  0.47877  0.94608  0.25491  1.0000
  H   H631      1.0  0.33637  0.96221  0.25873  1.0000
  H   H632      1.0  0.10359  0.97902  0.47649  1.0000
  C   C369      1.0  0.34100  0.87541  0.26711  1.0000
  H   H633      1.0  0.00355  0.57185  0.30820  1.0000
  S   S114      1.0  0.38239  0.56324  0.24570  1.0000
  C   C370      1.0  0.99625  0.61030  0.30533  1.0000
  H   H634      1.0  0.46071  0.84746  0.27458  1.0000
  S   S115      1.0  0.32590  0.96295  0.32120  1.0000
  H   H635      1.0  0.43973  0.95657  0.29491  1.0000
  H   H636      1.0  0.38516  0.54271  0.32646  1.0000
  S   S116      1.0  0.38719  0.96653  0.30489  1.0000
  S   S117      1.0  0.19172  0.96200  0.37120  1.0000
  H   H637      1.0  0.42454  0.54264  0.30488  1.0000
  H   H638      1.0  0.41277  0.60828  0.29211  1.0000
  Fe  Fe59      1.0  0.35305  0.94024  0.32784  1.0000
  S   S118      1.0  0.33873  0.89617  0.33287  1.0000
  H   H639      1.0  0.23223  0.94554  0.35182  1.0000
  S   S119      1.0  0.36456  0.96011  0.35194  1.0000
  H   H640      1.0  0.03263  0.65049  0.28075  1.0000
  H   H641      1.0  0.42779  0.79982  0.31754  1.0000
  H   H642      1.0  0.47136  0.55456  0.27900  1.0000
  H   H643      1.0  0.35679  0.53212  0.28355  1.0000
  H   H644      1.0  0.40076  0.84359  0.34605  1.0000
  C   C371      1.0  0.38876  0.87725  0.29340  1.0000
  C   C372      1.0  0.37698  0.89207  0.30418  1.0000
  C   C373      1.0  0.35654  0.87926  0.32029  1.0000
  C   C374      1.0  0.34887  0.85189  0.32611  1.0000
  H   H645      1.0  0.40393  0.88698  0.28062  1.0000
  H   H646      1.0  0.38310  0.91319  0.29971  1.0000
  H   H647      1.0  0.33313  0.84191  0.33855  1.0000
  C   C375      1.0  0.41464  0.55697  0.29994  1.0000
  C   C376      1.0  0.38074  0.84979  0.29925  1.0000
  H   H648      1.0  0.18299  0.98359  0.33413  1.0000
  H   H649      1.0  0.02374  0.68256  0.29626  1.0000
  C   C377      1.0  0.37520  0.52958  0.25534  1.0000
  H   H650      1.0  0.39517  0.78089  0.34830  1.0000
  C   C378      1.0  0.44305  0.57164  0.26796  1.0000
  C   C379      1.0  0.21473  0.93175  0.41527  1.0000
  C   C380      1.0  0.45139  0.92208  0.29517  1.0000
  C   C381      1.0  0.37067  0.93406  0.25432  1.0000
  H   H651      1.0  0.17654  0.95809  0.46303  1.0000
  H   H652      1.0  0.35502  0.81607  0.32041  1.0000
  H   H653      1.0  0.99470  0.63806  0.33188  1.0000
  H   H654      1.0  0.20292  0.92072  0.42965  1.0000
  H   H655      1.0  0.28026  0.95981  0.34902  1.0000
  H   H656      1.0  0.04631  0.62541  0.28489  1.0000
  H   H657      1.0  0.40207  0.59016  0.27497  1.0000
  C   C382      1.0  0.01184  0.66316  0.24880  1.0000
  C   C383      1.0  0.44404  0.85423  0.33845  1.0000
  H   H658      1.0  0.29224  0.98275  0.43094  1.0000
  C   C384      1.0  0.45554  0.54965  0.27090  1.0000
  H   H659      1.0  0.25342  0.95170  0.39931  1.0000
  C   C385      1.0  0.11409  0.88844  0.47148  1.0000
  H   H660      1.0  0.38912  0.57572  0.31585  1.0000
  H   H661      1.0  0.41336  0.56752  0.32844  1.0000
  H   H662      1.0  0.04848  0.62500  0.32797  1.0000
  H   H663      1.0  0.40813  0.81934  0.32310  1.0000
  N   N28       1.0  0.44865  0.83657  0.32481  1.0000
  C   C386      1.0  0.05449  0.90073  0.42411  1.0000
  C   C387      1.0  0.03592  0.87557  0.43101  1.0000
  C   C388      1.0  0.01487  0.86685  0.42187  1.0000
  C   C389      1.0  0.01210  0.88345  0.40591  1.0000
  C   C390      1.0  0.03085  0.90844  0.39892  1.0000
  C   C391      1.0  0.05199  0.91703  0.40792  1.0000
  H   H664      1.0  0.03771  0.86281  0.44353  1.0000
  H   H665      1.0  0.00058  0.84751  0.42736  1.0000
  H   H666      1.0  0.02882  0.92140  0.38662  1.0000
  H   H667      1.0  0.06597  0.93652  0.40258  1.0000
  C   C392      1.0  0.01740  0.50428  0.23621  1.0000
  H   H668      1.0  0.47369  0.81243  0.32012  1.0000
  H   H669      1.0  0.44460  0.84573  0.35347  1.0000
  H   H670      1.0  0.46434  0.54714  0.25653  1.0000
  C   C393      1.0  0.42004  0.60021  0.27990  1.0000
  H   H671      1.0  0.32610  0.93957  0.23525  1.0000
  H   H672      1.0  0.41781  0.94892  0.34769  1.0000
  H   H673      1.0  0.26417  0.95104  0.45698  1.0000
  H   H674      1.0  0.11894  0.90504  0.45900  1.0000
  C   C394      1.0  0.10762  0.94007  0.48240  1.0000
  C   C395      1.0  0.03149  0.61182  0.32369  1.0000
  H   H675      1.0  0.43936  0.91546  0.35583  1.0000
  C   C396      1.0  0.99906  0.58601  0.29750  1.0000
  S   S120      1.0  0.43744  0.82731  0.23925  1.0000
  H   H676      1.0  0.21863  0.90404  0.45583  1.0000
  H   H677      1.0  0.45366  0.55586  0.33525  1.0000
  C   C397      1.0  0.33219  0.89790  0.27353  1.0000
  H   H678      1.0  0.29736  0.95214  0.28171  1.0000
  H   H679      1.0  0.42773  0.78413  0.35119  1.0000
  H   H680      1.0  0.41146  0.80662  0.35920  1.0000
  C   C398      1.0  0.25302  0.93969  0.44758  1.0000
  C   C399      1.0  0.42453  0.81311  0.32732  1.0000
  C   C400      1.0  0.46463  0.83870  0.28840  1.0000
  Fe  Fe60      1.0  0.41380  0.84790  0.25547  1.0000
  C   C401      1.0  0.01592  0.51502  0.26792  1.0000
  C   C402      1.0  0.45118  0.93552  0.34935  1.0000
  N   N29       1.0  0.34114  0.92379  0.25919  1.0000
  H   H681      1.0  0.33854  0.90084  0.28728  1.0000
  C   C403      1.0  0.43895  0.95453  0.34492  1.0000
  H   H682      1.0  0.42661  0.56447  0.26068  1.0000
  H   H683      1.0  0.43821  0.61849  0.24933  1.0000
  H   H684      1.0  0.01369  0.59140  0.28373  1.0000
  C   C404      1.0  0.24447  0.94065  0.41442  1.0000
  H   H685      1.0  0.46411  0.95563  0.30773  1.0000
  H   H686      1.0  0.46574  0.60962  0.31902  1.0000
  C   C405      1.0  0.40002  0.56167  0.31856  1.0000
  C   C406      1.0  0.99817  0.91899  0.44925  1.0000
  S   S121      1.0  0.03775  0.62826  0.24180  1.0000
  C   C407      1.0  0.06651  0.65981  0.29399  1.0000
  C   C408      1.0  0.00620  0.66946  0.30706  1.0000
  H   H687      1.0  0.26316  0.92499  0.44519  1.0000
  S   S122      1.0  0.39517  0.83047  0.28666  1.0000
  N   N30       1.0  0.25448  0.95702  0.42861  1.0000
  C   C409      1.0  0.24001  0.97662  0.43107  1.0000
  C   C410      1.0  0.43650  0.62410  0.26365  1.0000
  S   S123      1.0  0.12382  0.96797  0.39112  1.0000
  C   C411      1.0  0.45459  0.61213  0.30754  1.0000
  H   H688      1.0  0.43814  0.85766  0.30076  1.0000
  H   H689      1.0  0.41604  0.86930  0.32484  1.0000
  H   H690      1.0  0.03958  0.59837  0.31625  1.0000
  C   C412      1.0  0.45409  0.98071  0.33707  1.0000
  C   C413      1.0  0.41446  0.79549  0.34777  1.0000
  C   C414      1.0  0.24140  0.96157  0.35835  1.0000
  H   H691      1.0  0.98374  0.59677  0.25715  1.0000
  H   H692      1.0  0.09459  0.87430  0.47201  1.0000
  H   H693      1.0  0.01453  0.93101  0.47426  1.0000
  H   H694      1.0  0.21070  0.93359  0.45848  1.0000
  H   H695      1.0  0.46333  0.57704  0.30217  1.0000
  H   H696      1.0  0.02765  0.65755  0.32772  1.0000
  C   C415      1.0  0.00961  0.63677  0.24906  1.0000
  C   C416      1.0  0.30224  0.93477  0.27782  1.0000
  H   H697      1.0  0.02807  0.90852  0.46327  1.0000
  H   H698      1.0  0.46372  0.51200  0.30261  1.0000
  S   S124      1.0  0.44365  0.88767  0.24451  1.0000
  C   C417      1.0  0.47400  0.96398  0.25783  1.0000
  H   H699      1.0  0.01982  0.52958  0.27679  1.0000
  H   H700      1.0  0.34232  0.94785  0.28088  1.0000
  H   H701      1.0  0.24391  0.98246  0.46047  1.0000
  H   H702      1.0  0.07493  0.67516  0.28049  1.0000
  C   C418      1.0  0.47855  0.94234  0.34536  1.0000
  H   H703      1.0  0.46420  0.63277  0.29942  1.0000
  H   H704      1.0  0.22627  0.92056  0.47526  1.0000
  H   H705      1.0  0.46007  0.87345  0.33454  1.0000
  Fe  Fe61      1.0  0.34016  0.98531  0.34334  1.0000
  H   H706      1.0  0.00516  0.60769  0.35163  1.0000
  H   H707      1.0  0.99031  0.66125  0.29962  1.0000
  H   H708      1.0  0.44645  0.97646  0.24268  1.0000
  H   H709      1.0  0.06839  0.89987  0.47908  1.0000
  C   C419      1.0  0.36118  0.83726  0.31580  1.0000
  C   C420      1.0  0.46230  0.54028  0.33693  1.0000
  H   H710      1.0  0.36242  0.88088  0.26188  1.0000
  H   H711      1.0  0.99492  0.93791  0.44385  1.0000
  C   C421      1.0  0.36258  0.51938  0.27475  1.0000
  H   H712      1.0  0.10534  0.93795  0.46750  1.0000
  H   H713      1.0  0.29015  0.92747  0.26751  1.0000
  H   H714      1.0  0.31045  0.88986  0.27754  1.0000
  H   H715      1.0  0.46018  0.48980  0.28649  1.0000
  H   H716      1.0  0.02277  0.58460  0.35130  1.0000
  N   N31       1.0  0.43381  0.58080  0.28589  1.0000
  C   C422      1.0  0.22552  0.92359  0.45969  1.0000
  H   H717      1.0  0.25053  0.92263  0.41575  1.0000
  C   C423      1.0  0.18238  0.96833  0.47424  1.0000
  C   C424      1.0  0.45724  0.49389  0.34502  1.0000
  C   C425      1.0  0.45720  0.59270  0.29420  1.0000
  H   H718      1.0  0.39947  0.54633  0.29271  1.0000
  H   H719      1.0  0.44058  0.53047  0.27816  1.0000
  H   H720      1.0  0.45633  0.63335  0.26613  1.0000
  C   C426      1.0  0.32936  0.92099  0.24156  1.0000
  S   S125      1.0  0.41212  0.50651  0.34417  1.0000
  H   H721      1.0  0.43447  0.60970  0.31493  1.0000
  H   H722      1.0  0.29687  0.91975  0.29144  1.0000
  H   H723      1.0  0.41810  0.87576  0.34830  1.0000
  H   H724      1.0  0.28493  0.98846  0.40772  1.0000
  H   H725      1.0  0.43816  0.94163  0.24987  1.0000
  H   H726      1.0  0.43302  0.91207  0.30616  1.0000
  H   H727      1.0  0.29513  0.94826  0.40062  1.0000
  N   N32       1.0  0.02028  0.62761  0.31028  1.0000
  C   C427      1.0  0.45519  0.85220  0.30437  1.0000
  H   H728      1.0  0.47100  0.87111  0.30291  1.0000
  C   C428      1.0  0.44591  0.96046  0.25455  1.0000
  H   H729      1.0  0.33567  0.85883  0.27977  1.0000
  H   H730      1.0  0.03087  0.54370  0.24114  1.0000
  C   C429      1.0  0.04059  0.64046  0.29189  1.0000
  S   S126      1.0  0.11613  0.98751  0.43222  1.0000
  C   C430      1.0  0.30078  0.95680  0.41306  1.0000
  Fe  Fe62      1.0  0.16519  0.97214  0.39418  1.0000
  H   H731      1.0  0.47423  0.60397  0.28232  1.0000
  C   C431      1.0  0.38231  0.51294  0.24394  1.0000
  H   H732      1.0  0.45788  0.58814  0.25718  1.0000
  H   H733      1.0  0.98941  0.62181  0.29436  1.0000
  C   C432      1.0  0.44607  0.51400  0.34226  1.0000
  C   C433      1.0  0.38272  0.96261  0.24255  1.0000
  C   C434      1.0  0.01236  0.59526  0.34263  1.0000
  H   H734      1.0  0.03704  0.94202  0.45148  1.0000
  H   H735      1.0  0.00428  0.80057  0.46966  1.0000
  C   C435      1.0  0.02035  0.92527  0.46052  1.0000
  C   C436      1.0  0.41824  0.86089  0.33927  1.0000
  H   H736      1.0  0.99542  0.58010  0.34001  1.0000
  C   C437      1.0  0.01248  0.64775  0.32015  1.0000
  C   C438      1.0  0.26868  0.96978  0.35660  1.0000
  H   H737      1.0  0.32111  0.97049  0.40767  1.0000
  H   H738      1.0  0.00668  0.91313  0.43616  1.0000
  H   H739      1.0  0.37854  0.93330  0.26775  1.0000
  C   C439      1.0  0.98376  0.79421  0.47661  1.0000
  H   H740      1.0  0.43139  0.96062  0.26705  1.0000
  H   H741      1.0  0.44810  0.91644  0.28132  1.0000
  C   C440      1.0  0.99007  0.67000  0.25652  1.0000
  C   C441      1.0  0.45823  0.95191  0.29404  1.0000
  Fe  Fe63      1.0  0.39699  0.98824  0.32844  1.0000
  C   C442      1.0  0.47239  0.49810  0.29642  1.0000
  H   H742      1.0  0.12863  0.87797  0.46880  1.0000
  C   C443      1.0  0.35763  0.49276  0.28289  1.0000
  H   H743      1.0  0.46661  0.91458  0.30019  1.0000
  H   H744      1.0  0.99196  0.69044  0.25639  1.0000
  H   H745      1.0  0.37912  0.92156  0.24618  1.0000
  S   S127      1.0  0.98462  0.87482  0.39514  1.0000
  C   C444      1.0  0.98545  0.61721  0.25682  1.0000
  H   H746      1.0  0.38309  0.97683  0.25220  1.0000
  H   H747      1.0  0.98932  0.88154  0.48224  1.0000
  H   H748      1.0  0.40327  0.96602  0.23536  1.0000
  H   H749      1.0  0.99057  0.86741  0.46188  1.0000
  H   H750      1.0  0.03051  0.67831  0.24282  1.0000
  C   C445      1.0  0.47094  0.82697  0.32901  1.0000
  H   H751      1.0  0.12896  0.94932  0.48111  1.0000
  H   H752      1.0  0.46656  0.81634  0.34430  1.0000
  N   N33       1.0  0.47936  0.96920  0.27715  1.0000
  H   H753      1.0  0.45480  0.81729  0.29083  1.0000
  H   H754      1.0  0.99920  0.68199  0.31613  1.0000
  H   H755      1.0  0.33049  0.86757  0.25615  1.0000
  H   H756      1.0  0.47986  0.50593  0.25367  1.0000
  C   C446      1.0  0.00396  0.51327  0.64024  1.0000
  S   S128      1.0  0.39711  0.59928  0.71550  1.0000
  H   H757      1.0  0.40360  0.59884  0.62467  1.0000
  S   S129      1.0  0.17695  0.95173  0.58128  1.0000
  S   S130      1.0  0.10543  0.95232  0.59588  1.0000
  C   C447      1.0  0.98834  0.74226  0.58863  1.0000
  H   H758      1.0  0.09266  0.63651  0.71347  1.0000
  H   H759      1.0  0.35741  0.59093  0.63292  1.0000
  S   S131      1.0  0.19962  0.95136  0.52666  1.0000
  H   H760      1.0  0.30393  0.93113  0.63463  1.0000
  H   H761      1.0  0.00409  0.74186  0.57757  1.0000
  H   H762      1.0  0.00468  0.49516  0.55327  1.0000
  H   H763      1.0  0.03865  0.51632  0.57347  1.0000
  H   H764      1.0  0.41282  0.66575  0.63683  1.0000
  C   C448      1.0  0.43096  0.53289  0.60513  1.0000
  H   H765      1.0  0.46894  0.56055  0.60402  1.0000
  Fe  Fe64      1.0  0.98600  0.82455  0.53300  1.0000
  H   H766      1.0  0.07021  0.50225  0.72552  1.0000
  C   C449      1.0  0.36373  0.57360  0.63757  1.0000
  H   H767      1.0  0.33925  0.93494  0.59562  1.0000
  C   C450      1.0  0.45110  0.61639  0.64577  1.0000
  H   H768      1.0  0.11253  0.88064  0.50218  1.0000
  C   C451      1.0  0.04638  0.51149  0.70594  1.0000
  C   C452      1.0  0.44887  0.65746  0.62868  1.0000
  H   H769      1.0  0.01409  0.71268  0.64923  1.0000
  H   H770      1.0  0.46545  0.65236  0.67029  1.0000
  S   S132      1.0  0.33393  0.58307  0.71733  1.0000
  H   H771      1.0  0.09562  0.66994  0.65609  1.0000
  H   H772      1.0  0.27313  0.96127  0.64612  1.0000
  H   H773      1.0  0.47441  0.93982  0.66119  1.0000
  N   N34       1.0  0.07395  0.61438  0.67245  1.0000
  H   H774      1.0  0.06496  0.67438  0.65423  1.0000
  C   C453      1.0  0.29288  0.96906  0.64919  1.0000
  H   H775      1.0  0.05783  0.76684  0.64483  1.0000
  H   H776      1.0  0.39269  0.90509  0.71270  1.0000
  S   S133      1.0  0.02934  0.91589  0.54003  1.0000
  H   H777      1.0  0.32805  0.56571  0.67266  1.0000
  H   H778      1.0  0.03714  0.79409  0.66745  1.0000
  C   C454      1.0  0.98294  0.55224  0.62659  1.0000
  C   C455      1.0  0.05800  0.58709  0.67116  1.0000
  H   H779      1.0  0.03615  0.54543  0.64328  1.0000
  H   H780      1.0  0.05947  0.58513  0.65581  1.0000
  C   C456      1.0  0.03065  0.68044  0.71951  1.0000
  C   C457      1.0  0.46280  0.63977  0.63180  1.0000
  H   H781      1.0  0.43919  0.53721  0.65484  1.0000
  C   C458      1.0  0.02093  0.66517  0.70661  1.0000
  H   H782      1.0  0.10752  0.58209  0.65951  1.0000
  H   H783      1.0  0.99340  0.68423  0.53283  1.0000
  S   S134      1.0  0.35594  0.96807  0.66251  1.0000
  C   C459      1.0  0.42586  0.61126  0.65698  1.0000
  H   H784      1.0  0.10352  0.97606  0.55742  1.0000
  C   C460      1.0  0.31404  0.98345  0.63070  1.0000
  H   H785      1.0  0.41705  0.59340  0.66792  1.0000
  H   H786      1.0  0.06572  0.57197  0.67806  1.0000
  C   C461      1.0  0.41200  0.62908  0.65372  1.0000
  C   C462      1.0  0.01503  0.63777  0.71144  1.0000
  H   H787      1.0  0.46693  0.92215  0.71888  1.0000
  H   H788      1.0  0.00745  0.62576  0.70167  1.0000
  Fe  Fe65      1.0  0.99717  0.61612  0.64079  1.0000
  S   S135      1.0  0.38011  0.62295  0.66690  1.0000
  S   S136      1.0  0.42933  0.54572  0.71332  1.0000
  H   H789      1.0  0.07251  0.59574  0.70191  1.0000
  H   H790      1.0  0.40896  0.50247  0.68711  1.0000
  H   H791      1.0  0.34170  0.97598  0.58655  1.0000
  C   C463      1.0  0.09740  0.91615  0.51665  1.0000
  C   C464      1.0  0.28966  0.96310  0.60799  1.0000
  H   H792      1.0  0.99389  0.72444  0.63571  1.0000
  H   H793      1.0  0.31234  0.56577  0.64183  1.0000
  S   S137      1.0  0.00721  0.83672  0.55621  1.0000
  C   C465      1.0  0.02865  0.57832  0.68072  1.0000
  C   C466      1.0  0.08431  0.94210  0.58037  1.0000
  C   C467      1.0  0.06333  0.91854  0.58652  1.0000
  C   C468      1.0  0.04626  0.91021  0.57427  1.0000
  C   C469      1.0  0.04965  0.92592  0.55609  1.0000
  C   C470      1.0  0.07008  0.94992  0.55024  1.0000
  C   C471      1.0  0.08766  0.95774  0.56217  1.0000
  H   H794      1.0  0.06056  0.90650  0.60067  1.0000
  C   C472      1.0  0.00960  0.74290  0.52338  1.0000
  H   H795      1.0  0.07259  0.96227  0.53628  1.0000
  H   H796      1.0  0.32003  0.57383  0.60969  1.0000
  H   H797      1.0  0.30435  0.91686  0.60390  1.0000
  C   C473      1.0  0.99343  0.74255  0.66850  1.0000
  C   C474      1.0  0.41963  0.52249  0.65720  1.0000
  H   H798      1.0  0.13616  0.60820  0.65979  1.0000
  H   H799      1.0  0.04097  0.62907  0.67147  1.0000
  H   H800      1.0  0.05389  0.74267  0.62284  1.0000
  C   C475      1.0  0.06102  0.49680  0.71377  1.0000
  H   H801      1.0  0.11510  0.62919  0.69598  1.0000
  C   C476      1.0  0.35482  0.95322  0.68626  1.0000
  S   S138      1.0  0.01513  0.65986  0.63535  1.0000
  N   N35       1.0  0.34323  0.54826  0.63728  1.0000
  H   H802      1.0  0.28213  0.98002  0.60858  1.0000
  H   H803      1.0  0.41848  0.96554  0.67300  1.0000
  H   H804      1.0  0.29169  0.98326  0.65868  1.0000
  H   H805      1.0  0.06552  0.78540  0.67159  1.0000
  C   C477      1.0  0.31451  0.54771  0.66986  1.0000
  C   C478      1.0  0.32304  0.92528  0.60836  1.0000
  H   H806      1.0  0.09709  0.96552  0.50161  1.0000
  S   S139      1.0  0.98100  0.61271  0.67216  1.0000
  H   H807      1.0  0.30594  0.95159  0.58087  1.0000
  H   H808      1.0  0.40150  0.89568  0.67418  1.0000
  C   C479      1.0  0.45363  0.49575  0.68607  1.0000
  C   C480      1.0  0.45695  0.49554  0.60368  1.0000
  H   H809      1.0  0.45985  0.53823  0.67768  1.0000
  H   H810      1.0  0.02513  0.58190  0.69559  1.0000
  C   C481      1.0  0.45809  0.54035  0.60422  1.0000
  H   H811      1.0  0.03017  0.75039  0.60950  1.0000
  H   H812      1.0  0.39124  0.92103  0.68219  1.0000
  H   H813      1.0  0.31727  0.52994  0.67792  1.0000
  C   C482      1.0  0.37254  0.95249  0.71529  1.0000
  C   C483      1.0  0.07378  0.61524  0.69345  1.0000
  C   C484      1.0  0.45977  0.65000  0.68614  1.0000
  H   H814      1.0  0.13191  0.95187  0.51234  1.0000
  Fe  Fe66      1.0  0.99966  0.87522  0.54856  1.0000
  H   H815      1.0  0.32776  0.90835  0.61597  1.0000
  Fe  Fe67      1.0  0.39282  0.55693  0.71671  1.0000
  H   H816      1.0  0.45422  0.60851  0.69170  1.0000
  H   H817      1.0  0.41683  0.51675  0.64334  1.0000
  C   C485      1.0  0.01756  0.53996  0.63890  1.0000
  C   C486      1.0  0.01204  0.77638  0.63852  1.0000
  C   C487      1.0  0.33539  0.92928  0.69504  1.0000
  C   C488      1.0  0.12382  0.93142  0.52089  1.0000
  C   C489      1.0  0.35217  0.92943  0.72449  1.0000
  H   H818      1.0  0.04716  0.87243  0.52130  1.0000
  S   S140      1.0  0.04148  0.53844  0.71493  1.0000
  H   H819      1.0  0.04176  0.86075  0.49946  1.0000
  H   H820      1.0  0.28933  0.97586  0.57742  1.0000
  H   H821      1.0  0.11192  0.59289  0.68172  1.0000
  H   H822      1.0  0.13851  0.92109  0.51858  1.0000
  N   N36       1.0  0.09769  0.91354  0.49600  1.0000
  H   H823      1.0  0.27443  0.94602  0.61813  1.0000
  H   H824      1.0  0.12081  0.93279  0.53637  1.0000
  C   C490      1.0  0.11569  0.89806  0.49057  1.0000
  H   H825      1.0  0.08282  0.92560  0.52159  1.0000
  C   C491      1.0  0.37335  0.96487  0.69644  1.0000
  H   H826      1.0  0.36640  0.57446  0.65254  1.0000
  C   C492      1.0  0.11479  0.59956  0.66588  1.0000
  H   H827      1.0  0.27127  0.94255  0.58741  1.0000
  C   C493      1.0  0.42347  0.65199  0.63942  1.0000
  H   H828      1.0  0.07118  0.66711  0.67761  1.0000
  H   H829      1.0  0.05589  0.61906  0.70022  1.0000
  C   C494      1.0  0.09736  0.63540  0.69802  1.0000
  C   C495      1.0  0.32022  0.94352  0.62248  1.0000
  H   H830      1.0  0.44172  0.98301  0.69614  1.0000
  H   H831      1.0  0.43902  0.88186  0.67750  1.0000
  C   C496      1.0  0.41658  0.50644  0.60655  1.0000
  H   H832      1.0  0.99557  0.72530  0.67797  1.0000
  C   C497      1.0  0.28976  0.95813  0.58726  1.0000
  C   C498      1.0  0.47106  0.52158  0.60367  1.0000
  H   H833      1.0  0.02329  0.51556  0.68451  1.0000
  S   S141      1.0  0.01711  0.68128  0.68451  1.0000
  H   H834      1.0  0.01985  0.55698  0.68153  1.0000
  C   C499      1.0  0.06142  0.63339  0.66353  1.0000
  H   H835      1.0  0.03119  0.81151  0.61599  1.0000
  C   C500      1.0  0.10108  0.62012  0.66057  1.0000
  H   H836      1.0  0.07031  0.86029  0.50790  1.0000
  H   H837      1.0  0.46150  0.60242  0.64813  1.0000
  H   H838      1.0  0.39138  0.57613  0.61035  1.0000
  H   H839      1.0  0.03045  0.89173  0.57891  1.0000
  H   H840      1.0  0.02253  0.75202  0.50888  1.0000
  H   H841      1.0  0.33786  0.49639  0.70010  1.0000
  H   H842      1.0  0.10208  0.65555  0.68958  1.0000
  C   C501      1.0  0.31707  0.54806  0.64805  1.0000
  H   H843      1.0  0.04904  0.78873  0.61614  1.0000
  H   H844      1.0  0.45681  0.89627  0.65274  1.0000
  H   H845      1.0  0.44941  0.94992  0.63915  1.0000
  H   H846      1.0  0.46533  0.51887  0.72285  1.0000
  H   H847      1.0  0.42098  0.54739  0.60562  1.0000
  S   S142      1.0  0.02335  0.59264  0.63169  1.0000
  H   H848      1.0  0.10052  0.62159  0.64495  1.0000
  C   C502      1.0  0.04440  0.77733  0.67142  1.0000
  H   H849      1.0  0.33821  0.94801  0.62861  1.0000
  H   H850      1.0  0.46047  0.58855  0.72970  1.0000
  Fe  Fe68      1.0  0.37068  0.59354  0.69459  1.0000
  H   H851      1.0  0.35821  0.54096  0.60936  1.0000
  S   S143      1.0  0.36902  0.55200  0.69404  1.0000
  H   H852      1.0  0.42438  0.94946  0.70636  1.0000
  H   H853      1.0  0.40497  0.53235  0.66132  1.0000
  H   H854      1.0  0.02651  0.52321  0.59570  1.0000
  H   H855      1.0  0.06011  0.63124  0.64844  1.0000
  H   H856      1.0  0.45774  0.67552  0.61791  1.0000
  S   S144      1.0  0.00040  0.80603  0.50938  1.0000
  H   H857      1.0  0.03071  0.71773  0.61538  1.0000
  H   H858      1.0  0.04948  0.80843  0.63424  1.0000
  H   H859      1.0  0.11432  0.63951  0.66143  1.0000
  C   C503      1.0  0.04087  0.75845  0.65723  1.0000
  H   H860      1.0  0.03521  0.70159  0.71593  1.0000
  H   H861      1.0  0.32100  0.92021  0.68723  1.0000
  H   H862      1.0  0.44187  0.49450  0.70053  1.0000
  C   C504      1.0  0.47807  0.88750  0.71703  1.0000
  C   C505      1.0  0.19480  0.96821  0.50541  1.0000
  C   C506      1.0  0.43109  0.93537  0.64849  1.0000
  C   C507      1.0  0.47124  0.52448  0.67918  1.0000
  H   H863      1.0  0.32655  0.49361  0.63515  1.0000
  H   H864      1.0  0.29807  0.95316  0.65770  1.0000
  N   N37       1.0  0.01524  0.75258  0.65065  1.0000
  H   H865      1.0  0.38701  0.96141  0.72299  1.0000
  S   S145      1.0  0.29663  0.50916  0.72401  1.0000
  C   C508      1.0  0.01310  0.73054  0.63981  1.0000
  Fe  Fe69      1.0  0.19242  0.97299  0.55037  1.0000
  H   H866      1.0  0.40838  0.96326  0.64501  1.0000
  H   H867      1.0  0.09066  0.89643  0.52649  1.0000
  C   C509      1.0  0.03344  0.73619  0.62091  1.0000
  C   C510      1.0  0.03705  0.79710  0.62560  1.0000
  H   H868      1.0  0.99384  0.78326  0.57824  1.0000
  C   C511      1.0  0.07004  0.90003  0.49435  1.0000
  N   N38       1.0  0.31535  0.96866  0.61453  1.0000
  C   C512      1.0  0.43587  0.95937  0.67448  1.0000
  S   S146      1.0  0.44605  0.86554  0.72453  1.0000
  H   H869      1.0  0.01205  0.49829  0.64561  1.0000
  H   H870      1.0  0.45964  0.96047  0.69694  1.0000
  Fe  Fe70      1.0  0.99573  0.65653  0.66593  1.0000
  H   H871      1.0  0.42638  0.90745  0.70689  1.0000
  C   C513      1.0  0.01948  0.62584  0.72891  1.0000
  H   H872      1.0  0.45265  0.97445  0.66415  1.0000
  H   H873      1.0  0.13648  0.91004  0.48914  1.0000
  H   H874      1.0  0.04338  0.73987  0.66449  1.0000
  C   C514      1.0  0.07454  0.66275  0.66296  1.0000
  H   H875      1.0  0.03418  0.76660  0.68638  1.0000
  H   H876      1.0  0.01798  0.58792  0.67181  1.0000
  H   H877      1.0  0.98637  0.71128  0.55866  1.0000
  C   C515      1.0  0.33365  0.91777  0.71431  1.0000
  C   C516      1.0  0.34110  0.54559  0.61688  1.0000
  C   C517      1.0  0.03467  0.50442  0.69065  1.0000
  H   H878      1.0  0.29437  0.54725  0.67609  1.0000
  H   H879      1.0  0.05697  0.91133  0.49910  1.0000
  H   H880      1.0  0.40115  0.56524  0.63233  1.0000
  H   H881      1.0  0.01022  0.75910  0.53122  1.0000
  H   H882      1.0  0.01821  0.72900  0.53072  1.0000
  H   H883      1.0  0.32387  0.52858  0.61685  1.0000
  H   H884      1.0  0.47387  0.89364  0.67180  1.0000
  Fe  Fe71      1.0  0.33454  0.54168  0.71865  1.0000
  C   C518      1.0  0.40776  0.94332  0.64286  1.0000
  H   H885      1.0  0.38859  0.92895  0.65064  1.0000
  H   H886      1.0  0.35526  0.58736  0.60145  1.0000
  H   H887      1.0  0.43837  0.64686  0.68937  1.0000
  C   C519      1.0  0.33803  0.56948  0.60388  1.0000
  N   N39       1.0  0.43262  0.93270  0.66956  1.0000
  H   H888      1.0  0.18579  0.93432  0.49241  1.0000
  H   H889      1.0  0.40869  0.94388  0.62719  1.0000
  C   C520      1.0  0.33109  0.49804  0.64905  1.0000
  H   H890      1.0  0.33628  0.56485  0.58946  1.0000
  H   H891      1.0  0.98188  0.51158  0.72704  1.0000
  C   C521      1.0  0.00683  0.55944  0.63240  1.0000
  C   C522      1.0  0.02030  0.51409  0.58360  1.0000
  S   S147      1.0  0.22346  0.98361  0.61316  1.0000
  S   S148      1.0  0.38217  0.49658  0.61123  1.0000
  H   H892      1.0  0.42958  0.91649  0.64378  1.0000
  C   C523      1.0  0.40757  0.90062  0.70248  1.0000
  C   C524      1.0  0.09433  0.96046  0.48751  1.0000
  C   C525      1.0  0.18773  0.95498  0.49073  1.0000
  C   C526      1.0  0.39133  0.57832  0.62545  1.0000
  C   C527      1.0  0.40760  0.91255  0.68145  1.0000
  Fe  Fe72      1.0  0.14767  0.97339  0.58119  1.0000
  H   H893      1.0  0.35503  0.52804  0.66109  1.0000
  H   H894      1.0  0.45524  0.62308  0.71233  1.0000
  C   C528      1.0  0.44065  0.96263  0.69473  1.0000
  H   H895      1.0  0.31772  0.90005  0.72141  1.0000
  H   H896      1.0  0.07320  0.95397  0.48727  1.0000
  H   H897      1.0  0.00921  0.52546  0.57632  1.0000
  H   H898      1.0  0.31271  0.49506  0.65954  1.0000
  H   H899      1.0  0.98466  0.66675  0.55733  1.0000
  H   H900      1.0  0.99822  0.77014  0.62894  1.0000
  H   H901      1.0  0.46931  0.66837  0.69073  1.0000
  C   C529      1.0  0.46510  0.62596  0.69699  1.0000
  H   H902      1.0  0.36969  0.52538  0.63816  1.0000
  C   C530      1.0  0.45686  0.92523  0.67139  1.0000
  C   C531      1.0  0.35095  0.52566  0.64664  1.0000
  C   C532      1.0  0.05677  0.87188  0.50658  1.0000
  H   H903      1.0  0.30099  0.53096  0.64643  1.0000
  C   C533      1.0  0.33852  0.98561  0.59884  1.0000
  C   C534      1.0  0.41462  0.49763  0.67281  1.0000
  H   H904      1.0  0.99421  0.75778  0.67737  1.0000
  H   H905      1.0  0.00275  0.78744  0.64774  1.0000
  H   H906      1.0  0.40192  0.87883  0.70475  1.0000
  C   C535      1.0  0.45614  0.89762  0.66807  1.0000
  H   H907      1.0  0.46121  0.50988  0.64581  1.0000
  H   H908      1.0  0.46163  0.92622  0.68564  1.0000
  H   H909      1.0  0.38844  0.98331  0.68973  1.0000
  C   C536      1.0  0.98263  0.76580  0.58903  1.0000
  S   S149      1.0  0.98238  0.86408  0.52362  1.0000
  H   H910      1.0  0.01511  0.60471  0.73253  1.0000
  H   H911      1.0  0.35695  0.98882  0.60441  1.0000
  Fe  Fe73      1.0  0.20324  0.98788  0.58822  1.0000
  C   C537      1.0  0.98174  0.72906  0.52078  1.0000
  H   H912      1.0  0.98299  0.71403  0.51200  1.0000
  S   S150      1.0  0.98084  0.69004  0.60072  1.0000
  Fe  Fe74      1.0  0.08639  0.56579  0.76996  1.0000
  S   S151      1.0  0.05466  0.57140  0.79108  1.0000
  S   S152      1.0  0.12631  0.57225  0.77705  1.0000
  H   H913      1.0  0.37810  0.61625  0.79704  1.0000
  H   H914      1.0  0.36487  0.65872  0.93833  1.0000
  C   C538      1.0  0.43234  0.52951  0.73543  1.0000
  H   H915      1.0  0.30305  0.77351  0.78273  1.0000
  Fe  Fe75      1.0  0.02996  0.53285  0.78661  1.0000
  H   H916      1.0  0.14503  0.54131  0.84951  1.0000
  C   C539      1.0  0.41167  0.51465  0.85713  1.0000
  H   H917      1.0  0.31678  0.76736  0.80391  1.0000
  S   S153      1.0  0.42722  0.79583  0.91077  1.0000
  H   H918      1.0  0.98664  0.66034  0.79486  1.0000
  H   H919      1.0  0.09435  0.51298  0.80818  1.0000
  S   S154      1.0  0.36489  0.77448  0.93317  1.0000
  Fe  Fe76      1.0  0.41891  0.75926  0.89892  1.0000
  S   S155      1.0  0.39720  0.73247  0.92702  1.0000
  S   S156      1.0  0.45182  0.75242  0.87992  1.0000
  Fe  Fe77      1.0  0.36142  0.73960  0.91940  1.0000
  S   S157      1.0  0.32434  0.70543  0.92680  1.0000
  Fe  Fe78      1.0  0.40273  0.76923  0.93851  1.0000
  S   S158      1.0  0.38257  0.76257  0.88962  1.0000
  Fe  Fe79      1.0  0.38663  0.57720  0.89739  1.0000
  S   S159      1.0  0.37589  0.61419  0.89621  1.0000
  Fe  Fe80      1.0  0.35871  0.56126  0.86560  1.0000
  S   S160      1.0  0.34505  0.59649  0.86232  1.0000
  Fe  Fe81      1.0  0.38579  0.61834  0.86420  1.0000
  S   S161      1.0  0.41019  0.65497  0.84274  1.0000
  Fe  Fe82      1.0  0.33635  0.58836  0.89465  1.0000
  S   S162      1.0  0.30096  0.59271  0.91270  1.0000
  S   S163      1.0  0.40024  0.58367  0.86534  1.0000
  S   S164      1.0  0.34622  0.55080  0.89794  1.0000
  Fe  Fe83      1.0  0.22280  0.67601  0.86509  1.0000
  S   S165      1.0  0.20980  0.64204  0.89016  1.0000
  S   S166      1.0  0.25964  0.71035  0.86132  1.0000
  Fe  Fe84      1.0  0.17501  0.65384  0.84845  1.0000
  S   S167      1.0  0.15793  0.61794  0.87234  1.0000
  S   S168      1.0  0.15405  0.66182  0.82477  1.0000
  Fe  Fe85      1.0  0.16995  0.64595  0.89185  1.0000
  S   S169      1.0  0.14625  0.64647  0.92041  1.0000
  Fe  Fe86      1.0  0.19929  0.61715  0.86853  1.0000
  S   S170      1.0  0.21075  0.58074  0.86687  1.0000
  S   S171      1.0  0.18361  0.68217  0.86823  1.0000
  S   S172      1.0  0.21559  0.65101  0.84300  1.0000
  C   C540      1.0  0.15504  0.63093  0.94049  1.0000
  C   C541      1.0  0.14847  0.63677  0.95866  1.0000
  S   S173      1.0  0.07696  0.58708  0.74406  1.0000
  H   H920      1.0  0.38876  0.97801  0.81136  1.0000
  S   S174      1.0  0.36096  0.81723  0.80721  1.0000
  C   C542      1.0  0.16979  0.61391  0.93834  1.0000
  H   H921      1.0  0.13672  0.64960  0.96045  1.0000
  N   N40       1.0  0.26570  0.58194  0.98203  1.0000
  H   H922      1.0  0.28304  0.53300  0.78862  1.0000
  H   H923      1.0  0.17419  0.60858  0.92458  1.0000
  C   C543      1.0  0.27385  0.58507  0.90187  1.0000
  C   C544      1.0  0.25200  0.59229  0.90866  1.0000
  C   C545      1.0  0.23144  0.58898  0.89878  1.0000
  C   C546      1.0  0.23284  0.57880  0.88198  1.0000
  C   C547      1.0  0.25356  0.56944  0.87621  1.0000
  C   C548      1.0  0.27427  0.57285  0.88600  1.0000
  H   H924      1.0  0.25127  0.60112  0.92122  1.0000
  H   H925      1.0  0.21452  0.59434  0.90416  1.0000
  H   H926      1.0  0.25390  0.56023  0.86387  1.0000
  H   H927      1.0  0.29057  0.56616  0.88124  1.0000
  S   S175      1.0  0.45268  0.93436  0.79190  1.0000
  H   H928      1.0  0.35932  0.69389  0.96165  1.0000
  S   S176      1.0  0.01491  0.55127  0.76263  1.0000
  H   H929      1.0  0.39996  0.73433  0.83750  1.0000
  H   H930      1.0  0.44858  0.62321  0.96455  1.0000
  C   C549      1.0  0.21196  0.70062  0.91533  1.0000
  C   C550      1.0  0.30632  0.70709  0.90876  1.0000
  C   C551      1.0  0.31067  0.73085  0.89598  1.0000
  C   C552      1.0  0.29607  0.73183  0.88155  1.0000
  C   C553      1.0  0.27682  0.70910  0.88008  1.0000
  C   C554      1.0  0.27244  0.68547  0.89305  1.0000
  C   C555      1.0  0.28724  0.68443  0.90726  1.0000
  H   H931      1.0  0.32510  0.74852  0.89733  1.0000
  H   H932      1.0  0.29968  0.75024  0.87164  1.0000
  H   H933      1.0  0.25862  0.66761  0.89169  1.0000
  H   H934      1.0  0.28421  0.66587  0.91687  1.0000
  C   C556      1.0  0.44059  0.72395  0.87099  1.0000
  H   H935      1.0  0.43454  0.92420  0.83398  1.0000
  C   C557      1.0  0.08368  0.51992  0.81974  1.0000
  C   C558      1.0  0.42190  0.68089  0.85414  1.0000
  C   C559      1.0  0.40589  0.68485  0.86991  1.0000
  C   C560      1.0  0.41508  0.70669  0.87815  1.0000
  N   N41       1.0  0.41832  0.51704  0.83552  1.0000
  H   H936      1.0  0.23178  0.64432  0.95635  1.0000
  H   H937      1.0  0.38628  0.67143  0.87549  1.0000
  H   H938      1.0  0.40244  0.71017  0.88996  1.0000
  H   H939      1.0  0.21955  0.76575  0.80711  1.0000
  H   H940      1.0  0.11163  0.51986  0.83718  1.0000
  H   H941      1.0  0.32791  0.95755  0.79408  1.0000
  H   H942      1.0  0.37570  0.58910  0.82867  1.0000
  H   H943      1.0  0.27729  0.66334  0.85973  1.0000
  H   H944      1.0  0.23505  0.56382  0.82913  1.0000
  H   H945      1.0  0.30278  0.83127  0.80705  1.0000
  H   H946      1.0  0.30268  0.74134  0.79259  1.0000
  H   H947      1.0  0.29864  0.80847  0.85124  1.0000
  H   H948      1.0  0.33700  0.54697  0.77876  1.0000
  Fe  Fe87      1.0  0.38886  0.79733  0.90388  1.0000
  H   H949      1.0  0.47111  0.67740  0.93746  1.0000
  H   H950      1.0  0.26990  0.73560  0.82052  1.0000
  H   H951      1.0  0.45111  0.52507  0.86376  1.0000
  H   H952      1.0  0.28737  0.76390  0.84115  1.0000
  H   H953      1.0  0.21858  0.73287  0.81809  1.0000
  C   C561      1.0  0.34420  0.54073  0.80753  1.0000
  C   C562      1.0  0.40362  0.75594  0.83442  1.0000
  H   H954      1.0  0.26242  0.79219  0.79085  1.0000
  C   C563      1.0  0.13556  0.59853  0.78889  1.0000
  C   C564      1.0  0.12243  0.61720  0.78876  1.0000
  C   C565      1.0  0.12859  0.63685  0.79955  1.0000
  C   C566      1.0  0.14766  0.63775  0.81068  1.0000
  C   C567      1.0  0.16112  0.61934  0.81058  1.0000
  C   C568      1.0  0.15524  0.59991  0.79955  1.0000
  H   H955      1.0  0.10739  0.61641  0.78046  1.0000
  H   H956      1.0  0.11824  0.65114  0.79950  1.0000
  H   H957      1.0  0.17595  0.62003  0.81906  1.0000
  H   H958      1.0  0.16549  0.58554  0.79963  1.0000
  H   H959      1.0  0.31220  0.81240  0.79035  1.0000
  H   H960      1.0  0.25606  0.80921  0.80923  1.0000
  H   H961      1.0  0.19267  0.70336  0.91988  1.0000
  H   H962      1.0  0.29512  0.83467  0.78375  1.0000
  S   S177      1.0  0.42651  0.86868  0.77723  1.0000
  H   H963      1.0  0.42519  0.57108  0.95619  1.0000
  H   H964      1.0  0.25941  0.74754  0.79972  1.0000
  C   C569      1.0  0.37926  0.64934  0.94279  1.0000
  C   C570      1.0  0.45120  0.51681  0.73579  1.0000
  H   H965      1.0  0.44954  0.63530  0.93347  1.0000
  Fe  Fe88      1.0  0.38276  0.85451  0.78519  1.0000
  H   H966      1.0  0.12039  0.52866  0.87191  1.0000
  C   C571      1.0  0.25991  0.60718  0.97588  1.0000
  C   C572      1.0  0.44343  0.51139  0.82895  1.0000
  C   C573      1.0  0.36637  0.82261  0.82993  1.0000
  H   H967      1.0  0.24581  0.61799  0.80274  1.0000
  H   H968      1.0  0.26437  0.60753  0.77477  1.0000
  H   H969      1.0  0.22312  0.58739  0.79983  1.0000
  C   C574      1.0  0.42238  0.64769  0.96400  1.0000
  C   C575      1.0  0.35434  0.57387  0.96073  1.0000
  C   C576      1.0  0.43295  0.80347  0.79179  1.0000
  H   H970      1.0  0.37153  0.63965  0.95826  1.0000
  Fe  Fe89      1.0  0.04304  0.58930  0.76499  1.0000
  C   C577      1.0  0.28317  0.63003  0.96287  1.0000
  S   S178      1.0  0.35766  0.60347  0.76408  1.0000
  C   C578      1.0  0.43343  0.76997  0.82946  1.0000
  C   C579      1.0  0.44729  0.69827  0.84695  1.0000
  H   H971      1.0  0.40150  0.53867  0.75265  1.0000
  H   H972      1.0  0.24345  0.53944  0.80429  1.0000
  C   C580      1.0  0.40617  0.67076  0.93943  1.0000
  H   H973      1.0  0.09335  0.60236  0.85017  1.0000
  H   H974      1.0  0.11038  0.57255  0.86479  1.0000
  H   H975      1.0  0.20804  0.65603  0.94776  1.0000
  C   C581      1.0  0.34597  0.55612  0.78943  1.0000
  C   C582      1.0  0.25799  0.55763  0.79476  1.0000
  H   H976      1.0  0.24372  0.60355  0.96783  1.0000
  H   H977      1.0  0.40769  0.80554  0.81745  1.0000
  C   C583      1.0  0.44224  0.92340  0.84744  1.0000
  H   H978      1.0  0.30116  0.63334  0.96877  1.0000
  C   C584      1.0  0.44426  0.63890  0.97143  1.0000
  H   H979      1.0  0.46244  0.65553  0.96981  1.0000
  H   H980      1.0  0.44102  0.76175  0.84156  1.0000
  C   C585      1.0  0.36804  0.57178  0.94320  1.0000
  H   H981      1.0  0.23606  0.74727  0.95259  1.0000
  N   N42       1.0  0.32779  0.67054  0.84427  1.0000
  H   H982      1.0  0.43948  0.90223  0.85298  1.0000
  C   C586      1.0  0.47203  0.93752  0.84090  1.0000
  H   H983      1.0  0.34883  0.69569  0.86133  1.0000
  H   H984      1.0  0.24704  0.72642  0.96855  1.0000
  C   C587      1.0  0.20278  0.70059  0.95675  1.0000
  H   H985      1.0  0.44203  0.76331  0.81679  1.0000
  H   H986      1.0  0.36378  0.90485  0.85609  1.0000
  H   H987      1.0  0.25942  0.52983  0.97002  1.0000
  C   C588      1.0  0.39172  0.57433  0.97510  1.0000
  C   C589      1.0  0.15798  0.62692  0.97433  1.0000
  H   H988      1.0  0.41701  0.66073  0.97346  1.0000
  H   H989      1.0  0.19931  0.74923  0.83041  1.0000
  Fe  Fe90      1.0  0.37832  0.90073  0.75809  1.0000
  S   S179      1.0  0.42174  0.91934  0.74769  1.0000
  H   H990      1.0  0.43915  0.79527  0.85736  1.0000
  Fe  Fe91      1.0  0.42315  0.90837  0.77886  1.0000
  H   H991      1.0  0.45574  0.70091  0.90862  1.0000
  H   H992      1.0  0.36209  0.71722  0.81662  1.0000
  H   H993      1.0  0.45811  0.94909  0.87767  1.0000
  C   C590      1.0  0.32202  0.69094  0.83041  1.0000
  C   C591      1.0  0.07563  0.58732  0.84834  1.0000
  S   S180      1.0  0.06246  0.52571  0.76711  1.0000
  H   H994      1.0  0.40175  0.94057  0.80230  1.0000
  S   S181      1.0  0.03381  0.62714  0.76411  1.0000
  H   H995      1.0  0.45970  0.69513  0.83479  1.0000
  H   H996      1.0  0.40280  0.49604  0.81431  1.0000
  C   C592      1.0  0.07358  0.52900  0.86203  1.0000
  C   C593      1.0  0.17390  0.61104  0.97186  1.0000
  H   H997      1.0  0.41266  0.80259  0.84923  1.0000
  S   S182      1.0  0.37957  0.89359  0.78953  1.0000
  S   S183      1.0  0.37769  0.86017  0.75461  1.0000
  H   H998      1.0  0.19129  0.59147  0.95206  1.0000
  H   H999      1.0  0.35869  0.57099  0.93103  1.0000
  C   C594      1.0  0.04484  0.51990  0.85956  1.0000
  H   H1000     1.0  0.45441  0.69342  0.95240  1.0000
  H   H1001     1.0  0.39390  0.76067  0.84754  1.0000
  C   C595      1.0  0.39940  0.91683  0.86706  1.0000
  C   C596      1.0  0.42206  0.54524  0.82628  1.0000
  H   H1002     1.0  0.31111  0.62864  0.85588  1.0000
  H   H1003     1.0  0.30404  0.63898  0.83329  1.0000
  H   H1004     1.0  0.47659  0.73274  0.85015  1.0000
  H   H1005     1.0  0.06335  0.57638  0.86268  1.0000
  H   H1006     1.0  0.47866  0.72063  0.91990  1.0000
  C   C597      1.0  0.27443  0.57322  0.96374  1.0000
  C   C598      1.0  0.23350  0.59764  0.80996  1.0000
  C   C599      1.0  0.10355  0.53482  0.83050  1.0000
  H   H1007     1.0  0.36057  0.72455  0.96832  1.0000
  H   H1008     1.0  0.12004  0.54919  0.81932  1.0000
  H   H1009     1.0  0.42485  0.66201  0.90410  1.0000
  N   N43       1.0  0.23093  0.70850  0.94608  1.0000
  H   H1010     1.0  0.39917  0.50724  0.78210  1.0000
  C   C600      1.0  0.43956  0.93252  0.87987  1.0000
  H   H1011     1.0  0.40506  0.62965  0.96717  1.0000
  C   C601      1.0  0.24308  0.68710  0.95018  1.0000
  H   H1012     1.0  0.29351  0.58733  0.95529  1.0000
  H   H1013     1.0  0.43154  0.63260  0.90245  1.0000
  H   H1014     1.0  0.07388  0.53249  0.81234  1.0000
  H   H1015     1.0  0.41590  0.62287  0.93542  1.0000
  C   C602      1.0  0.22927  0.66026  0.94589  1.0000
  H   H1016     1.0  0.44507  0.91419  0.88242  1.0000
  H   H1017     1.0  0.29663  0.55323  0.81140  1.0000
  N   N44       1.0  0.09356  0.54856  0.84537  1.0000
  H   H1018     1.0  0.06577  0.56002  0.82994  1.0000
  H   H1019     1.0  0.33394  0.96093  0.76858  1.0000
  H   H1020     1.0  0.26344  0.69318  0.94171  1.0000
  H   H1021     1.0  0.46083  0.52697  0.83073  1.0000
  C   C603      1.0  0.40923  0.98004  0.80703  1.0000
  C   C604      1.0  0.43328  0.53112  0.86590  1.0000
  C   C605      1.0  0.27842  0.54596  0.96629  1.0000
  H   H1022     1.0  0.44030  0.55887  0.82871  1.0000
  H   H1023     1.0  0.29463  0.56516  0.77286  1.0000
  C   C606      1.0  0.24611  0.73201  0.95314  1.0000
  H   H1024     1.0  0.42042  0.81100  0.78313  1.0000
  C   C607      1.0  0.19758  0.69001  0.97872  1.0000
  C   C608      1.0  0.42909  0.81103  0.81173  1.0000
  H   H1025     1.0  0.40586  0.55180  0.83301  1.0000
  H   H1026     1.0  0.39798  0.89600  0.87259  1.0000
  H   H1027     1.0  0.29127  0.63543  0.77456  1.0000
  N   N45       1.0  0.26804  0.77519  0.81866  1.0000
  C   C609      1.0  0.24067  0.76426  0.83109  1.0000
  C   C610      1.0  0.28684  0.78206  0.83186  1.0000
  C   C611      1.0  0.27326  0.75356  0.80929  1.0000
  C   C612      1.0  0.26949  0.79869  0.80362  1.0000
  C   C613      1.0  0.21855  0.75250  0.82080  1.0000
  C   C614      1.0  0.28101  0.80016  0.84541  1.0000
  C   C615      1.0  0.30066  0.75979  0.79654  1.0000
  C   C616      1.0  0.29650  0.82013  0.79593  1.0000
  H   H1028     1.0  0.23959  0.74863  0.84352  1.0000
  H   H1029     1.0  0.23510  0.77977  0.83760  1.0000
  H   H1030     1.0  0.30721  0.79164  0.82365  1.0000
  H   H1031     1.0  0.42692  0.78194  0.79273  1.0000
  C   C617      1.0  0.44630  0.83636  0.84597  1.0000
  H   H1032     1.0  0.26490  0.78882  0.85798  1.0000
  H   H1033     1.0  0.19509  0.71750  0.95442  1.0000
  S   S184      1.0  0.34916  0.53397  0.84528  1.0000
  C   C618      1.0  0.36711  0.57980  0.81789  1.0000
  C   C619      1.0  0.35422  0.55267  0.82193  1.0000
  H   H1034     1.0  0.27589  0.81680  0.83788  1.0000
  H   H1035     1.0  0.29545  0.61623  0.80376  1.0000
  C   C620      1.0  0.35787  0.58343  0.78570  1.0000
  C   C621      1.0  0.36864  0.59518  0.79991  1.0000
  C   C622      1.0  0.29098  0.60099  0.79487  1.0000
  H   H1036     1.0  0.27806  0.64852  0.96158  1.0000
  H   H1037     1.0  0.34065  0.78436  0.84543  1.0000
  H   H1038     1.0  0.40651  0.91315  0.90464  1.0000
  S   S185      1.0  0.38641  0.83525  0.88788  1.0000
  H   H1039     1.0  0.06910  0.50211  0.82941  1.0000
  C   C623      1.0  0.44312  0.96107  0.79718  1.0000
  S   S186      1.0  0.41078  0.56980  0.91891  1.0000
  H   H1040     1.0  0.47824  0.83188  0.81490  1.0000
  H   H1041     1.0  0.25761  0.59425  0.83001  1.0000
  C   C624      1.0  0.35660  0.70334  0.97418  1.0000
  C   C625      1.0  0.24940  0.58232  0.81982  1.0000
  H   H1042     1.0  0.26405  0.63630  0.84890  1.0000
  H   H1043     1.0  0.27241  0.63042  0.87171  1.0000
  C   C626      1.0  0.43101  0.96235  0.85350  1.0000
  C   C627      1.0  0.42246  0.93226  0.89926  1.0000
  H   H1044     1.0  0.33423  0.51974  0.81059  1.0000
  H   H1045     1.0  0.09784  0.58168  0.82278  1.0000
  H   H1046     1.0  0.43841  0.55253  0.86024  1.0000
  C   C628      1.0  0.43245  0.64154  0.93090  1.0000
  C   C629      1.0  0.27871  0.64412  0.85746  1.0000
  H   H1047     1.0  0.04189  0.68052  0.74702  1.0000
  H   H1048     1.0  0.44196  0.84977  0.83462  1.0000
  H   H1049     1.0  0.13060  0.57959  0.84147  1.0000
  C   C630      1.0  0.41451  0.97639  0.86461  1.0000
  N   N46       1.0  0.44206  0.79955  0.82632  1.0000
  H   H1050     1.0  0.43472  0.93432  0.91030  1.0000
  H   H1051     1.0  0.31314  0.72870  0.96815  1.0000
  C   C631      1.0  0.41423  0.51046  0.76943  1.0000
  H   H1052     1.0  0.26837  0.54429  0.83009  1.0000
  H   H1053     1.0  0.30374  0.69463  0.83666  1.0000
  N   N47       1.0  0.27052  0.57618  0.80683  1.0000
  C   C632      1.0  0.38451  0.91732  0.85043  1.0000
  H   H1054     1.0  0.21775  0.70759  0.89938  1.0000
  C   C633      1.0  0.45363  0.68419  0.93949  1.0000
  H   H1055     1.0  0.43906  0.54521  0.79599  1.0000
  S   S187      1.0  0.34761  0.91717  0.74933  1.0000
  C   C634      1.0  0.30053  0.57780  0.83171  1.0000
  C   C635      1.0  0.28508  0.61374  0.77595  1.0000
  H   H1056     1.0  0.33679  0.73151  0.81451  1.0000
  H   H1057     1.0  0.31811  0.68388  0.81704  1.0000
  C   C636      1.0  0.37727  0.83069  0.86593  1.0000
  H   H1058     1.0  0.46773  0.84200  0.84495  1.0000
  H   H1059     1.0  0.42773  0.96433  0.83855  1.0000
  C   C637      1.0  0.39350  0.57060  0.94150  1.0000
  H   H1060     1.0  0.34633  0.72726  0.83714  1.0000
  C   C638      1.0  0.43197  0.49636  0.76937  1.0000
  C   C639      1.0  0.34329  0.71815  0.82448  1.0000
  H   H1061     1.0  0.39481  0.96350  0.87241  1.0000
  H   H1062     1.0  0.24631  0.56595  0.78585  1.0000
  H   H1063     1.0  0.34221  0.64047  0.81612  1.0000
  H   H1064     1.0  0.33465  0.57469  0.96183  1.0000
  H   H1065     1.0  0.03533  0.49908  0.86728  1.0000
  H   H1066     1.0  0.40337  0.86845  0.85026  1.0000
  C   C640      1.0  0.30616  0.64477  0.84733  1.0000
  H   H1067     1.0  0.34968  0.79193  0.87736  1.0000
  C   C641      1.0  0.34351  0.96530  0.78072  1.0000
  H   H1068     1.0  0.31480  0.68884  0.86709  1.0000
  S   S188      1.0  0.00744  0.50140  0.81279  1.0000
  C   C642      1.0  0.28332  0.56153  0.81984  1.0000
  C   C643      1.0  0.38392  0.84637  0.83141  1.0000
  C   C644      1.0  0.38918  0.85044  0.84938  1.0000
  C   C645      1.0  0.35943  0.80700  0.86453  1.0000
  H   H1069     1.0  0.37616  0.65798  0.81203  1.0000
  H   H1070     1.0  0.20279  0.67174  0.98210  1.0000
  C   C646      1.0  0.32998  0.67971  0.86298  1.0000
  C   C647      1.0  0.35632  0.65977  0.81614  1.0000
  H   H1071     1.0  0.40388  0.68484  0.94889  1.0000
  C   C648      1.0  0.32835  0.65854  0.88058  1.0000
  H   H1072     1.0  0.35484  0.67525  0.80478  1.0000
  N   N48       1.0  0.42766  0.93416  0.86221  1.0000
  H   H1073     1.0  0.34134  0.64669  0.87738  1.0000
  C   C649      1.0  0.35341  0.66678  0.83629  1.0000
  S   S189      1.0  0.35805  0.54214  0.74146  1.0000
  H   H1074     1.0  0.33438  0.66825  0.89247  1.0000
  C   C650      1.0  0.35409  0.80286  0.84651  1.0000
  H   H1075     1.0  0.30971  0.59697  0.79049  1.0000
  H   H1076     1.0  0.37033  0.68445  0.83571  1.0000
  N   N49       1.0  0.42873  0.66119  0.94295  1.0000
  H   H1077     1.0  0.23718  0.65870  0.93105  1.0000
  C   C651      1.0  0.45827  0.70717  0.92235  1.0000
  H   H1078     1.0  0.30803  0.64517  0.88629  1.0000
  H   H1079     1.0  0.38747  0.80169  0.96622  1.0000
  H   H1080     1.0  0.39434  0.76058  0.82223  1.0000
  H   H1081     1.0  0.45343  0.81275  0.78354  1.0000
  H   H1082     1.0  0.35675  0.65083  0.84615  1.0000
  H   H1083     1.0  0.39401  0.86144  0.81865  1.0000
  H   H1084     1.0  0.28697  0.73288  0.94294  1.0000
  H   H1085     1.0  0.26671  0.54030  0.76994  1.0000
  H   H1086     1.0  0.43770  0.83959  0.86016  1.0000
  H   H1087     1.0  0.28367  0.76268  0.94872  1.0000
  H   H1088     1.0  0.29034  0.58815  0.84069  1.0000
  C   C652      1.0  0.27695  0.54880  0.78087  1.0000
  C   C653      1.0  0.17916  0.60394  0.95401  1.0000
  C   C654      1.0  0.11672  0.56314  0.85296  1.0000
  H   H1089     1.0  0.39369  0.52020  0.86125  1.0000
  H   H1090     1.0  0.06431  0.59827  0.84093  1.0000
  H   H1091     1.0  0.25234  0.71753  0.91643  1.0000
  H   H1092     1.0  0.40447  0.54185  0.80062  1.0000
  Fe  Fe92      1.0  0.36033  0.58438  0.73844  1.0000
  C   C655      1.0  0.08314  0.56892  0.83569  1.0000
  C   C656      1.0  0.13285  0.54659  0.86119  1.0000
  C   C657      1.0  0.02932  0.64130  0.74171  1.0000
  H   H1093     1.0  0.29718  0.61033  0.76319  1.0000
  H   H1094     1.0  0.38066  0.50880  0.82718  1.0000
  H   H1095     1.0  0.27616  0.75445  0.92669  1.0000
  H   H1096     1.0  0.35745  0.95403  0.78207  1.0000
  H   H1097     1.0  0.04213  0.52058  0.84455  1.0000
  C   C658      1.0  0.41490  0.52756  0.75252  1.0000
  H   H1098     1.0  0.20965  0.67943  0.91817  1.0000
  H   H1099     1.0  0.37975  0.63431  0.93398  1.0000
  H   H1100     1.0  0.07939  0.51107  0.86567  1.0000
  C   C659      1.0  0.42356  0.55114  0.80426  1.0000
  H   H1101     1.0  0.98399  0.63647  0.76714  1.0000
  C   C660      1.0  0.43720  0.65035  0.90880  1.0000
  H   H1102     1.0  0.14675  0.55858  0.86869  1.0000
  C   C661      1.0  0.43427  0.80713  0.84526  1.0000
  H   H1103     1.0  0.38759  0.92182  0.87907  1.0000
  H   H1104     1.0  0.03347  0.53119  0.86669  1.0000
  H   H1105     1.0  0.41410  0.94857  0.89851  1.0000
  H   H1106     1.0  0.45171  0.97491  0.85154  1.0000
  H   H1107     1.0  0.42822  0.57269  0.79918  1.0000
  C   C662      1.0  0.41659  0.95882  0.80196  1.0000
  H   H1108     1.0  0.40980  0.68208  0.92448  1.0000
  H   H1109     1.0  0.07306  0.53753  0.87524  1.0000
  C   C663      1.0  0.47128  0.80999  0.81889  1.0000
  H   H1110     1.0  0.18962  0.68517  0.95112  1.0000
  H   H1111     1.0  0.31554  0.68970  0.97538  1.0000
  C   C664      1.0  0.23304  0.71698  0.92462  1.0000
  H   H1112     1.0  0.24542  0.68375  0.96541  1.0000
  S   S190      1.0  0.41621  0.76443  0.96630  1.0000
  H   H1113     1.0  0.23228  0.73744  0.92112  1.0000
  C   C665      1.0  0.40541  0.57183  0.95749  1.0000
  H   H1114     1.0  0.44530  0.71906  0.92565  1.0000
  C   C666      1.0  0.27476  0.74598  0.94207  1.0000
  C   C667      1.0  0.45116  0.50044  0.75282  1.0000
  H   H1115     1.0  0.31858  0.59226  0.82230  1.0000
  H   H1116     1.0  0.99405  0.63043  0.79911  1.0000
  H   H1117     1.0  0.39221  0.90890  0.83852  1.0000
  H   H1118     1.0  0.38174  0.97495  0.75175  1.0000
  H   H1119     1.0  0.38439  0.93741  0.84461  1.0000
  H   H1120     1.0  0.26030  0.57310  0.95401  1.0000
  Fe  Fe93      1.0  0.42142  0.87803  0.74692  1.0000
  H   H1121     1.0  0.28738  0.62665  0.94795  1.0000
  H   H1122     1.0  0.30682  0.56421  0.84169  1.0000
  H   H1123     1.0  0.45817  0.66132  0.90248  1.0000
  C   C668      1.0  0.45683  0.71946  0.85564  1.0000
  H   H1124     1.0  0.43628  0.83286  0.80892  1.0000
  H   H1125     1.0  0.21808  0.59953  0.82129  1.0000
  H   H1126     1.0  0.47655  0.95800  0.83288  1.0000
  H   H1127     1.0  0.29033  0.54317  0.97714  1.0000
  H   H1128     1.0  0.28907  0.54408  0.95228  1.0000
  H   H1129     1.0  0.40296  0.98711  0.76669  1.0000
  Fe  Fe94      1.0  0.04973  0.54752  0.74330  1.0000
  H   H1130     1.0  0.44715  0.51231  0.81310  1.0000
  H   H1131     1.0  0.42596  0.52783  0.88176  1.0000
  H   H1132     1.0  0.35157  0.98096  0.73723  1.0000
  H   H1133     1.0  0.46537  0.49010  0.75290  1.0000
  C   C669      1.0  0.36607  0.57516  0.97668  1.0000
  H   H1134     1.0  0.32373  0.76053  0.97265  1.0000
  H   H1135     1.0  0.98326  0.59019  0.77772  1.0000
  H   H1136     1.0  0.47684  0.80352  0.80528  1.0000
  C   C670      1.0  0.39594  0.49931  0.82888  1.0000
  C   C671      1.0  0.03450  0.66854  0.73709  1.0000
  H   H1137     1.0  0.36955  0.49283  0.73949  1.0000
  H   H1138     1.0  0.40657  0.49410  0.86514  1.0000
  C   C672      1.0  0.31220  0.73984  0.97979  1.0000
  C   C673      1.0  0.46222  0.98453  0.79730  1.0000
  H   H1139     1.0  0.37142  0.70075  0.98261  1.0000
  C   C674      1.0  0.38597  0.79233  0.98099  1.0000
  H   H1140     1.0  0.42507  0.98644  0.87480  1.0000
  H   H1141     1.0  0.30666  0.59366  0.98333  1.0000
  H   H1142     1.0  0.50455  0.26489  0.09529  1.0000
  S   S191      1.0  0.60041  0.47440  0.19370  1.0000
  H   H1143     1.0  0.64232  0.45260  0.05178  1.0000
  Fe  Fe95      1.0  0.78416  0.46559  0.21875  1.0000
  S   S192      1.0  0.75066  0.45523  0.20336  1.0000
  C   C675      1.0  0.57306  0.18196  0.13094  1.0000
  H   H1144     1.0  0.65630  0.46980  0.16241  1.0000
  C   C676      1.0  0.57216  0.11712  0.01750  1.0000
  S   S193      1.0  0.51400  0.35085  0.09293  1.0000
  S   S194      1.0  0.53986  0.35030  0.04818  1.0000
  Fe  Fe96      1.0  0.50134  0.35004  0.06469  1.0000
  C   C677      1.0  0.77451  0.38925  0.01098  1.0000
  H   H1145     1.0  0.57174  0.24434  0.12641  1.0000
  S   S195      1.0  0.57715  0.32996  0.08598  1.0000
  S   S196      1.0  0.62418  0.26891  0.04216  1.0000
  Fe  Fe97      1.0  0.74358  0.37253  0.12593  1.0000
  S   S197      1.0  0.74887  0.41020  0.10550  1.0000
  S   S198      1.0  0.75743  0.36955  0.15391  1.0000
  Fe  Fe98      1.0  0.71843  0.33827  0.09959  1.0000
  S   S199      1.0  0.72181  0.37288  0.07660  1.0000
  S   S200      1.0  0.70121  0.29550  0.09870  1.0000
  Fe  Fe99      1.0  0.76158  0.39009  0.08237  1.0000
  S   S201      1.0  0.79747  0.41091  0.05923  1.0000
  Fe  Fe100     1.0  0.70863  0.38966  0.10163  1.0000
  S   S202      1.0  0.67752  0.40887  0.10173  1.0000
  S   S203      1.0  0.75978  0.35396  0.10311  1.0000
  S   S204      1.0  0.70191  0.35371  0.12425  1.0000
  H   H1146     1.0  0.56531  0.09873  0.02800  1.0000
  S   S205      1.0  0.50011  0.04482  0.23125  1.0000
  C   C678      1.0  0.52831  0.32857  0.99207  1.0000
  H   H1147     1.0  0.48698  0.21416  0.08492  1.0000
  C   C679      1.0  0.63472  0.40764  0.99506  1.0000
  H   H1148     1.0  0.65977  0.37787  0.16752  1.0000
  Fe  Fe101     1.0  0.84313  0.48256  0.21416  1.0000
  H   H1149     1.0  0.59608  0.25136  0.09202  1.0000
  C   C680      1.0  0.50321  0.05439  0.14558  1.0000
  C   C681      1.0  0.49378  0.15807  0.02748  1.0000
  H   H1150     1.0  0.62249  0.44223  0.13628  1.0000
  H   H1151     1.0  0.62901  0.43171  0.02578  1.0000
  C   C682      1.0  0.64516  0.27587  0.05816  1.0000
  C   C683      1.0  0.65846  0.30209  0.05804  1.0000
  C   C684      1.0  0.67510  0.30831  0.07085  1.0000
  C   C685      1.0  0.67898  0.28824  0.08354  1.0000
  C   C686      1.0  0.66588  0.26191  0.08354  1.0000
  C   C687      1.0  0.64883  0.25570  0.07094  1.0000
  H   H1152     1.0  0.65555  0.31758  0.04821  1.0000
  H   H1153     1.0  0.68505  0.32859  0.07073  1.0000
  H   H1154     1.0  0.66902  0.24630  0.09324  1.0000
  H   H1155     1.0  0.63885  0.23537  0.07093  1.0000
  C   C688      1.0  0.50376  0.26741  0.05512  1.0000
  H   H1156     1.0  0.79396  0.43342  0.12892  1.0000
  S   S206      1.0  0.81186  0.44345  0.22557  1.0000
  H   H1157     1.0  0.52232  0.26582  0.05716  1.0000
  H   H1158     1.0  0.50826  0.30138  0.06780  1.0000
  C   C689      1.0  0.60429  0.35071  0.09214  1.0000
  C   C690      1.0  0.62766  0.34469  0.09046  1.0000
  C   C691      1.0  0.64992  0.36210  0.09419  1.0000
  C   C692      1.0  0.64906  0.38595  0.09897  1.0000
  C   C693      1.0  0.62552  0.39168  0.10112  1.0000
  C   C694      1.0  0.60305  0.37388  0.09795  1.0000
  H   H1159     1.0  0.62873  0.32688  0.08586  1.0000
  H   H1160     1.0  0.66785  0.35729  0.09287  1.0000
  H   H1161     1.0  0.62463  0.40992  0.10511  1.0000
  H   H1162     1.0  0.58479  0.37814  0.09999  1.0000
  H   H1163     1.0  0.48584  0.48100  0.15415  1.0000
  C   C695      1.0  0.82060  0.39420  0.00787  1.0000
  C   C696      1.0  0.82025  0.40202  0.02559  1.0000
  C   C697      1.0  0.79694  0.40268  0.03646  1.0000
  C   C698      1.0  0.77399  0.39644  0.02913  1.0000
  H   H1164     1.0  0.52034  0.10492  0.00839  1.0000
  H   H1165     1.0  0.90336  0.48110  0.14585  1.0000
  H   H1166     1.0  0.83802  0.40697  0.03111  1.0000
  H   H1167     1.0  0.75603  0.39739  0.03733  1.0000
  H   H1168     1.0  0.49194  0.27210  0.98748  1.0000
  C   C699      1.0  0.75094  0.43029  0.19039  1.0000
  C   C700      1.0  0.76154  0.41065  0.19644  1.0000
  C   C701      1.0  0.76255  0.39149  0.18546  1.0000
  C   C702      1.0  0.75322  0.39206  0.16830  1.0000
  C   C703      1.0  0.74218  0.41145  0.16240  1.0000
  C   C704      1.0  0.74107  0.43054  0.17347  1.0000
  H   H1169     1.0  0.76887  0.41012  0.20962  1.0000
  H   H1170     1.0  0.77095  0.37640  0.19011  1.0000
  H   H1171     1.0  0.73509  0.41204  0.14912  1.0000
  H   H1172     1.0  0.73338  0.44602  0.16863  1.0000
  H   H1173     1.0  0.66428  0.45582  0.19179  1.0000
  H   H1174     1.0  0.61563  0.39170  0.99980  1.0000
  H   H1175     1.0  0.79191  0.48310  0.15676  1.0000
  H   H1176     1.0  0.80628  0.47983  0.13348  1.0000
  H   H1177     1.0  0.67391  0.41831  0.00027  1.0000
  S   S207      1.0  0.56724  0.39848  0.06795  1.0000
  S   S208      1.0  0.56297  0.13969  0.04822  1.0000
  N   N50       1.0  0.75906  0.30725  0.03689  1.0000
  C   C705      1.0  0.76979  0.33026  0.04603  1.0000
  C   C706      1.0  0.74804  0.31679  0.02017  1.0000
  C   C707      1.0  0.78013  0.29618  0.02944  1.0000
  C   C708      1.0  0.73829  0.28601  0.05192  1.0000
  C   C709      1.0  0.78435  0.32534  0.06228  1.0000
  C   C710      1.0  0.72195  0.32240  0.02563  1.0000
  H   H1178     1.0  0.51345  0.27963  0.12638  1.0000
  C   C711      1.0  0.72418  0.26112  0.04497  1.0000
  H   H1179     1.0  0.78345  0.34723  0.03499  1.0000
  H   H1180     1.0  0.75389  0.33749  0.05235  1.0000
  H   H1181     1.0  0.74534  0.30289  0.01016  1.0000
  H   H1182     1.0  0.76220  0.33526  0.01095  1.0000
  H   H1183     1.0  0.78698  0.28662  0.04155  1.0000
  H   H1184     1.0  0.77220  0.28014  0.02186  1.0000
  H   H1185     1.0  0.74670  0.27894  0.06404  1.0000
  H   H1186     1.0  0.72346  0.29381  0.05906  1.0000
  H   H1187     1.0  0.79237  0.34426  0.06681  1.0000
  H   H1188     1.0  0.77101  0.31132  0.07529  1.0000
  H   H1189     1.0  0.80129  0.31876  0.05750  1.0000
  H   H1190     1.0  0.71738  0.33203  0.01240  1.0000
  H   H1191     1.0  0.70548  0.30393  0.03180  1.0000
  H   H1192     1.0  0.72286  0.33596  0.03580  1.0000
  N   N51       1.0  0.83664  0.44854  0.14894  1.0000
  H   H1193     1.0  0.83863  0.39301  0.99986  1.0000
  H   H1194     1.0  0.59053  0.30343  0.00952  1.0000
  H   H1195     1.0  0.73412  0.24601  0.04721  1.0000
  H   H1196     1.0  0.72290  0.26495  0.02961  1.0000
  H   H1197     1.0  0.70361  0.25281  0.05326  1.0000
  H   H1198     1.0  0.69626  0.38672  0.01612  1.0000
  H   H1199     1.0  0.62775  0.40075  0.16209  1.0000
  H   H1200     1.0  0.51104  0.42484  0.16574  1.0000
  H   H1201     1.0  0.63361  0.30460  0.00851  1.0000
  H   H1202     1.0  0.53571  0.30532  0.02523  1.0000
  C   C712      1.0  0.56251  0.43739  0.14562  1.0000
  C   C713      1.0  0.53068  0.39522  0.99792  1.0000
  H   H1203     1.0  0.85338  0.44118  0.12170  1.0000
  C   C714      1.0  0.55945  0.39297  0.14225  1.0000
  H   H1204     1.0  0.86413  0.48806  0.13874  1.0000
  Fe  Fe102     1.0  0.52742  0.44151  0.22105  1.0000
  H   H1205     1.0  0.65509  0.41190  0.18529  1.0000
  H   H1206     1.0  0.50995  0.23506  0.10389  1.0000
  H   H1207     1.0  0.66874  0.31209  0.00657  1.0000
  H   H1208     1.0  0.67876  0.39199  0.14316  1.0000
  H   H1209     1.0  0.88712  0.44812  0.15865  1.0000
  C   C715      1.0  0.59251  0.99387  0.22761  1.0000
  H   H1210     1.0  0.58615  0.27826  0.09805  1.0000
  H   H1211     1.0  0.59651  0.30392  0.11995  1.0000
  C   C716      1.0  0.80434  0.31603  0.01510  1.0000
  H   H1212     1.0  0.49196  0.39222  0.19620  1.0000
  C   C717      1.0  0.58926  0.16440  0.99002  1.0000
  H   H1213     1.0  0.51357  0.12700  0.10724  1.0000
  H   H1214     1.0  0.48272  0.44053  0.18829  1.0000
  C   C718      1.0  0.49181  0.38589  0.18217  1.0000
  C   C719      1.0  0.50279  0.32046  0.00758  1.0000
  H   H1215     1.0  0.61987  0.27958  0.09560  1.0000
  N   N52       1.0  0.66347  0.43407  0.15596  1.0000
  C   C720      1.0  0.64703  0.40870  0.15175  1.0000
  C   C721      1.0  0.64635  0.45132  0.15817  1.0000
  C   C722      1.0  0.67171  0.42720  0.17471  1.0000
  C   C723      1.0  0.68681  0.44629  0.13935  1.0000
  H   H1216     1.0  0.57288  0.29601  0.03379  1.0000
  C   C724      1.0  0.63589  0.45937  0.14018  1.0000
  H   H1217     1.0  0.81704  0.40673  0.15947  1.0000
  H   H1218     1.0  0.60425  0.10235  0.12416  1.0000
  H   H1219     1.0  0.59637  0.34217  0.03772  1.0000
  H   H1220     1.0  0.64244  0.41201  0.13717  1.0000
  H   H1221     1.0  0.50465  0.13453  0.13021  1.0000
  H   H1222     1.0  0.62926  0.44138  0.17037  1.0000
  C   C725      1.0  0.66900  0.39597  0.03792  1.0000
  H   H1223     1.0  0.69990  0.43393  0.13888  1.0000
  H   H1224     1.0  0.68072  0.44646  0.12523  1.0000
  H   H1225     1.0  0.56970  0.28364  0.13815  1.0000
  H   H1226     1.0  0.71199  0.48254  0.21906  1.0000
  H   H1227     1.0  0.65195  0.47039  0.12756  1.0000
  H   H1228     1.0  0.66439  0.27151  0.00396  1.0000
  H   H1229     1.0  0.52074  0.24911  0.13338  1.0000
  H   H1230     1.0  0.66853  0.35865  0.02862  1.0000
  C   C726      1.0  0.56145  0.08590  0.13102  1.0000
  H   H1231     1.0  0.60790  0.03642  0.21781  1.0000
  C   C727      1.0  0.83685  0.41993  0.18128  1.0000
  H   H1232     1.0  0.58736  0.02082  0.20326  1.0000
  C   C728      1.0  0.64613  0.42795  0.03089  1.0000
  C   C729      1.0  0.55057  0.10190  0.09977  1.0000
  H   H1233     1.0  0.65799  0.38433  0.00350  1.0000
  H   H1234     1.0  0.51947  0.27231  0.00811  1.0000
  C   C730      1.0  0.64349  0.43248  0.05183  1.0000
  H   H1235     1.0  0.48187  0.01822  0.19811  1.0000
  H   H1236     1.0  0.49676  0.37860  0.98648  1.0000
  C   C731      1.0  0.88674  0.46319  0.14645  1.0000
  H   H1237     1.0  0.66376  0.44393  0.02201  1.0000
  H   H1238     1.0  0.53359  0.14260  0.18194  1.0000
  N   N53       1.0  0.54531  0.31119  0.99403  1.0000
  H   H1239     1.0  0.62536  0.34229  0.04671  1.0000
  C   C732      1.0  0.65482  0.40262  0.00677  1.0000
  H   H1240     1.0  0.79912  0.32452  0.00180  1.0000
  H   H1241     1.0  0.53965  0.34898  0.99256  1.0000
  C   C733      1.0  0.56646  0.41346  0.15212  1.0000
  C   C734      1.0  0.58709  0.10907  0.12806  1.0000
  H   H1242     1.0  0.62534  0.41872  0.06155  1.0000
  H   H1243     1.0  0.57085  0.09466  0.07355  1.0000
  H   H1244     1.0  0.85107  0.41496  0.15236  1.0000
  S   S209      1.0  0.57894  0.40853  0.17307  1.0000
  Fe  Fe103     1.0  0.56055  0.17766  0.05576  1.0000
  H   H1245     1.0  0.52703  0.10683  0.14600  1.0000
  H   H1246     1.0  0.62032  0.32321  0.14344  1.0000
  C   C735      1.0  0.61765  0.35262  0.03557  1.0000
  H   H1247     1.0  0.56287  0.37458  0.14700  1.0000
  H   H1248     1.0  0.67057  0.29695  0.13731  1.0000
  H   H1249     1.0  0.55402  0.07945  0.14693  1.0000
  C   C736      1.0  0.53293  0.16685  0.15539  1.0000
  N   N54       1.0  0.50310  0.15974  0.99033  1.0000
  S   S210      1.0  0.55186  0.48058  0.22469  1.0000
  H   H1250     1.0  0.58565  0.18277  0.01445  1.0000
  Fe  Fe104     1.0  0.58810  0.23443  0.05460  1.0000
  H   H1251     1.0  0.56904  0.45375  0.15252  1.0000
  C   C737      1.0  0.54698  0.18068  0.13689  1.0000
  S   S211      1.0  0.53950  0.45234  0.18893  1.0000
  H   H1252     1.0  0.50336  0.06925  0.11585  1.0000
  H   H1253     1.0  0.61728  0.38024  0.05344  1.0000
  S   S212      1.0  0.53153  0.19635  0.12156  1.0000
  H   H1254     1.0  0.64374  0.29914  0.15407  1.0000
  S   S213      1.0  0.52261  0.17817  0.07270  1.0000
  S   S214      1.0  0.52272  0.42173  0.10346  1.0000
  H   H1255     1.0  0.50956  0.37984  0.17885  1.0000
  H   H1256     1.0  0.75687  0.38428  0.00532  1.0000
  Fe  Fe105     1.0  0.49591  0.08061  0.21392  1.0000
  C   C738      1.0  0.59940  0.26665  0.10086  1.0000
  H   H1257     1.0  0.66057  0.43130  0.05810  1.0000
  C   C739      1.0  0.57085  0.15516  0.16196  1.0000
  H   H1258     1.0  0.49802  0.40275  0.15180  1.0000
  H   H1259     1.0  0.53951  0.27278  0.11224  1.0000
  H   H1260     1.0  0.84654  0.43890  0.18494  1.0000
  H   H1261     1.0  0.50820  0.47520  0.13586  1.0000
  H   H1262     1.0  0.56284  0.12299  0.09628  1.0000
  C   C740      1.0  0.59920  0.31179  0.14782  1.0000
  C   C741      1.0  0.53688  0.20362  0.99210  1.0000
  S   S215      1.0  0.53208  0.00928  0.19674  1.0000
  Fe  Fe106     1.0  0.55424  0.10517  0.19851  1.0000
  C   C742      1.0  0.58313  0.16445  0.00984  1.0000
  C   C743      1.0  0.50718  0.11385  0.00149  1.0000
  H   H1263     1.0  0.60133  0.23626  0.12323  1.0000
  N   N55       1.0  0.54056  0.09170  0.12130  1.0000
  C   C744      1.0  0.86103  0.46996  0.14972  1.0000
  H   H1264     1.0  0.81490  0.33212  0.02160  1.0000
  C   C745      1.0  0.53151  0.28292  0.99352  1.0000
  H   H1265     1.0  0.56176  0.27440  0.01833  1.0000
  S   S216      1.0  0.56638  0.21443  0.03420  1.0000
  C   C746      1.0  0.59339  0.25307  0.12235  1.0000
  H   H1266     1.0  0.56645  0.06877  0.12668  1.0000
  H   H1267     1.0  0.48190  0.43449  0.13624  1.0000
  S   S217      1.0  0.55280  0.24051  0.07118  1.0000
  S   S218      1.0  0.56382  0.07169  0.21486  1.0000
  H   H1268     1.0  0.58915  0.12614  0.11663  1.0000
  H   H1269     1.0  0.80899  0.40761  0.13018  1.0000
  H   H1270     1.0  0.63899  0.30057  0.11819  1.0000
  Fe  Fe107     1.0  0.55320  0.35446  0.07575  1.0000
  C   C747      1.0  0.81312  0.45490  0.15822  1.0000
  H   H1271     1.0  0.85902  0.47653  0.16367  1.0000
  C   C748      1.0  0.57903  0.11711  0.99782  1.0000
  C   C749      1.0  0.81189  0.42848  0.12391  1.0000
  C   C750      1.0  0.56641  0.08668  0.08937  1.0000
  C   C751      1.0  0.83562  0.42201  0.15969  1.0000
  H   H1272     1.0  0.62420  0.47251  0.14345  1.0000
  H   H1273     1.0  0.61933  0.26102  0.00340  1.0000
  H   H1274     1.0  0.68530  0.41457  0.03653  1.0000
  C   C752      1.0  0.50157  0.25003  0.10861  1.0000
  S   S219      1.0  0.52706  0.10931  0.22395  1.0000
  H   H1275     1.0  0.64927  0.26789  0.15349  1.0000
  H   H1276     1.0  0.51275  0.17306  0.02671  1.0000
  C   C753      1.0  0.66689  0.24167  0.98865  1.0000
  C   C754      1.0  0.51805  0.06654  0.12445  1.0000
  H   H1277     1.0  0.50663  0.32707  0.02106  1.0000
  C   C755      1.0  0.68252  0.37702  0.03024  1.0000
  C   C756      1.0  0.83670  0.44735  0.12802  1.0000
  Fe  Fe108     1.0  0.57173  0.43572  0.19255  1.0000
  H   H1278     1.0  0.68758  0.41820  0.17244  1.0000
  C   C757      1.0  0.55796  0.40606  0.99395  1.0000
  S   S220      1.0  0.51015  0.39385  0.05616  1.0000
  H   H1279     1.0  0.62620  0.35089  0.02101  1.0000
  H   H1280     1.0  0.48858  0.10905  0.01217  1.0000
  H   H1281     1.0  0.64638  0.36981  0.14719  1.0000
  H   H1282     1.0  0.51273  0.16580  0.16003  1.0000
  H   H1283     1.0  0.49070  0.10189  0.12703  1.0000
  C   C758      1.0  0.59140  0.29199  0.13485  1.0000
  N   N56       1.0  0.60375  0.27042  0.13581  1.0000
  Fe  Fe109     1.0  0.54991  0.39394  0.04188  1.0000
  Fe  Fe110     1.0  0.54758  0.20171  0.08992  1.0000
  C   C759      1.0  0.57060  0.29542  0.01869  1.0000
  C   C760      1.0  0.54156  0.41920  0.12098  1.0000
  H   H1284     1.0  0.64118  0.26835  0.12128  1.0000
  H   H1285     1.0  0.56483  0.22881  0.17948  1.0000
  H   H1286     1.0  0.60537  0.17066  0.13910  1.0000
  C   C761      1.0  0.63329  0.28173  0.12901  1.0000
  C   C762      1.0  0.54703  0.39585  0.12668  1.0000
  H   H1287     1.0  0.64800  0.22780  0.99743  1.0000
  C   C763      1.0  0.79783  0.38770  0.00053  1.0000
  H   H1288     1.0  0.48669  0.03659  0.14581  1.0000
  H   H1289     1.0  0.54602  0.27252  0.99018  1.0000
  H   H1290     1.0  0.69434  0.37162  0.04051  1.0000
  C   C764      1.0  0.54980  0.44015  0.13023  1.0000
  C   C765      1.0  0.57381  0.14073  0.02356  1.0000
  C   C766      1.0  0.58515  0.16960  0.14363  1.0000
  H   H1291     1.0  0.58399  0.19258  0.11667  1.0000
  H   H1292     1.0  0.89030  0.45657  0.13268  1.0000
  H   H1293     1.0  0.60602  0.23759  0.15596  1.0000
  Fe  Fe111     1.0  0.53051  0.21675  0.05269  1.0000
  C   C767      1.0  0.59660  0.25335  0.15583  1.0000
  S   S221      1.0  0.58504  0.19747  0.07499  1.0000
  S   S222      1.0  0.58539  0.13815  0.17721  1.0000
  H   H1294     1.0  0.55810  0.22443  0.15661  1.0000
  H   H1295     1.0  0.66226  0.45928  0.22758  1.0000
  C   C768      1.0  0.56712  0.23955  0.16448  1.0000
  C   C769      1.0  0.64976  0.28671  0.14457  1.0000
  H   H1296     1.0  0.54617  0.45845  0.12558  1.0000
  H   H1297     1.0  0.51942  0.39303  0.01226  1.0000
  C   C770      1.0  0.50888  0.11899  0.12303  1.0000
  H   H1298     1.0  0.79499  0.43867  0.15913  1.0000
  H   H1299     1.0  0.58843  0.32626  0.14597  1.0000
  H   H1300     1.0  0.66135  0.38830  0.05375  1.0000
  H   H1301     1.0  0.81836  0.30564  0.01056  1.0000
  S   S223      1.0  0.57428  0.41492  0.01241  1.0000
  H   H1302     1.0  0.81689  0.41171  0.19058  1.0000
  C   C771      1.0  0.68089  0.44957  0.18552  1.0000
  Fe  Fe112     1.0  0.52980  0.04641  0.20549  1.0000
  H   H1303     1.0  0.52481  0.20916  0.00367  1.0000
  H   H1304     1.0  0.60417  0.26478  0.16648  1.0000
  H   H1305     1.0  0.50888  0.46481  0.16041  1.0000
  C   C772      1.0  0.55321  0.31219  0.01326  1.0000
  Fe  Fe113     1.0  0.52674  0.39475  0.08303  1.0000
  H   H1306     1.0  0.59398  0.30221  0.16333  1.0000
  H   H1307     1.0  0.81364  0.45642  0.17351  1.0000
  N   N57       1.0  0.64776  0.40130  0.02824  1.0000
  S   S224      1.0  0.55776  0.42179  0.22476  1.0000
  H   H1308     1.0  0.55603  0.25367  0.16544  1.0000
  H   H1309     1.0  0.69681  0.46675  0.17650  1.0000
  H   H1310     1.0  0.54090  0.37966  0.11954  1.0000
  H   H1311     1.0  0.53406  0.10170  0.09234  1.0000
  H   H1312     1.0  0.48244  0.20341  0.12985  1.0000
  H   H1313     1.0  0.58551  0.08929  0.09366  1.0000
  C   C773      1.0  0.49612  0.28818  0.06062  1.0000
  H   H1314     1.0  0.55539  0.06545  0.09177  1.0000
  C   C774      1.0  0.65901  0.38606  0.15254  1.0000
  C   C775      1.0  0.62146  0.38122  0.03762  1.0000
  H   H1315     1.0  0.58846  0.11625  0.14170  1.0000
  H   H1316     1.0  0.54847  0.13109  0.12661  1.0000
  H   H1317     1.0  0.65540  0.33675  0.99821  1.0000
  H   H1318     1.0  0.56357  0.33288  0.01402  1.0000
  C   C776      1.0  0.65311  0.31558  0.99938  1.0000
  C   C777      1.0  0.62181  0.26581  0.98740  1.0000
  H   H1319     1.0  0.60511  0.38714  0.03291  1.0000
  C   C778      1.0  0.54471  0.15371  0.16779  1.0000
  S   S225      1.0  0.52254  0.07953  0.18704  1.0000
  C   C779      1.0  0.60272  0.01876  0.21130  1.0000
  C   C780      1.0  0.53203  0.11231  0.12994  1.0000
  C   C781      1.0  0.51938  0.26353  0.12121  1.0000
  H   H1320     1.0  0.72141  0.47387  0.14554  1.0000
  H   H1321     1.0  0.51573  0.04768  0.15463  1.0000
  H   H1322     1.0  0.62052  0.01936  0.20112  1.0000
  C   C782      1.0  0.49558  0.46647  0.15050  1.0000
  H   H1323     1.0  0.84836  0.40680  0.18525  1.0000
  H   H1324     1.0  0.83996  0.46717  0.11915  1.0000
  C   C783      1.0  0.52085  0.14377  0.99452  1.0000
  S   S226      1.0  0.49800  0.22395  0.03913  1.0000
  H   H1325     1.0  0.49530  0.13838  0.03274  1.0000
  H   H1326     1.0  0.68874  0.44208  0.19784  1.0000
  H   H1327     1.0  0.48323  0.29264  0.10275  1.0000
  S   S227      1.0  0.88112  0.48491  0.19556  1.0000
  H   H1328     1.0  0.49451  0.06787  0.15233  1.0000
  H   H1329     1.0  0.68240  0.23753  0.99574  1.0000
  H   H1330     1.0  0.81414  0.43006  0.10804  1.0000
  H   H1331     1.0  0.53189  0.15050  0.00550  1.0000
  H   H1332     1.0  0.54982  0.19360  0.99805  1.0000
  Fe  Fe114     1.0  0.58351  0.46215  0.22563  1.0000
  H   H1333     1.0  0.71265  0.48473  0.12334  1.0000
  H   H1334     1.0  0.52495  0.05098  0.11909  1.0000
  H   H1335     1.0  0.57766  0.09874  0.99322  1.0000
  C   C784      1.0  0.48422  0.15973  0.00823  1.0000
  H   H1336     1.0  0.48521  0.23412  0.15539  1.0000
  C   C785      1.0  0.48794  0.24963  0.04636  1.0000
  H   H1337     1.0  0.63191  0.42700  0.99548  1.0000
  C   C786      1.0  0.66829  0.27047  0.98845  1.0000
  H   H1338     1.0  0.94076  0.48627  0.22258  1.0000
  C   C787      1.0  0.70464  0.47439  0.13869  1.0000
  H   H1339     1.0  0.49244  0.29905  0.01093  1.0000
  C   C788      1.0  0.49333  0.40862  0.16579  1.0000
  H   H1340     1.0  0.59494  0.22591  0.99329  1.0000
  H   H1341     1.0  0.50331  0.10440  0.98906  1.0000
  H   H1342     1.0  0.48922  0.33041  0.00236  1.0000
  S   S228      1.0  0.48379  0.42556  0.23179  1.0000
  C   C789      1.0  0.80959  0.48053  0.14830  1.0000
  H   H1343     1.0  0.69457  0.48699  0.14516  1.0000
  H   H1344     1.0  0.60940  0.27845  0.98455  1.0000
  S   S229      1.0  0.90596  0.11595  0.43063  1.0000
  Fe  Fe115     1.0  0.78093  0.03164  0.40202  1.0000
  S   S230      1.0  0.74221  0.01672  0.42315  1.0000
  S   S231      1.0  0.80469  0.07478  0.39676  1.0000
  C   C790      1.0  0.86190  0.46320  0.32680  1.0000
  H   H1345     1.0  0.85629  0.30533  0.35154  1.0000
  H   H1346     1.0  0.89015  0.31693  0.35175  1.0000
  S   S232      1.0  0.68743  0.99714  0.39451  1.0000
  C   C791      1.0  0.90828  0.46882  0.36086  1.0000
  H   H1347     1.0  0.49304  0.48428  0.34395  1.0000
  H   H1348     1.0  0.49155  0.40484  0.29940  1.0000
  H   H1349     1.0  0.94106  0.21816  0.46889  1.0000
  H   H1350     1.0  0.53449  0.00035  0.26256  1.0000
  H   H1351     1.0  0.84776  0.12320  0.47278  1.0000
  S   S233      1.0  0.92319  0.43657  0.31664  1.0000
  H   H1352     1.0  0.82797  0.09454  0.44225  1.0000
  H   H1353     1.0  0.93234  0.33463  0.32325  1.0000
  Fe  Fe116     1.0  0.96992  0.20068  0.43470  1.0000
  H   H1354     1.0  0.91806  0.43515  0.25094  1.0000
  S   S234      1.0  0.80671  0.43493  0.28310  1.0000
  C   C792      1.0  0.83600  0.12134  0.46144  1.0000
  C   C793      1.0  0.92211  0.29348  0.38098  1.0000
  S   S235      1.0  0.89586  0.38270  0.28874  1.0000
  S   S236      1.0  0.79385  0.99756  0.41300  1.0000
  C   C794      1.0  0.95360  0.30938  0.31340  1.0000
  S   S237      1.0  0.94482  0.18186  0.38936  1.0000
  C   C795      1.0  0.73056  0.99399  0.47778  1.0000
  S   S238      1.0  0.97419  0.16567  0.42349  1.0000
  H   H1355     1.0  0.86403  0.46378  0.31112  1.0000
  H   H1356     1.0  0.68153  0.46590  0.26529  1.0000
  H   H1357     1.0  0.95090  0.28854  0.31261  1.0000
  H   H1358     1.0  0.62585  0.01288  0.32570  1.0000
  H   H1359     1.0  0.94444  0.46766  0.34459  1.0000
  H   H1360     1.0  0.66953  0.05887  0.28413  1.0000
  C   C796      1.0  0.51826  0.47746  0.29460  1.0000
  H   H1361     1.0  0.81910  0.12833  0.46509  1.0000
  C   C797      1.0  0.55543  0.04704  0.27581  1.0000
  C   C798      1.0  0.54882  0.02847  0.29314  1.0000
  H   H1362     1.0  0.70294  0.03648  0.35734  1.0000
  H   H1363     1.0  0.93708  0.32524  0.41804  1.0000
  C   C799      1.0  0.59513  0.03609  0.26665  1.0000
  C   C800      1.0  0.57856  0.05079  0.26253  1.0000
  H   H1364     1.0  0.53109  0.02571  0.30347  1.0000
  N   N58       1.0  0.90512  0.30455  0.31318  1.0000
  C   C801      1.0  0.91284  0.32116  0.29295  1.0000
  H   H1365     1.0  0.60631  0.99707  0.23761  1.0000
  H   H1366     1.0  0.90152  0.28735  0.38770  1.0000
  S   S239      1.0  0.90921  0.37634  0.34236  1.0000
  H   H1367     1.0  0.77981  0.03402  0.46951  1.0000
  S   S240      1.0  0.89495  0.43437  0.36812  1.0000
  C   C802      1.0  0.83147  0.42035  0.28437  1.0000
  C   C803      1.0  0.85776  0.40243  0.30363  1.0000
  C   C804      1.0  0.83755  0.41337  0.30229  1.0000
  H   H1368     1.0  0.86257  0.39742  0.31750  1.0000
  H   H1369     1.0  0.82657  0.41641  0.31517  1.0000
  C   C805      1.0  0.71515  0.03245  0.34502  1.0000
  S   S241      1.0  0.53426  0.06491  0.27082  1.0000
  H   H1370     1.0  0.90234  0.47061  0.24667  1.0000
  Fe  Fe117     1.0  0.95287  0.38444  0.33787  1.0000
  H   H1371     1.0  0.48454  0.07775  0.26517  1.0000
  H   H1372     1.0  0.58407  0.06554  0.24936  1.0000
  C   C806      1.0  0.89417  0.25539  0.33028  1.0000
  H   H1373     1.0  0.82999  0.47226  0.30391  1.0000
  Fe  Fe118     1.0  0.91811  0.41769  0.34760  1.0000
  C   C807      1.0  0.97796  0.29636  0.46080  1.0000
  H   H1374     1.0  0.92062  0.34246  0.29327  1.0000
  C   C808      1.0  0.88145  0.30980  0.32370  1.0000
  H   H1375     1.0  0.65885  0.06091  0.30847  1.0000
  H   H1376     1.0  0.61323  0.03934  0.25651  1.0000
  H   H1377     1.0  0.69071  0.02565  0.29432  1.0000
  H   H1378     1.0  0.76226  0.06618  0.47864  1.0000
  H   H1379     1.0  0.79050  0.10177  0.43829  1.0000
  C   C809      1.0  0.49899  0.13272  0.29600  1.0000
  C   C810      1.0  0.96112  0.32720  0.36148  1.0000
  C   C811      1.0  0.67821  0.99294  0.32967  1.0000
  H   H1380     1.0  0.91890  0.48511  0.29213  1.0000
  C   C812      1.0  0.86443  0.40337  0.26929  1.0000
  S   S242      1.0  0.77817  0.47590  0.24792  1.0000
  C   C813      1.0  0.92129  0.15075  0.48071  1.0000
  H   H1381     1.0  0.92898  0.31672  0.28400  1.0000
  H   H1382     1.0  0.50420  0.05949  0.32307  1.0000
  C   C814      1.0  0.53767  0.46212  0.29032  1.0000
  Fe  Fe119     1.0  0.94225  0.21568  0.40358  1.0000
  Fe  Fe120     1.0  0.80899  0.45750  0.25352  1.0000
  C   C815      1.0  0.56497  0.01321  0.29701  1.0000
  C   C816      1.0  0.77730  0.45957  0.34781  1.0000
  C   C817      1.0  0.93603  0.27544  0.38274  1.0000
  C   C818      1.0  0.88003  0.10460  0.41890  1.0000
  C   C819      1.0  0.87046  0.12221  0.40830  1.0000
  C   C820      1.0  0.84776  0.11271  0.40109  1.0000
  C   C821      1.0  0.83459  0.08557  0.40430  1.0000
  C   C822      1.0  0.84473  0.06791  0.41430  1.0000
  C   C823      1.0  0.86734  0.07743  0.42163  1.0000
  H   H1383     1.0  0.88006  0.14318  0.40613  1.0000
  H   H1384     1.0  0.84007  0.12647  0.39332  1.0000
  H   H1385     1.0  0.83487  0.04699  0.41674  1.0000
  H   H1386     1.0  0.87479  0.06372  0.42969  1.0000
  Fe  Fe121     1.0  0.93283  0.15797  0.41972  1.0000
  H   H1387     1.0  0.76885  0.06812  0.44294  1.0000
  H   H1388     1.0  0.78421  0.47038  0.30888  1.0000
  H   H1389     1.0  0.87451  0.39912  0.25653  1.0000
  C   C824      1.0  0.92794  0.31337  0.32276  1.0000
  N   N59       1.0  0.80388  0.07321  0.47034  1.0000
  H   H1390     1.0  0.52424  0.48799  0.30621  1.0000
  H   H1391     1.0  0.49935  0.01089  0.26616  1.0000
  C   C825      1.0  0.91938  0.26663  0.43845  1.0000
  Fe  Fe122     1.0  0.72683  0.99632  0.40025  1.0000
  H   H1392     1.0  0.89923  0.33150  0.26683  1.0000
  H   H1393     1.0  0.75678  0.09343  0.44953  1.0000
  C   C826      1.0  0.93536  0.28005  0.45216  1.0000
  H   H1394     1.0  0.90588  0.26228  0.34084  1.0000
  C   C827      1.0  0.67555  0.47492  0.25242  1.0000
  N   N60       1.0  0.96407  0.29493  0.44409  1.0000
  C   C828      1.0  0.97749  0.22060  0.47777  1.0000
  C   C829      1.0  0.82845  0.09315  0.45777  1.0000
  S   S243      1.0  0.96104  0.40137  0.30602  1.0000
  H   H1395     1.0  0.68380  0.44401  0.23814  1.0000
  H   H1396     1.0  0.92491  0.24925  0.43541  1.0000
  C   C830      1.0  0.77993  0.08145  0.46909  1.0000
  C   C831      1.0  0.48847  0.41342  0.26956  1.0000
  C   C832      1.0  0.93470  0.31941  0.37055  1.0000
  H   H1397     1.0  0.49780  0.14507  0.28252  1.0000
  H   H1398     1.0  0.97100  0.11406  0.46022  1.0000
  C   C833      1.0  0.85286  0.48574  0.33309  1.0000
  H   H1399     1.0  0.93292  0.26386  0.46452  1.0000
  S   S244      1.0  0.91941  0.24303  0.39556  1.0000
  N   N61       1.0  0.67891  0.02131  0.32524  1.0000
  H   H1400     1.0  0.72096  0.03658  0.31412  1.0000
  H   H1401     1.0  0.50799  0.14600  0.30519  1.0000
  H   H1402     1.0  0.89492  0.46146  0.27187  1.0000
  H   H1403     1.0  0.49906  0.46217  0.30140  1.0000
  H   H1404     1.0  0.96104  0.31254  0.40603  1.0000
  S   S245      1.0  0.96085  0.42376  0.34607  1.0000
  H   H1405     1.0  0.53497  0.45261  0.27784  1.0000
  H   H1406     1.0  0.94915  0.48344  0.28051  1.0000
  S   S246      1.0  0.76467  0.01395  0.37822  1.0000
  C   C834      1.0  0.89099  0.31818  0.28128  1.0000
  H   H1407     1.0  0.80109  0.05146  0.44715  1.0000
  H   H1408     1.0  0.55828  0.47498  0.28795  1.0000
  Fe  Fe123     1.0  0.53350  0.07315  0.23932  1.0000
  C   C835      1.0  0.50180  0.48021  0.26477  1.0000
  C   C836      1.0  0.65940  0.02658  0.34024  1.0000
  H   H1409     1.0  0.81635  0.02443  0.48256  1.0000
  H   H1410     1.0  0.81470  0.01534  0.45981  1.0000
  H   H1411     1.0  0.94031  0.09313  0.47468  1.0000
  C   C837      1.0  0.84516  0.41562  0.26781  1.0000
  H   H1412     1.0  0.89829  0.25914  0.44560  1.0000
  C   C838      1.0  0.87100  0.39708  0.28715  1.0000
  C   C839      1.0  0.70597  0.03827  0.32595  1.0000
  H   H1413     1.0  0.55966  0.99872  0.31036  1.0000
  H   H1414     1.0  0.91502  0.14060  0.46915  1.0000
  Fe  Fe124     1.0  0.96531  0.44007  0.31466  1.0000
  H   H1415     1.0  0.87459  0.32432  0.28805  1.0000
  H   H1416     1.0  0.78090  0.09959  0.47465  1.0000
  H   H1417     1.0  0.92119  0.28002  0.42471  1.0000
  H   H1418     1.0  0.49437  0.11245  0.26523  1.0000
  H   H1419     1.0  0.50788  0.41303  0.26383  1.0000
  H   H1420     1.0  0.92577  0.43991  0.27404  1.0000
  H   H1421     1.0  0.87311  0.24766  0.33747  1.0000
  H   H1422     1.0  0.90032  0.23861  0.32652  1.0000
  C   C840      1.0  0.89875  0.27607  0.31161  1.0000
  C   C841      1.0  0.97519  0.30935  0.36362  1.0000
  C   C842      1.0  0.67505  0.02850  0.30497  1.0000
  H   H1423     1.0  0.84808  0.13513  0.44784  1.0000
  H   H1424     1.0  0.88344  0.29794  0.27882  1.0000
  C   C843      1.0  0.77405  0.08638  0.44870  1.0000
  H   H1425     1.0  0.62113  0.99577  0.35020  1.0000
  H   H1426     1.0  0.88339  0.33110  0.31976  1.0000
  H   H1427     1.0  0.94231  0.12181  0.45696  1.0000
  H   H1428     1.0  0.81189  0.45418  0.35607  1.0000
  H   H1429     1.0  0.96822  0.31486  0.32248  1.0000
  Fe  Fe125     1.0  0.91811  0.39625  0.31108  1.0000
  H   H1430     1.0  0.65057  0.43678  0.25017  1.0000
  C   C844      1.0  0.91183  0.47027  0.25937  1.0000
  H   H1431     1.0  0.89937  0.09828  0.47808  1.0000
  H   H1432     1.0  0.73543  0.04571  0.34354  1.0000
  H   H1433     1.0  0.80632  0.44408  0.33428  1.0000
  H   H1434     1.0  0.87433  0.28268  0.35206  1.0000
  H   H1435     1.0  0.92505  0.29307  0.45811  1.0000
  C   C845      1.0  0.63008  0.01507  0.34003  1.0000
  H   H1436     1.0  0.93694  0.16922  0.47279  1.0000
  H   H1437     1.0  0.72030  0.99457  0.46606  1.0000
  H   H1438     1.0  0.88166  0.46532  0.32984  1.0000
  C   C846      1.0  0.96269  0.28351  0.37426  1.0000
  H   H1439     1.0  0.69356  0.07176  0.29740  1.0000
  C   C847      1.0  0.87553  0.30304  0.34599  1.0000
  H   H1440     1.0  0.92393  0.33327  0.36932  1.0000
  H   H1441     1.0  0.87509  0.47691  0.37605  1.0000
  S   S247      1.0  0.60875  0.99858  0.28869  1.0000
  H   H1442     1.0  0.66379  0.04806  0.33975  1.0000
  C   C848      1.0  0.67434  0.05673  0.29869  1.0000
  C   C849      1.0  0.93283  0.47985  0.34843  1.0000
  H   H1443     1.0  0.94759  0.45849  0.25172  1.0000
  H   H1444     1.0  0.49843  0.08110  0.29350  1.0000
  C   C850      1.0  0.80612  0.46019  0.34225  1.0000
  C   C851      1.0  0.79982  0.04787  0.46305  1.0000
  S   S248      1.0  0.92747  0.19090  0.43375  1.0000
  H   H1445     1.0  0.71579  0.01205  0.34859  1.0000
  H   H1446     1.0  0.76427  0.44155  0.34457  1.0000
  H   H1447     1.0  0.86340  0.29904  0.31921  1.0000
  H   H1448     1.0  0.49000  0.00175  0.29168  1.0000
  H   H1449     1.0  0.91390  0.27314  0.30058  1.0000
  N   N62       1.0  0.82581  0.48579  0.33079  1.0000
  C   C852      1.0  0.96778  0.32274  0.43417  1.0000
  H   H1450     1.0  0.84044  0.42076  0.25394  1.0000
  S   S249      1.0  0.97682  0.35862  0.34669  1.0000
  H   H1451     1.0  0.72651  0.48122  0.23916  1.0000
  H   H1452     1.0  0.84897  0.44364  0.33520  1.0000
  H   H1453     1.0  0.88064  0.26982  0.30587  1.0000
  H   H1454     1.0  0.92340  0.30322  0.33805  1.0000
  C   C853      1.0  0.48349  0.99764  0.27815  1.0000
  C   C854      1.0  0.89388  0.48529  0.36611  1.0000
  H   H1455     1.0  0.97086  0.15014  0.47613  1.0000
  H   H1456     1.0  0.77151  0.45798  0.36363  1.0000
  C   C855      1.0  0.81898  0.03250  0.46693  1.0000
  H   H1457     1.0  0.83968  0.04444  0.46084  1.0000
  C   C856      1.0  0.58825  0.01722  0.28384  1.0000
  H   H1458     1.0  0.70746  0.05944  0.32359  1.0000
  H   H1459     1.0  0.97353  0.26971  0.37554  1.0000
  H   H1460     1.0  0.96232  0.32234  0.29892  1.0000
  H   H1461     1.0  0.65667  0.01535  0.30259  1.0000
  H   H1462     1.0  0.66139  0.01883  0.35502  1.0000
  H   H1463     1.0  0.61965  0.02863  0.34473  1.0000
  H   H1464     1.0  0.97942  0.27678  0.46677  1.0000
  H   H1465     1.0  0.49319  0.00806  0.32790  1.0000
  C   C857      1.0  0.48914  0.06962  0.32417  1.0000
  C   C858      1.0  0.95805  0.32647  0.41519  1.0000
  H   H1466     1.0  0.88840  0.16542  0.47857  1.0000
  S   S250      1.0  0.60689  0.47270  0.24805  1.0000
  H   H1467     1.0  0.53449  0.44624  0.30310  1.0000
  H   H1468     1.0  0.51303  0.12210  0.29246  1.0000
  C   C859      1.0  0.95168  0.11396  0.46803  1.0000
  C   C860      1.0  0.92679  0.45001  0.25913  1.0000
  H   H1469     1.0  0.77259  0.47634  0.34023  1.0000
  H   H1470     1.0  0.97364  0.26010  0.43912  1.0000
  H   H1471     1.0  0.51387  0.46932  0.25808  1.0000
  H   H1472     1.0  0.49829  0.08893  0.32766  1.0000
  H   H1473     1.0  0.96594  0.27663  0.41894  1.0000
  H   H1474     1.0  0.84573  0.08660  0.45914  1.0000
  H   H1475     1.0  0.85408  0.48403  0.34849  1.0000
  C   C861      1.0  0.95256  0.22334  0.47955  1.0000
  H   H1476     1.0  0.95745  0.33242  0.44390  1.0000
  C   C862      1.0  0.66793  0.45281  0.24113  1.0000
  H   H1477     1.0  0.65721  0.47888  0.25822  1.0000
  C   C863      1.0  0.96558  0.30597  0.47804  1.0000
  H   H1478     1.0  0.96457  0.32610  0.47379  1.0000
  H   H1479     1.0  0.96967  0.34614  0.40611  1.0000
  H   H1480     1.0  0.57355  0.99406  0.23581  1.0000
  C   C864      1.0  0.97606  0.28020  0.43101  1.0000
  H   H1481     1.0  0.48384  0.46482  0.27369  1.0000
  H   H1482     1.0  0.87267  0.48903  0.27694  1.0000
  C   C865      1.0  0.95602  0.13078  0.48343  1.0000
  H   H1483     1.0  0.69708  0.99087  0.32270  1.0000
  C   C866      1.0  0.82558  0.48877  0.30957  1.0000
  H   H1484     1.0  0.48072  0.47987  0.24149  1.0000
  C   C867      1.0  0.48031  0.07246  0.30476  1.0000
  Fe  Fe126     1.0  0.94563  0.18753  0.58519  1.0000
  S   S251      1.0  0.93624  0.22527  0.58410  1.0000
  S   S252      1.0  0.91581  0.14735  0.59746  1.0000
  H   H1485     1.0  0.65264  0.01576  0.64214  1.0000
  H   H1486     1.0  0.94662  0.35125  0.63023  1.0000
  H   H1487     1.0  0.88628  0.09391  0.59867  1.0000
  H   H1488     1.0  0.77920  0.08384  0.50730  1.0000
  H   H1489     1.0  0.54991  0.14055  0.71352  1.0000
  Fe  Fe127     1.0  0.81618  0.05801  0.55387  1.0000
  S   S253      1.0  0.77630  0.06254  0.55842  1.0000
  S   S254      1.0  0.84933  0.09556  0.54044  1.0000
  H   H1490     1.0  0.86162  0.14748  0.62289  1.0000
  H   H1491     1.0  0.54750  0.42672  0.72065  1.0000
  C   C868      1.0  0.93462  0.46158  0.69153  1.0000
  Fe  Fe128     1.0  0.76499  0.02766  0.54476  1.0000
  H   H1492     1.0  0.82549  0.10543  0.63640  1.0000
  Fe  Fe129     1.0  0.76772  0.03326  0.58601  1.0000
  S   S255      1.0  0.74613  0.03807  0.61392  1.0000
  S   S256      1.0  0.80566  0.02515  0.53790  1.0000
  S   S257      1.0  0.80865  0.03132  0.58278  1.0000
  H   H1493     1.0  0.61006  0.01218  0.70876  1.0000
  H   H1494     1.0  0.92975  0.27697  0.69786  1.0000
  H   H1495     1.0  0.69922  0.02237  0.64375  1.0000
  H   H1496     1.0  0.50273  0.08790  0.62747  1.0000
  N   N63       1.0  0.92787  0.29839  0.67022  1.0000
  H   H1497     1.0  0.95101  0.28161  0.65171  1.0000
  S   S258      1.0  0.62802  0.02205  0.60914  1.0000
  H   H1498     1.0  0.95224  0.48469  0.73367  1.0000
  H   H1499     1.0  0.95543  0.47354  0.68950  1.0000
  C   C869      1.0  0.66089  0.02881  0.61124  1.0000
  H   H1500     1.0  0.88295  0.14220  0.50066  1.0000
  Fe  Fe130     1.0  0.57584  0.03901  0.66828  1.0000
  S   S259      1.0  0.57297  0.04262  0.63711  1.0000
  S   S260      1.0  0.58726  0.07484  0.68117  1.0000
  C   C870      1.0  0.65372  0.00592  0.54995  1.0000
  H   H1501     1.0  0.66586  0.99306  0.58193  1.0000
  H   H1502     1.0  0.60059  0.02962  0.72613  1.0000
  H   H1503     1.0  0.49604  0.13326  0.68410  1.0000
  H   H1504     1.0  0.89550  0.45402  0.66141  1.0000
  H   H1505     1.0  0.89631  0.46090  0.70396  1.0000
  Fe  Fe131     1.0  0.96071  0.23659  0.55396  1.0000
  Fe  Fe132     1.0  0.59713  0.01537  0.63608  1.0000
  C   C871      1.0  0.93956  0.29648  0.68798  1.0000
  H   H1506     1.0  0.94785  0.43553  0.58234  1.0000
  H   H1507     1.0  0.96558  0.12078  0.49334  1.0000
  H   H1508     1.0  0.55529  0.13647  0.68052  1.0000
  H   H1509     1.0  0.92067  0.48114  0.71297  1.0000
  H   H1510     1.0  0.88790  0.07272  0.49908  1.0000
  C   C872      1.0  0.81570  0.07230  0.62254  1.0000
  C   C873      1.0  0.54028  0.11938  0.69079  1.0000
  C   C874      1.0  0.48746  0.02133  0.63369  1.0000
  H   H1511     1.0  0.54887  0.12936  0.64334  1.0000
  C   C875      1.0  0.68058  0.03855  0.59441  1.0000
  H   H1512     1.0  0.93151  0.44328  0.70225  1.0000
  H   H1513     1.0  0.53866  0.00569  0.72964  1.0000
  C   C876      1.0  0.80053  0.08671  0.50385  1.0000
  H   H1514     1.0  0.55802  0.10110  0.63943  1.0000
  C   C877      1.0  0.52998  0.09364  0.66640  1.0000
  H   H1515     1.0  0.50671  0.07365  0.70562  1.0000
  H   H1516     1.0  0.52323  0.05251  0.63179  1.0000
  C   C878      1.0  0.89251  0.09424  0.49392  1.0000
  C   C879      1.0  0.89797  0.15869  0.49004  1.0000
  C   C880      1.0  0.90020  0.39049  0.69272  1.0000
  C   C881      1.0  0.90921  0.37691  0.70689  1.0000
  C   C882      1.0  0.87359  0.40334  0.71755  1.0000
  C   C883      1.0  0.49760  0.08560  0.69668  1.0000
  H   H1517     1.0  0.90698  0.39090  0.67762  1.0000
  H   H1518     1.0  0.92315  0.23475  0.49690  1.0000
  C   C884      1.0  0.71353  0.03558  0.61297  1.0000
  C   C885      1.0  0.69406  0.02701  0.62997  1.0000
  C   C886      1.0  0.66770  0.02336  0.62909  1.0000
  H   H1519     1.0  0.96368  0.32792  0.65374  1.0000
  H   H1520     1.0  0.88655  0.27099  0.70582  1.0000
  C   C887      1.0  0.70676  0.04151  0.59520  1.0000
  H   H1521     1.0  0.94762  0.41360  0.60358  1.0000
  C   C888      1.0  0.95337  0.13906  0.52431  1.0000
  H   H1522     1.0  0.69865  0.00043  0.57015  1.0000
  H   H1523     1.0  0.72165  0.04839  0.58205  1.0000
  H   H1524     1.0  0.95555  0.15130  0.53544  1.0000
  H   H1525     1.0  0.89699  0.24856  0.65319  1.0000
  H   H1526     1.0  0.52461  0.14584  0.66565  1.0000
  C   C889      1.0  0.91215  0.10893  0.50516  1.0000
  Fe  Fe133     1.0  0.79432  0.99859  0.56737  1.0000
  C   C890      1.0  0.89935  0.13279  0.58069  1.0000
  C   C891      1.0  0.89842  0.14802  0.56337  1.0000
  C   C892      1.0  0.88308  0.13637  0.55107  1.0000
  C   C893      1.0  0.86882  0.10946  0.55592  1.0000
  C   C894      1.0  0.87023  0.09414  0.57300  1.0000
  C   C895      1.0  0.88544  0.10580  0.58536  1.0000
  H   H1527     1.0  0.90879  0.16895  0.55980  1.0000
  H   H1528     1.0  0.88174  0.14839  0.53801  1.0000
  H   H1529     1.0  0.85965  0.07330  0.57670  1.0000
  H   H1530     1.0  0.93995  0.31798  0.62818  1.0000
  H   H1531     1.0  0.90001  0.11210  0.51797  1.0000
  H   H1532     1.0  0.94093  0.11897  0.53204  1.0000
  H   H1533     1.0  0.87370  0.47220  0.65798  1.0000
  S   S261      1.0  0.93227  0.36134  0.70013  1.0000
  S   S262      1.0  0.94522  0.25133  0.52868  1.0000
  H   H1534     1.0  0.81137  0.10763  0.49761  1.0000
  H   H1535     1.0  0.97335  0.13916  0.51814  1.0000
  C   C896      1.0  0.95742  0.23944  0.50909  1.0000
  S   S263      1.0  0.95842  0.40154  0.64581  1.0000
  C   C897      1.0  0.80663  0.06781  0.49109  1.0000
  H   H1536     1.0  0.95527  0.17077  0.50143  1.0000
  N   N64       1.0  0.51851  0.10646  0.68126  1.0000
  H   H1537     1.0  0.59186  0.43846  0.72459  1.0000
  H   H1538     1.0  0.97264  0.47756  0.56649  1.0000
  C   C898      1.0  0.88185  0.40303  0.69810  1.0000
  H   H1539     1.0  0.71571  0.02187  0.49046  1.0000
  H   H1540     1.0  0.51532  0.08360  0.65874  1.0000
  H   H1541     1.0  0.92331  0.26489  0.63325  1.0000
  H   H1542     1.0  0.97429  0.29426  0.69856  1.0000
  C   C899      1.0  0.94094  0.15126  0.50892  1.0000
  H   H1543     1.0  0.77122  0.08630  0.63984  1.0000
  C   C900      1.0  0.91575  0.47583  0.69929  1.0000
  H   H1544     1.0  0.90212  0.28213  0.64159  1.0000
  C   C901      1.0  0.57558  0.07151  0.70595  1.0000
  Fe  Fe134     1.0  0.53855  0.00588  0.64783  1.0000
  H   H1545     1.0  0.97472  0.28720  0.67500  1.0000
  H   H1546     1.0  0.52091  0.14352  0.70611  1.0000
  H   H1547     1.0  0.97796  0.30657  0.48901  1.0000
  H   H1548     1.0  0.64797  0.01440  0.53686  1.0000
  H   H1549     1.0  0.94056  0.34093  0.66511  1.0000
  H   H1550     1.0  0.83848  0.16560  0.62569  1.0000
  H   H1551     1.0  0.92428  0.15561  0.51723  1.0000
  S   S264      1.0  0.60280  0.01467  0.66647  1.0000
  C   C902      1.0  0.93486  0.33082  0.63778  1.0000
  C   C903      1.0  0.74129  0.00876  0.50674  1.0000
  S   S265      1.0  0.50545  0.45597  0.70913  1.0000
  H   H1552     1.0  0.91405  0.32967  0.63924  1.0000
  S   S266      1.0  0.75270  0.99847  0.57288  1.0000
  C   C904      1.0  0.93070  0.27644  0.66021  1.0000
  C   C905      1.0  0.89978  0.29698  0.67695  1.0000
  C   C906      1.0  0.88221  0.27142  0.69117  1.0000
  H   H1553     1.0  0.88997  0.29972  0.66478  1.0000
  H   H1554     1.0  0.89894  0.31365  0.68421  1.0000
  S   S267      1.0  0.96732  0.19766  0.55452  1.0000
  H   H1555     1.0  0.88396  0.25353  0.68618  1.0000
  C   C907      1.0  0.90012  0.37623  0.72642  1.0000
  H   H1556     1.0  0.87438  0.45820  0.68185  1.0000
  H   H1557     1.0  0.57906  0.01721  0.71033  1.0000
  H   H1558     1.0  0.53638  0.04731  0.70661  1.0000
  H   H1559     1.0  0.92206  0.09510  0.51102  1.0000
  C   C908      1.0  0.55332  0.11213  0.65062  1.0000
  S   S268      1.0  0.53900  0.00481  0.67926  1.0000
  H   H1560     1.0  0.82363  0.06174  0.63340  1.0000
  C   C909      1.0  0.88693  0.46812  0.66748  1.0000
  H   H1561     1.0  0.86142  0.27072  0.69263  1.0000
  S   S269      1.0  0.50061  0.99553  0.63774  1.0000
  S   S270      1.0  0.73903  0.02902  0.52337  1.0000
  C   C910      1.0  0.50260  0.04758  0.63175  1.0000
  C   C911      1.0  0.94252  0.23281  0.49527  1.0000
  H   H1562     1.0  0.95219  0.44723  0.60437  1.0000
  C   C912      1.0  0.75696  0.99256  0.50818  1.0000
  C   C913      1.0  0.49097  0.06755  0.62945  1.0000
  H   H1563     1.0  0.52058  0.11337  0.72130  1.0000
  H   H1564     1.0  0.57120  0.11872  0.65651  1.0000
  H   H1565     1.0  0.67547  0.04335  0.58065  1.0000
  C   C914      1.0  0.88285  0.39005  0.73173  1.0000
  C   C915      1.0  0.94248  0.32502  0.65739  1.0000
  C   C916      1.0  0.53206  0.12970  0.70892  1.0000
  H   H1566     1.0  0.66777  0.02254  0.55396  1.0000
  C   C917      1.0  0.59227  0.08525  0.71650  1.0000
  C   C918      1.0  0.50811  0.12750  0.67258  1.0000
  H   H1567     1.0  0.76739  0.99223  0.51973  1.0000
  H   H1568     1.0  0.94589  0.29228  0.48549  1.0000
  H   H1569     1.0  0.48337  0.05448  0.68029  1.0000
  H   H1570     1.0  0.56230  0.46812  0.70679  1.0000
  C   C919      1.0  0.54935  0.05782  0.71480  1.0000
  C   C920      1.0  0.91194  0.26796  0.64652  1.0000
  S   S271      1.0  0.85214  0.42092  0.72370  1.0000
  S   S272      1.0  0.96169  0.47296  0.63700  1.0000
  H   H1571     1.0  0.61249  0.09602  0.70964  1.0000
  H   H1572     1.0  0.87349  0.09795  0.49744  1.0000
  H   H1573     1.0  0.92789  0.25831  0.67109  1.0000
  C   C921      1.0  0.72787  0.00932  0.49163  1.0000
  H   H1574     1.0  0.82209  0.06730  0.60854  1.0000
  N   N65       1.0  0.81553  0.11999  0.60948  1.0000
  C   C922      1.0  0.83701  0.14580  0.60084  1.0000
  C   C923      1.0  0.80647  0.10824  0.59296  1.0000
  C   C924      1.0  0.82689  0.10219  0.62133  1.0000
  C   C925      1.0  0.79379  0.12566  0.62210  1.0000
  C   C926      1.0  0.85159  0.15959  0.61516  1.0000
  C   C927      1.0  0.79613  0.12531  0.57893  1.0000
  H   H1575     1.0  0.48734  0.09475  0.70683  1.0000
  C   C928      1.0  0.76823  0.10257  0.63013  1.0000
  H   H1576     1.0  0.85204  0.14300  0.58967  1.0000
  H   H1577     1.0  0.82932  0.16046  0.59323  1.0000
  H   H1578     1.0  0.79072  0.08901  0.59819  1.0000
  H   H1579     1.0  0.82275  0.10383  0.58415  1.0000
  H   H1580     1.0  0.84823  0.10694  0.61546  1.0000
  H   H1581     1.0  0.75887  0.09512  0.61853  1.0000
  H   H1582     1.0  0.80033  0.13265  0.63487  1.0000
  H   H1583     1.0  0.78850  0.14203  0.61421  1.0000
  H   H1584     1.0  0.86724  0.17781  0.60686  1.0000
  H   H1585     1.0  0.87431  0.41277  0.68714  1.0000
  C   C929      1.0  0.59298  0.01299  0.71909  1.0000
  H   H1586     1.0  0.77980  0.13088  0.58643  1.0000
  H   H1587     1.0  0.81197  0.14303  0.57025  1.0000
  H   H1588     1.0  0.78830  0.11381  0.56841  1.0000
  H   H1589     1.0  0.97674  0.43676  0.55319  1.0000
  C   C930      1.0  0.95700  0.43404  0.59504  1.0000
  H   H1590     1.0  0.79414  0.06444  0.62684  1.0000
  H   H1591     1.0  0.93096  0.45566  0.67783  1.0000
  H   H1592     1.0  0.75391  0.10948  0.63892  1.0000
  H   H1593     1.0  0.80628  0.08206  0.51781  1.0000
  H   H1594     1.0  0.55098  0.10565  0.69507  1.0000
  H   H1595     1.0  0.50368  0.13228  0.64238  1.0000
  H   H1596     1.0  0.53653  0.07768  0.67357  1.0000
  C   C931      1.0  0.49204  0.12129  0.65695  1.0000
  H   H1597     1.0  0.79312  0.04799  0.49878  1.0000
  N   N66       1.0  0.93208  0.13485  0.49445  1.0000
  H   H1598     1.0  0.82672  0.06729  0.49186  1.0000
  H   H1599     1.0  0.90467  0.17547  0.49718  1.0000
  Fe  Fe135     1.0  0.96353  0.38913  0.67576  1.0000
  H   H1600     1.0  0.93631  0.31124  0.69650  1.0000
  H   H1601     1.0  0.86501  0.47675  0.71295  1.0000
  H   H1602     1.0  0.48688  0.48115  0.65973  1.0000
  H   H1603     1.0  0.63589  0.99774  0.56156  1.0000
  H   H1604     1.0  0.48440  0.10037  0.65649  1.0000
  C   C932      1.0  0.57231  0.47979  0.71642  1.0000
  H   H1605     1.0  0.68552  0.99699  0.53468  1.0000
  Fe  Fe136     1.0  0.97475  0.24113  0.59274  1.0000
  H   H1606     1.0  0.48393  0.48129  0.63534  1.0000
  C   C933      1.0  0.96914  0.29991  0.68449  1.0000
  H   H1607     1.0  0.59345  0.48197  0.71321  1.0000
  H   H1608     1.0  0.97865  0.30242  0.58588  1.0000
  H   H1609     1.0  0.52926  0.48774  0.67169  1.0000
  Fe  Fe137     1.0  0.97896  0.44245  0.64868  1.0000
  S   S273      1.0  0.97918  0.26215  0.61768  1.0000
  H   H1610     1.0  0.97965  0.44186  0.71867  1.0000
  H   H1611     1.0  0.97924  0.48462  0.71514  1.0000
  H   H1612     1.0  0.97948  0.46492  0.53549  1.0000
  C   C934      1.0  0.53966  0.05885  0.73398  1.0000
  H   H1613     1.0  0.59347  0.41753  0.97209  1.0000
  H   H1614     1.0  0.68904  0.28288  0.98221  1.0000
  C   C935      1.0  0.50425  0.43225  0.82866  1.0000
  H   H1615     1.0  0.94542  0.39694  0.77096  1.0000
  S   S274      1.0  0.84353  0.40795  0.78034  1.0000
  Fe  Fe138     1.0  0.85561  0.43509  0.75136  1.0000
  Fe  Fe139     1.0  0.82509  0.43730  0.78965  1.0000
  S   S275      1.0  0.78454  0.42061  0.80852  1.0000
  Fe  Fe140     1.0  0.88013  0.43402  0.78645  1.0000
  S   S276      1.0  0.90564  0.41718  0.80268  1.0000
  S   S277      1.0  0.83456  0.46297  0.76003  1.0000
  C   C936      1.0  0.55658  0.07256  0.74450  1.0000
  H   H1616     1.0  0.50004  0.10789  0.83684  1.0000
  Fe  Fe141     1.0  0.59455  0.40536  0.89219  1.0000
  S   S278      1.0  0.56980  0.36581  0.90976  1.0000
  S   S279      1.0  0.63812  0.41813  0.89002  1.0000
  Fe  Fe142     1.0  0.54909  0.41589  0.87639  1.0000
  S   S280      1.0  0.52056  0.37738  0.89307  1.0000
  S   S281      1.0  0.53410  0.44087  0.85592  1.0000
  Fe  Fe143     1.0  0.54051  0.38618  0.91752  1.0000
  H   H1617     1.0  0.86285  0.45706  0.84783  1.0000
  Fe  Fe144     1.0  0.55237  0.36087  0.88375  1.0000
  S   S282      1.0  0.54480  0.32466  0.87122  1.0000
  S   S283      1.0  0.56650  0.42658  0.90175  1.0000
  S   S284      1.0  0.57973  0.39868  0.86532  1.0000
  Fe  Fe145     1.0  0.71577  0.37092  0.95278  1.0000
  S   S285      1.0  0.72381  0.35975  0.92405  1.0000
  S   S286      1.0  0.67635  0.37513  0.96337  1.0000
  Fe  Fe146     1.0  0.76866  0.37103  0.96141  1.0000
  S   S287      1.0  0.78088  0.35963  0.93346  1.0000
  H   H1618     1.0  0.54196  0.12620  0.80744  1.0000
  Fe  Fe147     1.0  0.76373  0.38928  0.92045  1.0000
  S   S288      1.0  0.78782  0.42262  0.89573  1.0000
  Fe  Fe148     1.0  0.74015  0.33130  0.93992  1.0000
  S   S289      1.0  0.73024  0.28801  0.94005  1.0000
  S   S290      1.0  0.75426  0.40276  0.94804  1.0000
  S   S291      1.0  0.72928  0.34029  0.96901  1.0000
  Fe  Fe149     1.0  0.55975  0.20698  0.92467  1.0000
  S   S292      1.0  0.57710  0.21312  0.89313  1.0000
  S   S293      1.0  0.53310  0.22834  0.93656  1.0000
  Fe  Fe150     1.0  0.61464  0.21647  0.90321  1.0000
  S   S294      1.0  0.64983  0.25105  0.88752  1.0000
  S   S295      1.0  0.59776  0.21314  0.93447  1.0000
  N   N67       1.0  0.65009  0.28069  0.97799  1.0000
  H   H1619     1.0  0.52101  0.38153  0.73663  1.0000
  C   C937      1.0  0.70990  0.27702  0.92427  1.0000
  C   C938      1.0  0.70967  0.29420  0.90772  1.0000
  C   C939      1.0  0.69207  0.28558  0.89595  1.0000
  C   C940      1.0  0.67364  0.26030  0.90127  1.0000
  C   C941      1.0  0.67402  0.24303  0.91774  1.0000
  C   C942      1.0  0.69264  0.25117  0.92892  1.0000
  H   H1620     1.0  0.72337  0.31396  0.90381  1.0000
  H   H1621     1.0  0.69270  0.29863  0.88280  1.0000
  H   H1622     1.0  0.66021  0.22330  0.92172  1.0000
  H   H1623     1.0  0.69310  0.23767  0.94152  1.0000
  C   C943      1.0  0.55957  0.40043  0.96074  1.0000
  C   C944      1.0  0.55968  0.46835  0.73803  1.0000
  H   H1624     1.0  0.57080  0.40227  0.94646  1.0000
  H   H1625     1.0  0.65398  0.25971  0.95456  1.0000
  C   C945      1.0  0.53774  0.29682  0.88947  1.0000
  C   C946      1.0  0.53809  0.27289  0.88464  1.0000
  C   C947      1.0  0.53540  0.25130  0.89919  1.0000
  C   C948      1.0  0.53248  0.25370  0.91851  1.0000
  C   C949      1.0  0.53034  0.27710  0.92337  1.0000
  C   C950      1.0  0.53297  0.29867  0.90886  1.0000
  H   H1626     1.0  0.54118  0.27121  0.86965  1.0000
  H   H1627     1.0  0.53549  0.23280  0.89545  1.0000
  H   H1628     1.0  0.52738  0.27879  0.93828  1.0000
  H   H1629     1.0  0.53146  0.31674  0.91272  1.0000
  C   C951      1.0  0.64790  0.40636  0.91091  1.0000
  C   C952      1.0  0.67450  0.41012  0.91005  1.0000
  C   C953      1.0  0.68319  0.40072  0.92618  1.0000
  C   C954      1.0  0.66524  0.38749  0.94342  1.0000
  C   C955      1.0  0.63852  0.38393  0.94453  1.0000
  C   C956      1.0  0.62983  0.39332  0.92824  1.0000
  H   H1630     1.0  0.68849  0.42055  0.89693  1.0000
  H   H1631     1.0  0.70390  0.40423  0.92537  1.0000
  H   H1632     1.0  0.62460  0.37406  0.95795  1.0000
  H   H1633     1.0  0.60932  0.39099  0.92924  1.0000
  S   S296      1.0  0.48993  0.08040  0.80571  1.0000
  C   C957      1.0  0.51980  0.38968  0.82016  1.0000
  C   C958      1.0  0.52978  0.40305  0.83399  1.0000
  C   C959      1.0  0.52201  0.42432  0.83834  1.0000
  C   C960      1.0  0.73475  0.46366  0.82553  1.0000
  H   H1634     1.0  0.59603  0.18260  0.97938  1.0000
  H   H1635     1.0  0.52600  0.37330  0.81686  1.0000
  H   H1636     1.0  0.54345  0.39680  0.84131  1.0000
  H   H1637     1.0  0.75502  0.47050  0.88492  1.0000
  C   C961      1.0  0.74388  0.46853  0.85721  1.0000
  C   C962      1.0  0.78534  0.42066  0.83280  1.0000
  C   C963      1.0  0.80058  0.44302  0.83791  1.0000
  C   C964      1.0  0.80091  0.44329  0.85736  1.0000
  C   C965      1.0  0.78613  0.42120  0.87176  1.0000
  C   C966      1.0  0.77087  0.39871  0.86672  1.0000
  C   C967      1.0  0.77043  0.39849  0.84718  1.0000
  H   H1638     1.0  0.81197  0.46021  0.82686  1.0000
  H   H1639     1.0  0.81274  0.46068  0.86129  1.0000
  H   H1640     1.0  0.75951  0.38158  0.87783  1.0000
  H   H1641     1.0  0.75866  0.38114  0.84318  1.0000
  H   H1642     1.0  0.61084  0.44862  0.76125  1.0000
  H   H1643     1.0  0.52781  0.42625  0.77093  1.0000
  C   C968      1.0  0.52192  0.12167  0.85787  1.0000
  C   C969      1.0  0.49389  0.41857  0.81504  1.0000
  C   C970      1.0  0.53693  0.16881  0.85544  1.0000
  H   H1644     1.0  0.48260  0.18080  0.95670  1.0000
  C   C971      1.0  0.53230  0.38924  0.96482  1.0000
  C   C972      1.0  0.57006  0.32283  0.97857  1.0000
  C   C973      1.0  0.93306  0.44134  0.80586  1.0000
  C   C974      1.0  0.57238  0.40898  0.97528  1.0000
  H   H1645     1.0  0.49532  0.35749  0.85776  1.0000
  N   N68       1.0  0.58388  0.14545  0.80094  1.0000
  C   C975      1.0  0.58513  0.14734  0.82162  1.0000
  C   C976      1.0  0.56024  0.12231  0.80149  1.0000
  C   C977      1.0  0.57989  0.17034  0.79136  1.0000
  C   C978      1.0  0.60919  0.14251  0.79115  1.0000
  H   H1646     1.0  0.66867  0.43125  0.84607  1.0000
  C   C979      1.0  0.55942  0.09579  0.81344  1.0000
  C   C980      1.0  0.57785  0.17282  0.77003  1.0000
  C   C981      1.0  0.60829  0.12909  0.77355  1.0000
  C   C982      1.0  0.64160  0.29210  0.94380  1.0000
  H   H1647     1.0  0.58868  0.12981  0.82950  1.0000
  H   H1648     1.0  0.55794  0.11910  0.78691  1.0000
  H   H1649     1.0  0.56737  0.02361  0.74965  1.0000
  C   C983      1.0  0.65675  0.27991  0.95691  1.0000
  H   H1650     1.0  0.59632  0.18797  0.79157  1.0000
  H   H1651     1.0  0.62475  0.16204  0.78647  1.0000
  H   H1652     1.0  0.61635  0.13036  0.80166  1.0000
  Fe  Fe151     1.0  0.58923  0.16967  0.93667  1.0000
  H   H1653     1.0  0.54755  0.18581  0.86041  1.0000
  H   H1654     1.0  0.87623  0.38992  0.74680  1.0000
  H   H1655     1.0  0.54434  0.07955  0.80992  1.0000
  H   H1656     1.0  0.57833  0.09191  0.81030  1.0000
  H   H1657     1.0  0.55358  0.09489  0.82916  1.0000
  H   H1658     1.0  0.57258  0.19080  0.76547  1.0000
  H   H1659     1.0  0.56229  0.15618  0.76758  1.0000
  H   H1660     1.0  0.59691  0.17531  0.76057  1.0000
  H   H1661     1.0  0.62772  0.13721  0.76348  1.0000
  H   H1662     1.0  0.59377  0.13190  0.76499  1.0000
  H   H1663     1.0  0.60519  0.10772  0.77807  1.0000
  H   H1664     1.0  0.87411  0.34953  0.87185  1.0000
  C   C984      1.0  0.69937  0.46301  0.85264  1.0000
  H   H1665     1.0  0.52316  0.00925  0.76844  1.0000
  N   N69       1.0  0.85313  0.38900  0.85581  1.0000
  C   C985      1.0  0.85351  0.41588  0.84615  1.0000
  C   C986      1.0  0.84603  0.37087  0.84207  1.0000
  C   C987      1.0  0.88035  0.39137  0.85909  1.0000
  C   C988      1.0  0.83340  0.38063  0.87473  1.0000
  C   C989      1.0  0.54957  0.43305  0.76739  1.0000
  C   C990      1.0  0.81888  0.36713  0.83703  1.0000
  H   H1666     1.0  0.55174  0.44478  0.79496  1.0000
  C   C991      1.0  0.82726  0.35236  0.88620  1.0000
  H   H1667     1.0  0.86604  0.42191  0.83135  1.0000
  H   H1668     1.0  0.49812  0.44864  0.83200  1.0000
  H   H1669     1.0  0.84667  0.35089  0.84749  1.0000
  H   H1670     1.0  0.86081  0.37809  0.82819  1.0000
  H   H1671     1.0  0.89544  0.40574  0.84692  1.0000
  H   H1672     1.0  0.88342  0.39940  0.87227  1.0000
  H   H1673     1.0  0.83995  0.39360  0.88483  1.0000
  H   H1674     1.0  0.81455  0.38370  0.87292  1.0000
  C   C992      1.0  0.55766  0.45427  0.77937  1.0000
  H   H1675     1.0  0.58364  0.31121  0.98014  1.0000
  S   S297      1.0  0.86072  0.46100  0.79853  1.0000
  H   H1676     1.0  0.81809  0.38522  0.82791  1.0000
  H   H1677     1.0  0.81507  0.35169  0.82831  1.0000
  H   H1678     1.0  0.80285  0.36051  0.85007  1.0000
  C   C993      1.0  0.58298  0.08519  0.73584  1.0000
  C   C994      1.0  0.56696  0.32474  0.95746  1.0000
  H   H1679     1.0  0.55510  0.41588  0.77372  1.0000
  H   H1680     1.0  0.84107  0.35155  0.89596  1.0000
  H   H1681     1.0  0.82704  0.33762  0.87711  1.0000
  H   H1682     1.0  0.80708  0.34578  0.89518  1.0000
  H   H1683     1.0  0.62039  0.28590  0.95015  1.0000
  H   H1684     1.0  0.90675  0.36536  0.73740  1.0000
  H   H1685     1.0  0.94263  0.41405  0.82632  1.0000
  H   H1686     1.0  0.72083  0.46452  0.88648  1.0000
  H   H1687     1.0  0.76294  0.46586  0.85161  1.0000
  C   C995      1.0  0.93952  0.40504  0.75788  1.0000
  H   H1688     1.0  0.70064  0.41739  0.86619  1.0000
  C   C996      1.0  0.67671  0.45298  0.84251  1.0000
  H   H1689     1.0  0.54604  0.01903  0.78310  1.0000
  H   H1690     1.0  0.64971  0.31393  0.94053  1.0000
  H   H1691     1.0  0.57896  0.46440  0.77631  1.0000
  H   H1692     1.0  0.49261  0.32489  0.88505  1.0000
  C   C997      1.0  0.65549  0.30931  0.97903  1.0000
  H   H1693     1.0  0.55985  0.30500  0.95405  1.0000
  C   C998      1.0  0.96373  0.48585  0.79723  1.0000
  S   S298      1.0  0.50142  0.15504  0.81059  1.0000
  H   H1694     1.0  0.94099  0.44275  0.76412  1.0000
  H   H1695     1.0  0.56185  0.17287  0.79947  1.0000
  S   S299      1.0  0.51037  0.12531  0.76555  1.0000
  H   H1696     1.0  0.50491  0.32074  0.85019  1.0000
  H   H1697     1.0  0.69395  0.41163  0.83167  1.0000
  S   S300      1.0  0.48884  0.37967  0.79396  1.0000
  H   H1698     1.0  0.58652  0.33488  0.94783  1.0000
  H   H1699     1.0  0.90742  0.37026  0.86541  1.0000
  H   H1700     1.0  0.53926  0.46919  0.74045  1.0000
  S   S301      1.0  0.51606  0.37570  0.94762  1.0000
  C   C999      1.0  0.94824  0.43414  0.81838  1.0000
  C   C1000     1.0  0.94054  0.46735  0.79553  1.0000
  H   H1701     1.0  0.62589  0.17428  0.81609  1.0000
  H   H1702     1.0  0.67791  0.29061  0.95093  1.0000
  C   C1001     1.0  0.86307  0.43849  0.85672  1.0000
  N   N70       1.0  0.62352  0.32182  0.87608  1.0000
  C   C1002     1.0  0.61463  0.31136  0.85904  1.0000
  C   C1003     1.0  0.61774  0.34743  0.87590  1.0000
  C   C1004     1.0  0.60809  0.30167  0.89424  1.0000
  C   C1005     1.0  0.65234  0.32552  0.87388  1.0000
  C   C1006     1.0  0.61639  0.28382  0.85742  1.0000
  C   C1007     1.0  0.63277  0.36964  0.85815  1.0000
  C   C1008     1.0  0.60391  0.31173  0.91307  1.0000
  C   C1009     1.0  0.66632  0.33909  0.88851  1.0000
  H   H1703     1.0  0.59387  0.31042  0.85929  1.0000
  H   H1704     1.0  0.62628  0.32463  0.84515  1.0000
  H   H1705     1.0  0.62179  0.35570  0.88874  1.0000
  H   H1706     1.0  0.59647  0.34412  0.87680  1.0000
  H   H1707     1.0  0.58802  0.29137  0.89254  1.0000
  H   H1708     1.0  0.61711  0.28583  0.89704  1.0000
  H   H1709     1.0  0.65562  0.30613  0.87521  1.0000
  H   H1710     1.0  0.66353  0.33584  0.85901  1.0000
  H   H1711     1.0  0.60493  0.26851  0.87037  1.0000
  H   H1712     1.0  0.60803  0.27786  0.84500  1.0000
  H   H1713     1.0  0.63695  0.28377  0.85457  1.0000
  H   H1714     1.0  0.62628  0.36533  0.84475  1.0000
  H   H1715     1.0  0.62864  0.38794  0.86037  1.0000
  H   H1716     1.0  0.65422  0.37415  0.85623  1.0000
  H   H1717     1.0  0.59517  0.29455  0.92534  1.0000
  H   H1718     1.0  0.58958  0.32259  0.91284  1.0000
  H   H1719     1.0  0.62224  0.32430  0.91591  1.0000
  H   H1720     1.0  0.66402  0.32464  0.90192  1.0000
  H   H1721     1.0  0.65999  0.35568  0.89220  1.0000
  H   H1722     1.0  0.68755  0.34808  0.88198  1.0000
  H   H1723     1.0  0.70387  0.38728  0.84551  1.0000
  H   H1724     1.0  0.84989  0.43556  0.87090  1.0000
  C   C1010     1.0  0.51256  0.15014  0.83228  1.0000
  H   H1725     1.0  0.68237  0.46039  0.82666  1.0000
  S   S302      1.0  0.54938  0.16310  0.93000  1.0000
  H   H1726     1.0  0.89123  0.36030  0.84675  1.0000
  H   H1727     1.0  0.52918  0.38590  0.75924  1.0000
  H   H1728     1.0  0.69092  0.45587  0.86839  1.0000
  H   H1729     1.0  0.88349  0.44163  0.85850  1.0000
  H   H1730     1.0  0.60776  0.47667  0.74573  1.0000
  H   H1731     1.0  0.83371  0.41556  0.84420  1.0000
  C   C1011     1.0  0.53564  0.14360  0.86449  1.0000
  C   C1012     1.0  0.48776  0.14798  0.97621  1.0000
  H   H1732     1.0  0.54966  0.22236  0.98234  1.0000
  H   H1733     1.0  0.67544  0.32115  0.97066  1.0000
  H   H1734     1.0  0.91779  0.39900  0.76156  1.0000
  S   S303      1.0  0.55344  0.13865  0.88241  1.0000
  S   S304      1.0  0.59453  0.13948  0.95954  1.0000
  H   H1735     1.0  0.66044  0.46024  0.84800  1.0000
  C   C1013     1.0  0.97878  0.47864  0.80987  1.0000
  S   S305      1.0  0.60947  0.17342  0.90608  1.0000
  Fe  Fe152     1.0  0.56995  0.16953  0.89910  1.0000
  H   H1736     1.0  0.64193  0.31773  0.97216  1.0000
  H   H1737     1.0  0.52083  0.10213  0.86485  1.0000
  H   H1738     1.0  0.62279  0.22991  0.97535  1.0000
  H   H1739     1.0  0.52139  0.42524  0.73936  1.0000
  C   C1014     1.0  0.88829  0.36617  0.86093  1.0000
  C   C1015     1.0  0.51028  0.12491  0.84191  1.0000
  H   H1740     1.0  0.55440  0.33673  0.95365  1.0000
  Fe  Fe153     1.0  0.50904  0.08369  0.77498  1.0000
  H   H1741     1.0  0.53616  0.14654  0.98137  1.0000
  Fe  Fe154     1.0  0.48823  0.12097  0.79569  1.0000
  N   N71       1.0  0.72329  0.45498  0.84697  1.0000
  S   S306      1.0  0.89415  0.45859  0.75648  1.0000
  H   H1742     1.0  0.59618  0.09553  0.74395  1.0000
  H   H1743     1.0  0.94472  0.39598  0.74561  1.0000
  H   H1744     1.0  0.72746  0.41165  0.82668  1.0000
  C   C1016     1.0  0.60620  0.17143  0.82471  1.0000
  H   H1745     1.0  0.73380  0.42068  0.85790  1.0000
  H   H1746     1.0  0.54713  0.46890  0.77731  1.0000
  C   C1017     1.0  0.52544  0.17205  0.83933  1.0000
  H   H1747     1.0  0.53289  0.18709  0.96687  1.0000
  C   C1018     1.0  0.71696  0.42548  0.85328  1.0000
  C   C1019     1.0  0.71005  0.40836  0.83827  1.0000
  H   H1748     1.0  0.56607  0.14756  0.82951  1.0000
  H   H1749     1.0  0.58076  0.34312  0.98003  1.0000
  H   H1750     1.0  0.64400  0.28566  0.92980  1.0000
  H   H1751     1.0  0.52713  0.19161  0.83201  1.0000
  S   S307      1.0  0.54583  0.07283  0.76882  1.0000
  H   H1752     1.0  0.60075  0.18962  0.82171  1.0000
  H   H1753     1.0  0.72079  0.45430  0.81698  1.0000
  H   H1754     1.0  0.60739  0.16833  0.84022  1.0000
  H   H1755     1.0  0.49191  0.30319  0.82189  1.0000
  H   H1756     1.0  0.51609  0.29458  0.96729  1.0000
  N   N72       1.0  0.55971  0.44084  0.74572  1.0000
  C   C1020     1.0  0.53849  0.00367  0.77491  1.0000
  C   C1021     1.0  0.51787  0.38710  0.98331  1.0000
  H   H1757     1.0  0.50743  0.19943  0.97591  1.0000
  C   C1022     1.0  0.56125  0.00379  0.75917  1.0000
  H   H1758     1.0  0.55420  0.38737  0.73875  1.0000
  C   C1023     1.0  0.53642  0.39275  0.74341  1.0000
  Fe  Fe155     1.0  0.87212  0.48408  0.76796  1.0000
  C   C1024     1.0  0.73795  0.45969  0.87944  1.0000
  C   C1025     1.0  0.54097  0.42244  0.73662  1.0000
  C   C1026     1.0  0.60914  0.45663  0.74646  1.0000
  C   C1027     1.0  0.97078  0.45285  0.82062  1.0000
  H   H1759     1.0  0.52262  0.33043  0.97790  1.0000
  H   H1760     1.0  0.67073  0.23757  0.97400  1.0000
  H   H1761     1.0  0.51929  0.04874  0.74074  1.0000
  H   H1762     1.0  0.75219  0.45708  0.82186  1.0000
  H   H1763     1.0  0.57790  0.00316  0.76627  1.0000
  C   C1028     1.0  0.50163  0.39722  0.81082  1.0000
  H   H1764     1.0  0.92881  0.47311  0.78592  1.0000
  S   S308      1.0  0.79926  0.37504  0.97937  1.0000
  C   C1029     1.0  0.95021  0.43524  0.75223  1.0000
  H   H1765     1.0  0.57002  0.48287  0.74582  1.0000
  C   C1030     1.0  0.58627  0.43762  0.74038  1.0000
  H   H1766     1.0  0.58581  0.41755  0.74707  1.0000
  C   C1031     1.0  0.51259  0.27803  0.97949  1.0000
  C   C1032     1.0  0.60918  0.24009  0.98079  1.0000
  H   H1767     1.0  0.50118  0.14570  0.96360  1.0000
  H   H1768     1.0  0.73526  0.43850  0.88430  1.0000
  H   H1769     1.0  0.62770  0.45930  0.73621  1.0000
  H   H1770     1.0  0.59756  0.24357  0.96984  1.0000
  C   C1033     1.0  0.51973  0.18739  0.98036  1.0000
  H   H1771     1.0  0.51425  0.26092  0.97318  1.0000
  H   H1772     1.0  0.94199  0.44061  0.73952  1.0000
  H   H1773     1.0  0.64211  0.40798  0.97964  1.0000
  S   S309      1.0  0.48445  0.44497  0.76660  1.0000
  H   H1774     1.0  0.70454  0.48479  0.85023  1.0000
  H   H1775     1.0  0.48127  0.27580  0.88600  1.0000
  C   C1034     1.0  0.48399  0.30960  0.85116  1.0000
  H   H1776     1.0  0.48529  0.33319  0.82278  1.0000
  H   H1777     1.0  0.48274  0.28887  0.85597  1.0000
  N   N73       1.0  0.97954  0.44771  0.74792  1.0000
  H   H1778     1.0  0.97816  0.48276  0.75867  1.0000
  H   H1779     1.0  0.97949  0.44332  0.77844  1.0000
  C   C1035     1.0  0.58709  0.14064  0.98403  1.0000
  H   H1780     1.0  0.62042  0.97747  0.19589  1.0000
  S   S310      1.0  0.81589  0.50358  0.20482  1.0000
  H   H1781     1.0  0.52421  0.83422  0.02595  1.0000
  H   H1782     1.0  0.54900  0.93941  0.19159  1.0000
  H   H1783     1.0  0.96603  0.51704  0.21383  1.0000
  C   C1036     1.0  0.59090  0.64649  0.18381  1.0000
  H   H1784     1.0  0.61895  0.56280  0.21640  1.0000
  S   S311      1.0  0.56827  0.52914  0.17646  1.0000
  H   H1785     1.0  0.61539  0.61162  0.16993  1.0000
  S   S312      1.0  0.96238  0.59879  0.18025  1.0000
  C   C1037     1.0  0.50654  0.64444  0.22124  1.0000
  H   H1786     1.0  0.52344  0.81874  0.00573  1.0000
  H   H1787     1.0  0.75345  0.52825  0.22831  1.0000
  C   C1038     1.0  0.50024  0.98786  0.19957  1.0000
  C   C1039     1.0  0.48621  0.55084  0.11958  1.0000
  C   C1040     1.0  0.61610  0.96789  0.21147  1.0000
  C   C1041     1.0  0.59707  0.64976  0.22418  1.0000
  H   H1788     1.0  0.63983  0.94371  0.20289  1.0000
  H   H1789     1.0  0.61582  0.61780  0.20303  1.0000
  C   C1042     1.0  0.53888  0.57966  0.20913  1.0000
  C   C1043     1.0  0.60289  0.59563  0.18217  1.0000
  H   H1790     1.0  0.94968  0.64423  0.11840  1.0000
  C   C1044     1.0  0.67625  0.50975  0.21192  1.0000
  H   H1791     1.0  0.61340  0.64171  0.22530  1.0000
  H   H1792     1.0  0.48708  0.82905  0.00159  1.0000
  H   H1793     1.0  0.60567  0.92630  0.20768  1.0000
  H   H1794     1.0  0.68822  0.49970  0.20417  1.0000
  H   H1795     1.0  0.57788  0.98193  0.19518  1.0000
  H   H1796     1.0  0.57265  0.67427  0.19557  1.0000
  C   C1045     1.0  0.49618  0.96090  0.20193  1.0000
  H   H1797     1.0  0.90295  0.68457  0.21970  1.0000
  H   H1798     1.0  0.48736  0.54815  0.08221  1.0000
  H   H1799     1.0  0.50213  0.56850  0.15980  1.0000
  H   H1800     1.0  0.53832  0.61816  0.19772  1.0000
  H   H1801     1.0  0.58508  0.58448  0.17781  1.0000
  H   H1802     1.0  0.93300  0.51677  0.22046  1.0000
  C   C1046     1.0  0.86995  0.60003  0.21537  1.0000
  H   H1803     1.0  0.54780  0.56853  0.15938  1.0000
  H   H1804     1.0  0.61123  0.65697  0.18493  1.0000
  H   H1805     1.0  0.91424  0.59201  0.22480  1.0000
  C   C1047     1.0  0.50571  0.55161  0.16756  1.0000
  C   C1048     1.0  0.93960  0.56751  0.18307  1.0000
  C   C1049     1.0  0.91294  0.56354  0.18957  1.0000
  C   C1050     1.0  0.89478  0.53817  0.19335  1.0000
  H   H1806     1.0  0.48310  0.58832  0.08988  1.0000
  C   C1051     1.0  0.92969  0.52114  0.18237  1.0000
  C   C1052     1.0  0.94797  0.54630  0.17942  1.0000
  H   H1807     1.0  0.90646  0.57997  0.19215  1.0000
  H   H1808     1.0  0.87431  0.53506  0.19901  1.0000
  C   C1053     1.0  0.57357  0.63013  0.21918  1.0000
  C   C1054     1.0  0.48621  0.82436  0.01743  1.0000
  H   H1809     1.0  0.58880  0.58927  0.21305  1.0000
  H   H1810     1.0  0.65537  0.49728  0.21561  1.0000
  H   H1811     1.0  0.55668  0.65825  0.17832  1.0000
  H   H1812     1.0  0.85145  0.59339  0.21020  1.0000
  C   C1055     1.0  0.86608  0.61628  0.23072  1.0000
  H   H1813     1.0  0.55457  0.60468  0.18079  1.0000
  H   H1814     1.0  0.58738  0.68377  0.17045  1.0000
  H   H1815     1.0  0.48878  0.82487  0.05514  1.0000
  C   C1056     1.0  0.59662  0.60626  0.20053  1.0000
  H   H1816     1.0  0.88539  0.61162  0.20256  1.0000
  C   C1057     1.0  0.53615  0.52979  0.17740  1.0000
  C   C1058     1.0  0.51500  0.50818  0.18792  1.0000
  C   C1059     1.0  0.55256  0.60715  0.19603  1.0000
  C   C1060     1.0  0.53150  0.55170  0.16742  1.0000
  H   H1817     1.0  0.54804  0.85681  0.22778  1.0000
  H   H1818     1.0  0.58240  0.94120  0.18835  1.0000
  H   H1819     1.0  0.62198  0.93239  0.22725  1.0000
  C   C1061     1.0  0.94718  0.50694  0.22437  1.0000
  H   H1820     1.0  0.61406  0.58178  0.18503  1.0000
  H   H1821     1.0  0.69906  0.53857  0.22559  1.0000
  H   H1822     1.0  0.63197  0.98003  0.21747  1.0000
  H   H1823     1.0  0.51101  0.52922  0.13015  1.0000
  N   N74       1.0  0.57844  0.62252  0.19987  1.0000
  H   H1824     1.0  0.51251  0.95342  0.20154  1.0000
  H   H1825     1.0  0.48343  0.50853  0.12333  1.0000
  H   H1826     1.0  0.92931  0.65577  0.22893  1.0000
  H   H1827     1.0  0.87389  0.58194  0.22159  1.0000
  H   H1828     1.0  0.96746  0.58926  0.13369  1.0000
  H   H1829     1.0  0.51940  0.57119  0.20571  1.0000
  H   H1830     1.0  0.67808  0.52769  0.20127  1.0000
  C   C1062     1.0  0.91209  0.64719  0.22262  1.0000
  H   H1831     1.0  0.59297  0.64070  0.16954  1.0000
  H   H1832     1.0  0.91913  0.63656  0.21195  1.0000
  C   C1063     1.0  0.48934  0.50771  0.18751  1.0000
  C   C1064     1.0  0.57581  0.66660  0.18222  1.0000
  H   H1833     1.0  0.92390  0.68139  0.19918  1.0000
  H   H1834     1.0  0.60432  0.66901  0.21391  1.0000
  H   H1835     1.0  0.54994  0.56580  0.20656  1.0000
  C   C1065     1.0  0.90320  0.51694  0.18984  1.0000
  H   H1836     1.0  0.51680  0.68644  0.21827  1.0000
  N   N75       1.0  0.58954  0.96790  0.22143  1.0000
  H   H1837     1.0  0.96852  0.54918  0.17442  1.0000
  C   C1066     1.0  0.49819  0.52828  0.11946  1.0000
  H   H1838     1.0  0.55154  0.96619  0.21531  1.0000
  C   C1067     1.0  0.57075  0.96530  0.20791  1.0000
  C   C1068     1.0  0.56528  0.94041  0.19932  1.0000
  C   C1069     1.0  0.62073  0.94093  0.21249  1.0000
  S   S313      1.0  0.50883  0.87884  0.21933  1.0000
  S   S314      1.0  0.49945  0.64543  0.19815  1.0000
  H   H1839     1.0  0.93626  0.50473  0.17970  1.0000
  H   H1840     1.0  0.50322  0.56902  0.11336  1.0000
  H   H1841     1.0  0.75577  0.51134  0.20907  1.0000
  H   H1842     1.0  0.61405  0.51604  0.21705  1.0000
  H   H1843     1.0  0.48721  0.84313  0.02231  1.0000
  H   H1844     1.0  0.50914  0.79955  0.02957  1.0000
  C   C1070     1.0  0.51182  0.81850  0.02000  1.0000
  H   H1845     1.0  0.55754  0.63893  0.22029  1.0000
  H   H1846     1.0  0.55899  0.92203  0.21041  1.0000
  H   H1847     1.0  0.88982  0.66362  0.20362  1.0000
  C   C1071     1.0  0.90639  0.67035  0.21080  1.0000
  H   H1848     1.0  0.49146  0.78142  0.00009  1.0000
  H   H1849     1.0  0.73591  0.53238  0.20906  1.0000
  H   H1850     1.0  0.51072  0.53049  0.10511  1.0000
  H   H1851     1.0  0.48275  0.59796  0.12364  1.0000
  Fe  Fe156     1.0  0.56651  0.48983  0.19286  1.0000
  H   H1852     1.0  0.97456  0.63003  0.14079  1.0000
  C   C1072     1.0  0.96809  0.64089  0.11207  1.0000
  H   H1853     1.0  0.85784  0.63140  0.22455  1.0000
  H   H1854     1.0  0.96249  0.62103  0.10866  1.0000
  C   C1073     1.0  0.71868  0.49415  0.22981  1.0000
  H   H1855     1.0  0.93899  0.61413  0.23361  1.0000
  H   H1856     1.0  0.53547  0.58060  0.22460  1.0000
  H   H1857     1.0  0.82638  0.49803  0.14802  1.0000
  C   C1074     1.0  0.74206  0.51819  0.21854  1.0000
  H   H1858     1.0  0.51826  0.49167  0.19635  1.0000
  H   H1859     1.0  0.56686  0.61249  0.23117  1.0000
  C   C1075     1.0  0.50497  0.62070  0.23305  1.0000
  C   C1076     1.0  0.61681  0.54976  0.22995  1.0000
  C   C1077     1.0  0.68538  0.51802  0.23002  1.0000
  C   C1078     1.0  0.48466  0.52922  0.17712  1.0000
  H   H1860     1.0  0.97719  0.65598  0.09855  1.0000
  C   C1079     1.0  0.51545  0.66806  0.22738  1.0000
  H   H1861     1.0  0.49832  0.60243  0.22825  1.0000
  C   C1080     1.0  0.61408  0.52322  0.23031  1.0000
  H   H1862     1.0  0.48143  0.76053  0.02414  1.0000
  H   H1863     1.0  0.83755  0.52780  0.32889  1.0000
  C   C1081     1.0  0.51631  0.88918  0.25489  1.0000
  Fe  Fe157     1.0  0.89195  0.81567  0.41166  1.0000
  S   S315      1.0  0.88986  0.77342  0.41616  1.0000
  S   S316      1.0  0.85525  0.82709  0.41660  1.0000
  H   H1864     1.0  0.80100  0.90025  0.47880  1.0000
  H   H1865     1.0  0.52814  0.68630  0.25040  1.0000
  H   H1866     1.0  0.83651  0.76416  0.45305  1.0000
  H   H1867     1.0  0.80328  0.49308  0.28750  1.0000
  S   S317      1.0  0.92314  0.82801  0.38472  1.0000
  Fe  Fe158     1.0  0.67633  0.76978  0.36735  1.0000
  S   S318      1.0  0.71403  0.79765  0.34857  1.0000
  S   S319      1.0  0.64239  0.74881  0.35476  1.0000
  Fe  Fe159     1.0  0.68867  0.79106  0.40338  1.0000
  S   S320      1.0  0.72698  0.82045  0.38745  1.0000
  S   S321      1.0  0.67253  0.79321  0.43372  1.0000
  Fe  Fe160     1.0  0.70551  0.82802  0.36414  1.0000
  S   S322      1.0  0.70515  0.86804  0.35063  1.0000
  Fe  Fe161     1.0  0.73225  0.78734  0.37366  1.0000
  S   S323      1.0  0.77157  0.78045  0.36837  1.0000
  S   S324      1.0  0.66681  0.80125  0.38122  1.0000
  S   S325      1.0  0.69500  0.75680  0.39143  1.0000
  Fe  Fe162     1.0  0.55535  0.62330  0.28833  1.0000
  S   S326      1.0  0.55658  0.61136  0.31950  1.0000
  Fe  Fe163     1.0  0.59569  0.59885  0.27375  1.0000
  S   S327      1.0  0.60045  0.58449  0.30344  1.0000
  S   S328      1.0  0.61632  0.59187  0.24625  1.0000
  Fe  Fe164     1.0  0.55680  0.57296  0.31164  1.0000
  S   S329      1.0  0.53487  0.53294  0.33012  1.0000
  Fe  Fe165     1.0  0.60021  0.62419  0.30894  1.0000
  S   S330      1.0  0.63011  0.64129  0.32612  1.0000
  S   S331      1.0  0.55182  0.58380  0.28139  1.0000
  S   S332      1.0  0.59911  0.63971  0.27825  1.0000
  Fe  Fe166     1.0  0.91513  0.58239  0.33161  1.0000
  S   S333      1.0  0.89963  0.58831  0.30468  1.0000
  S   S334      1.0  0.94032  0.55629  0.33327  1.0000
  Fe  Fe167     1.0  0.89802  0.62537  0.34719  1.0000
  S   S335      1.0  0.88122  0.63532  0.32148  1.0000
  S   S336      1.0  0.89659  0.64371  0.37351  1.0000
  Fe  Fe168     1.0  0.86507  0.59160  0.32432  1.0000
  S   S337      1.0  0.82352  0.57423  0.32145  1.0000
  Fe  Fe169     1.0  0.91718  0.63116  0.30399  1.0000
  C   C1082     1.0  0.59386  0.62642  0.37863  1.0000
  S   S338      1.0  0.87881  0.58154  0.35158  1.0000
  S   S339      1.0  0.93563  0.62530  0.32937  1.0000
  H   H1868     1.0  0.69859  0.52996  0.28218  1.0000
  C   C1083     1.0  0.49761  0.84851  0.32608  1.0000
  C   C1084     1.0  0.82192  0.50972  0.33752  1.0000
  C   C1085     1.0  0.62934  0.83581  0.35192  1.0000
  C   C1086     1.0  0.52204  0.66800  0.24549  1.0000
  H   H1869     1.0  0.72273  0.78434  0.42758  1.0000
  C   C1087     1.0  0.52113  0.64450  0.25715  1.0000
  H   H1870     1.0  0.57473  0.84138  0.32473  1.0000
  C   C1088     1.0  0.92765  0.52305  0.34487  1.0000
  H   H1871     1.0  0.89251  0.51045  0.28995  1.0000
  C   C1089     1.0  0.65609  0.81135  0.30762  1.0000
  H   H1872     1.0  0.89200  0.52509  0.36141  1.0000
  H   H1873     1.0  0.49680  0.86262  0.33567  1.0000
  C   C1090     1.0  0.96453  0.78505  0.46611  1.0000
  H   H1874     1.0  0.67612  0.98606  0.34541  1.0000
  H   H1875     1.0  0.51233  0.83914  0.32980  1.0000
  H   H1876     1.0  0.93810  0.53489  0.28630  1.0000
  S   S340      1.0  0.60403  0.92907  0.31072  1.0000
  Fe  Fe170     1.0  0.92350  0.78622  0.39058  1.0000
  Fe  Fe171     1.0  0.53569  0.92619  0.33707  1.0000
  H   H1877     1.0  0.80125  0.82359  0.42020  1.0000
  C   C1091     1.0  0.79423  0.56510  0.27374  1.0000
  C   C1092     1.0  0.79779  0.57025  0.29187  1.0000
  C   C1093     1.0  0.81948  0.56708  0.29883  1.0000
  C   C1094     1.0  0.83725  0.55794  0.28782  1.0000
  H   H1878     1.0  0.77781  0.56834  0.26820  1.0000
  H   H1879     1.0  0.78402  0.57731  0.30034  1.0000
  C   C1095     1.0  0.65672  0.97250  0.32340  1.0000
  H   H1880     1.0  0.94371  0.89753  0.41903  1.0000
  H   H1881     1.0  0.52960  0.54357  0.25026  1.0000
  H   H1882     1.0  0.51554  0.58646  0.37420  1.0000
  H   H1883     1.0  0.67623  0.85945  0.32127  1.0000
  C   C1096     1.0  0.64235  0.97213  0.38389  1.0000
  H   H1884     1.0  0.70495  0.85283  0.48192  1.0000
  S   S341      1.0  0.95502  0.79462  0.40791  1.0000
  C   C1097     1.0  0.95052  0.52207  0.28467  1.0000
  C   C1098     1.0  0.61577  0.55916  0.24708  1.0000
  H   H1885     1.0  0.84456  0.82801  0.45856  1.0000
  H   H1886     1.0  0.66251  0.79360  0.30824  1.0000
  H   H1887     1.0  0.55691  0.94512  0.24497  1.0000
  C   C1099     1.0  0.91072  0.51517  0.25924  1.0000
  C   C1100     1.0  0.71771  0.78640  0.44236  1.0000
  C   C1101     1.0  0.63964  0.71915  0.34658  1.0000
  C   C1102     1.0  0.65743  0.70542  0.34894  1.0000
  C   C1103     1.0  0.65434  0.68168  0.34247  1.0000
  C   C1104     1.0  0.63362  0.67161  0.33344  1.0000
  C   C1105     1.0  0.61583  0.68533  0.33106  1.0000
  C   C1106     1.0  0.61882  0.70898  0.33765  1.0000
  H   H1888     1.0  0.67349  0.71305  0.35582  1.0000
  H   H1889     1.0  0.66812  0.67111  0.34441  1.0000
  H   H1890     1.0  0.59976  0.67770  0.32419  1.0000
  H   H1891     1.0  0.60496  0.71947  0.33580  1.0000
  C   C1107     1.0  0.76836  0.92960  0.36833  1.0000
  C   C1108     1.0  0.77145  0.90542  0.36627  1.0000
  C   C1109     1.0  0.75242  0.88681  0.36024  1.0000
  C   C1110     1.0  0.73014  0.89238  0.35621  1.0000
  C   C1111     1.0  0.72721  0.91684  0.35780  1.0000
  C   C1112     1.0  0.74617  0.93536  0.36413  1.0000
  H   H1892     1.0  0.78816  0.90076  0.36986  1.0000
  H   H1893     1.0  0.75496  0.86813  0.35872  1.0000
  H   H1894     1.0  0.71015  0.92130  0.35443  1.0000
  H   H1895     1.0  0.74377  0.95415  0.36558  1.0000
  C   C1113     1.0  0.91840  0.73307  0.36727  1.0000
  C   C1114     1.0  0.91876  0.72202  0.35076  1.0000
  C   C1115     1.0  0.91297  0.69469  0.35245  1.0000
  C   C1116     1.0  0.90660  0.67823  0.37071  1.0000
  C   C1117     1.0  0.90687  0.68933  0.38719  1.0000
  C   C1118     1.0  0.91286  0.71670  0.38549  1.0000
  H   H1896     1.0  0.93828  0.87401  0.45152  1.0000
  H   H1897     1.0  0.91292  0.68632  0.33967  1.0000
  H   H1898     1.0  0.90206  0.67667  0.40134  1.0000
  H   H1899     1.0  0.91267  0.72507  0.39827  1.0000
  C   C1119     1.0  0.83159  0.81242  0.40407  1.0000
  C   C1120     1.0  0.83801  0.80010  0.38909  1.0000
  C   C1121     1.0  0.81937  0.79033  0.37829  1.0000
  C   C1122     1.0  0.79409  0.79225  0.38267  1.0000
  C   C1123     1.0  0.78752  0.80397  0.39800  1.0000
  C   C1124     1.0  0.80632  0.81428  0.40853  1.0000
  H   H1900     1.0  0.85754  0.79875  0.38548  1.0000
  H   H1901     1.0  0.82467  0.78164  0.36629  1.0000
  H   H1902     1.0  0.76801  0.80516  0.40173  1.0000
  H   H1903     1.0  0.85399  0.55540  0.29315  1.0000
  C   C1125     1.0  0.55472  0.86440  0.25548  1.0000
  C   C1126     1.0  0.96629  0.65040  0.26523  1.0000
  C   C1127     1.0  0.48454  0.49999  0.34202  1.0000
  H   H1904     1.0  0.59085  0.57307  0.39616  1.0000
  S   S342      1.0  0.84240  0.49504  0.24259  1.0000
  H   H1905     1.0  0.55257  0.60946  0.38334  1.0000
  H   H1906     1.0  0.69544  0.95092  0.38169  1.0000
  H   H1907     1.0  0.95334  0.92746  0.46272  1.0000
  H   H1908     1.0  0.92317  0.73463  0.33662  1.0000
  C   C1128     1.0  0.52887  0.97880  0.26385  1.0000
  H   H1909     1.0  0.61250  0.54926  0.27785  1.0000
  S   S343      1.0  0.56347  0.87319  0.29043  1.0000
  H   H1910     1.0  0.60325  0.86912  0.31315  1.0000
  N   N76       1.0  0.83118  0.71072  0.36735  1.0000
  C   C1129     1.0  0.84254  0.70193  0.38411  1.0000
  C   C1130     1.0  0.82418  0.68798  0.35722  1.0000
  C   C1131     1.0  0.80660  0.71623  0.37569  1.0000
  C   C1132     1.0  0.85117  0.73520  0.35451  1.0000
  C   C1133     1.0  0.84953  0.72154  0.39747  1.0000
  C   C1134     1.0  0.84707  0.67850  0.34928  1.0000
  C   C1135     1.0  0.79016  0.72345  0.36144  1.0000
  C   C1136     1.0  0.84848  0.74197  0.33330  1.0000
  H   H1911     1.0  0.82902  0.68298  0.39336  1.0000
  H   H1912     1.0  0.86098  0.69793  0.37885  1.0000
  H   H1913     1.0  0.81512  0.69236  0.34489  1.0000
  H   H1914     1.0  0.80895  0.67067  0.36718  1.0000
  H   H1915     1.0  0.79335  0.69891  0.38684  1.0000
  H   H1916     1.0  0.81122  0.73295  0.38322  1.0000
  H   H1917     1.0  0.85151  0.75272  0.36093  1.0000
  H   H1918     1.0  0.87119  0.73364  0.35372  1.0000
  H   H1919     1.0  0.83191  0.72376  0.40618  1.0000
  H   H1920     1.0  0.85996  0.71384  0.40793  1.0000
  H   H1921     1.0  0.86299  0.74104  0.38935  1.0000
  H   H1922     1.0  0.84074  0.66496  0.33951  1.0000
  H   H1923     1.0  0.86439  0.69494  0.34086  1.0000
  H   H1924     1.0  0.85282  0.66703  0.36106  1.0000
  H   H1925     1.0  0.80045  0.74302  0.35185  1.0000
  H   H1926     1.0  0.77202  0.72520  0.36985  1.0000
  H   H1927     1.0  0.78363  0.70827  0.35296  1.0000
  H   H1928     1.0  0.85311  0.76363  0.32891  1.0000
  H   H1929     1.0  0.82895  0.73302  0.33041  1.0000
  H   H1930     1.0  0.86336  0.73692  0.32350  1.0000
  C   C1137     1.0  0.95837  0.88751  0.44466  1.0000
  C   C1138     1.0  0.61121  0.83216  0.32205  1.0000
  C   C1139     1.0  0.49375  0.96854  0.33750  1.0000
  C   C1140     1.0  0.65597  0.88680  0.32616  1.0000
  H   H1931     1.0  0.62344  0.85297  0.35492  1.0000
  H   H1932     1.0  0.63714  0.89051  0.32601  1.0000
  H   H1933     1.0  0.67140  0.90357  0.31600  1.0000
  H   H1934     1.0  0.59154  0.59038  0.34516  1.0000
  C   C1141     1.0  0.73996  0.88835  0.47312  1.0000
  H   H1935     1.0  0.56052  0.57705  0.40545  1.0000
  H   H1936     1.0  0.97964  0.60325  0.31800  1.0000
  H   H1937     1.0  0.52660  0.97388  0.24961  1.0000
  C   C1142     1.0  0.50086  0.51299  0.28571  1.0000
  C   C1143     1.0  0.81340  0.86101  0.35842  1.0000
  H   H1938     1.0  0.50140  0.55167  0.37762  1.0000
  C   C1144     1.0  0.54633  0.53610  0.25029  1.0000
  S   S344      1.0  0.92304  0.76705  0.36461  1.0000
  H   H1939     1.0  0.59743  0.81169  0.32702  1.0000
  H   H1940     1.0  0.51488  0.97404  0.33460  1.0000
  H   H1941     1.0  0.96691  0.50034  0.24750  1.0000
  C   C1145     1.0  0.65983  0.93197  0.37275  1.0000
  H   H1942     1.0  0.63549  0.84503  0.39079  1.0000
  H   H1943     1.0  0.97435  0.92043  0.41920  1.0000
  C   C1146     1.0  0.77864  0.90391  0.44671  1.0000
  C   C1147     1.0  0.50431  0.96358  0.27974  1.0000
  S   S345      1.0  0.92054  0.82684  0.43059  1.0000
  H   H1944     1.0  0.66121  0.81331  0.33659  1.0000
  C   C1148     1.0  0.73498  0.78491  0.45477  1.0000
  C   C1149     1.0  0.86207  0.62948  0.27118  1.0000
  H   H1945     1.0  0.58564  0.92934  0.26631  1.0000
  H   H1946     1.0  0.79331  0.50583  0.30773  1.0000
  H   H1947     1.0  0.62721  0.84142  0.45703  1.0000
  H   H1948     1.0  0.94498  0.84042  0.47193  1.0000
  C   C1150     1.0  0.95538  0.90982  0.47165  1.0000
  H   H1949     1.0  0.92252  0.53609  0.25790  1.0000
  S   S346      1.0  0.94008  0.65938  0.27634  1.0000
  H   H1950     1.0  0.89947  0.65747  0.25644  1.0000
  N   N77       1.0  0.88982  0.62884  0.23841  1.0000
  Fe  Fe172     1.0  0.81194  0.51228  0.23452  1.0000
  C   C1151     1.0  0.59478  0.55312  0.35741  1.0000
  H   H1951     1.0  0.56233  0.53206  0.41581  1.0000
  H   H1952     1.0  0.70753  0.85519  0.41820  1.0000
  S   S347      1.0  0.80764  0.55065  0.23978  1.0000
  C   C1152     1.0  0.70468  0.79117  0.48073  1.0000
  H   H1953     1.0  0.86281  0.79822  0.46277  1.0000
  N   N78       1.0  0.75910  0.87973  0.46017  1.0000
  H   H1954     1.0  0.56935  0.85452  0.25572  1.0000
  H   H1955     1.0  0.86928  0.61551  0.27993  1.0000
  H   H1956     1.0  0.59055  0.65380  0.23855  1.0000
  S   S348      1.0  0.54757  0.93564  0.30476  1.0000
  S   S349      1.0  0.57244  0.95466  0.34179  1.0000
  H   H1957     1.0  0.77528  0.86894  0.42285  1.0000
  N   N79       1.0  0.66585  0.87562  0.42461  1.0000
  C   C1153     1.0  0.64974  0.85425  0.41619  1.0000
  C   C1154     1.0  0.66892  0.86310  0.44408  1.0000
  C   C1155     1.0  0.69263  0.88895  0.41183  1.0000
  C   C1156     1.0  0.65216  0.89591  0.42633  1.0000
  C   C1157     1.0  0.64591  0.86285  0.39561  1.0000
  C   C1158     1.0  0.64454  0.85484  0.46062  1.0000
  C   C1159     1.0  0.70776  0.87036  0.40593  1.0000
  C   C1160     1.0  0.66557  0.91904  0.43537  1.0000
  H   H1958     1.0  0.65826  0.83793  0.41592  1.0000
  H   H1959     1.0  0.62977  0.84495  0.42542  1.0000
  H   H1960     1.0  0.68534  0.87612  0.44900  1.0000
  H   H1961     1.0  0.67438  0.84498  0.44320  1.0000
  H   H1962     1.0  0.69164  0.90157  0.39834  1.0000
  H   H1963     1.0  0.70521  0.90279  0.41904  1.0000
  H   H1964     1.0  0.65047  0.90518  0.41185  1.0000
  H   H1965     1.0  0.63141  0.88672  0.43423  1.0000
  C   C1161     1.0  0.50078  0.52613  0.33568  1.0000
  C   C1162     1.0  0.88685  0.50874  0.27590  1.0000
  H   H1966     1.0  0.50512  0.85931  0.31090  1.0000
  H   H1967     1.0  0.87651  0.52330  0.27290  1.0000
  H   H1968     1.0  0.84116  0.50699  0.30129  1.0000
  H   H1969     1.0  0.66788  0.52015  0.23907  1.0000
  Fe  Fe173     1.0  0.75380  0.98101  0.43206  1.0000
  C   C1163     1.0  0.59194  0.94863  0.25607  1.0000
  H   H1970     1.0  0.49962  0.52858  0.27448  1.0000
  H   H1971     1.0  0.67618  0.93691  0.42390  1.0000
  H   H1972     1.0  0.67962  0.91503  0.44401  1.0000
  H   H1973     1.0  0.65052  0.92379  0.44523  1.0000
  N   N80       1.0  0.56871  0.57977  0.37439  1.0000
  H   H1974     1.0  0.76048  0.84595  0.48020  1.0000
  C   C1164     1.0  0.54392  0.56539  0.36860  1.0000
  C   C1165     1.0  0.59192  0.57997  0.35971  1.0000
  C   C1166     1.0  0.57009  0.56814  0.39459  1.0000
  C   C1167     1.0  0.81378  0.76525  0.48113  1.0000
  C   C1168     1.0  0.95349  0.85226  0.48206  1.0000
  H   H1975     1.0  0.50217  0.94248  0.28021  1.0000
  C   C1169     1.0  0.55730  0.53806  0.40175  1.0000
  N   N81       1.0  0.51589  0.49631  0.27757  1.0000
  H   H1976     1.0  0.85012  0.60272  0.24258  1.0000
  H   H1977     1.0  0.54138  0.54413  0.36979  1.0000
  H   H1978     1.0  0.54492  0.57271  0.35309  1.0000
  C   C1170     1.0  0.95521  0.90808  0.42859  1.0000
  H   H1979     1.0  0.61069  0.59110  0.36303  1.0000
  C   C1171     1.0  0.86022  0.79094  0.47850  1.0000
  H   H1980     1.0  0.66465  0.87236  0.38495  1.0000
  S   S350      1.0  0.75039  0.95887  0.46195  1.0000
  H   H1981     1.0  0.50906  0.96755  0.29383  1.0000
  H   H1982     1.0  0.96888  0.53285  0.27384  1.0000
  H   H1983     1.0  0.74810  0.84010  0.42587  1.0000
  H   H1984     1.0  0.63345  0.87578  0.39519  1.0000
  Fe  Fe174     1.0  0.77434  0.97844  0.39123  1.0000
  C   C1172     1.0  0.81849  0.76850  0.45894  1.0000
  H   H1985     1.0  0.72241  0.53389  0.24979  1.0000
  H   H1986     1.0  0.78650  0.91921  0.45493  1.0000
  N   N82       1.0  0.85761  0.89216  0.36285  1.0000
  C   C1173     1.0  0.88649  0.89645  0.35620  1.0000
  C   C1174     1.0  0.85155  0.91502  0.35204  1.0000
  C   C1175     1.0  0.84300  0.86701  0.35735  1.0000
  C   C1176     1.0  0.85187  0.88994  0.38451  1.0000
  C   C1177     1.0  0.89623  0.87373  0.36418  1.0000
  C   C1178     1.0  0.86818  0.94257  0.35377  1.0000
  H   H1987     1.0  0.89204  0.90026  0.34012  1.0000
  H   H1988     1.0  0.89859  0.91418  0.36045  1.0000
  H   H1989     1.0  0.83085  0.91370  0.35679  1.0000
  H   H1990     1.0  0.85400  0.91464  0.33635  1.0000
  H   H1991     1.0  0.85162  0.86680  0.34221  1.0000
  H   H1992     1.0  0.86876  0.90289  0.38908  1.0000
  H   H1993     1.0  0.89093  0.86816  0.38018  1.0000
  H   H1994     1.0  0.88885  0.85611  0.35802  1.0000
  H   H1995     1.0  0.85853  0.95720  0.34902  1.0000
  H   H1996     1.0  0.87028  0.94356  0.36880  1.0000
  H   H1997     1.0  0.88791  0.94873  0.34419  1.0000
  H   H1998     1.0  0.80862  0.87664  0.34930  1.0000
  H   H1999     1.0  0.80935  0.88431  0.39114  1.0000
  S   S351      1.0  0.52809  0.64515  0.28020  1.0000
  H   H2000     1.0  0.64748  0.83800  0.35768  1.0000
  H   H2001     1.0  0.51230  0.60259  0.25973  1.0000
  H   H2002     1.0  0.67341  0.50107  0.28120  1.0000
  Fe  Fe175     1.0  0.58555  0.96085  0.30956  1.0000
  C   C1179     1.0  0.51304  0.62083  0.25077  1.0000
  H   H2003     1.0  0.78918  0.86127  0.46216  1.0000
  C   C1180     1.0  0.93588  0.49564  0.27994  1.0000
  Fe  Fe176     1.0  0.92102  0.78537  0.43303  1.0000
  H   H2004     1.0  0.82611  0.89358  0.40950  1.0000
  C   C1181     1.0  0.82781  0.89687  0.39361  1.0000
  H   H2005     1.0  0.91795  0.88015  0.35996  1.0000
  C   C1182     1.0  0.76826  0.91730  0.43044  1.0000
  H   H2006     1.0  0.60089  0.54395  0.37002  1.0000
  H   H2007     1.0  0.51118  0.52369  0.29578  1.0000
  N   N83       1.0  0.69664  0.50020  0.24178  1.0000
  C   C1183     1.0  0.81168  0.55558  0.26287  1.0000
  H   H2008     1.0  0.77773  0.93892  0.42787  1.0000
  H   H2009     1.0  0.86800  0.50470  0.32527  1.0000
  C   C1184     1.0  0.83303  0.55166  0.27000  1.0000
  H   H2010     1.0  0.90292  0.51465  0.24579  1.0000
  H   H2011     1.0  0.84516  0.84961  0.36650  1.0000
  H   H2012     1.0  0.56335  0.55316  0.25034  1.0000
  H   H2013     1.0  0.60946  0.50252  0.27834  1.0000
  H   H2014     1.0  0.65698  0.86405  0.30410  1.0000
  H   H2015     1.0  0.56858  0.61721  0.35857  1.0000
  H   H2016     1.0  0.96178  0.51504  0.33121  1.0000
  S   S352      1.0  0.79216  0.95202  0.37660  1.0000
  H   H2017     1.0  0.84668  0.54462  0.26144  1.0000
  Fe  Fe177     1.0  0.58845  0.92062  0.34265  1.0000
  H   H2018     1.0  0.90818  0.61581  0.26105  1.0000
  H   H2019     1.0  0.80192  0.75404  0.45522  1.0000
  N   N84       1.0  0.97264  0.89819  0.45964  1.0000
  H   H2020     1.0  0.66061  0.88725  0.34068  1.0000
  H   H2021     1.0  0.60697  0.95344  0.37467  1.0000
  H   H2022     1.0  0.58904  0.80768  0.35969  1.0000
  C   C1185     1.0  0.61321  0.54212  0.26456  1.0000
  H   H2023     1.0  0.61079  0.55637  0.34471  1.0000
  H   H2024     1.0  0.84946  0.86971  0.39210  1.0000
  H   H2025     1.0  0.63542  0.98758  0.38831  1.0000
  C   C1186     1.0  0.54803  0.87587  0.27088  1.0000
  H   H2026     1.0  0.50210  0.56660  0.32847  1.0000
  C   C1187     1.0  0.65662  0.86096  0.31988  1.0000
  H   H2027     1.0  0.59476  0.85737  0.33901  1.0000
  H   H2028     1.0  0.51753  0.56516  0.39558  1.0000
  H   H2029     1.0  0.94442  0.92067  0.43438  1.0000
  H   H2030     1.0  0.52384  0.89758  0.28235  1.0000
  H   H2031     1.0  0.80214  0.85622  0.37343  1.0000
  H   H2032     1.0  0.75335  0.78186  0.44946  1.0000
  H   H2033     1.0  0.60386  0.81404  0.37963  1.0000
  N   N85       1.0  0.63523  0.83592  0.33062  1.0000
  S   S353      1.0  0.49296  0.91752  0.35016  1.0000
  C   C1188     1.0  0.52911  0.88871  0.27048  1.0000
  N   N86       1.0  0.92744  0.49748  0.26088  1.0000
  H   H2034     1.0  0.48616  0.84299  0.28574  1.0000
  H   H2035     1.0  0.82965  0.91784  0.38867  1.0000
  H   H2036     1.0  0.80619  0.84294  0.35267  1.0000
  C   C1189     1.0  0.60780  0.81116  0.36458  1.0000
  H   H2037     1.0  0.59136  0.64609  0.37842  1.0000
  H   H2038     1.0  0.77419  0.91189  0.41648  1.0000
  S   S354      1.0  0.55063  0.89156  0.34088  1.0000
  H   H2039     1.0  0.77153  0.83975  0.44056  1.0000
  C   C1190     1.0  0.68749  0.79283  0.46830  1.0000
  C   C1191     1.0  0.59552  0.85132  0.32495  1.0000
  H   H2040     1.0  0.74692  0.91378  0.43374  1.0000
  H   H2041     1.0  0.88203  0.59062  0.25689  1.0000
  Fe  Fe178     1.0  0.56489  0.90314  0.30888  1.0000
  H   H2042     1.0  0.67351  0.82849  0.30033  1.0000
  H   H2043     1.0  0.61655  0.83410  0.30614  1.0000
  C   C1192     1.0  0.64528  0.81305  0.32847  1.0000
  H   H2044     1.0  0.61396  0.79330  0.36528  1.0000
  H   H2045     1.0  0.72919  0.89867  0.46456  1.0000
  H   H2046     1.0  0.94580  0.60869  0.27227  1.0000
  H   H2047     1.0  0.85877  0.64354  0.28030  1.0000
  H   H2048     1.0  0.62962  0.79393  0.33478  1.0000
  H   H2049     1.0  0.66662  0.91649  0.36831  1.0000
  C   C1193     1.0  0.67610  0.95138  0.38035  1.0000
  Fe  Fe179     1.0  0.95206  0.83558  0.40407  1.0000
  S   S355      1.0  0.73512  0.95931  0.41114  1.0000
  H   H2050     1.0  0.59630  0.61911  0.39331  1.0000
  C   C1194     1.0  0.69399  0.79045  0.44912  1.0000
  H   H2051     1.0  0.61217  0.62989  0.36799  1.0000
  H   H2052     1.0  0.64095  0.80893  0.29878  1.0000
  H   H2053     1.0  0.83131  0.84803  0.47127  1.0000
  C   C1195     1.0  0.61141  0.50613  0.24773  1.0000
  C   C1196     1.0  0.62629  0.95293  0.37607  1.0000
  C   C1197     1.0  0.61156  0.51570  0.26482  1.0000
  C   C1198     1.0  0.70784  0.51429  0.25672  1.0000
  C   C1199     1.0  0.68788  0.51952  0.27221  1.0000
  H   H2054     1.0  0.73098  0.86954  0.44203  1.0000
  C   C1200     1.0  0.96396  0.62397  0.26535  1.0000
  H   H2055     1.0  0.63682  0.97263  0.32928  1.0000
  H   H2056     1.0  0.79582  0.89905  0.43963  1.0000
  C   C1201     1.0  0.52307  0.87747  0.23955  1.0000
  H   H2057     1.0  0.63989  0.87217  0.46471  1.0000
  H   H2058     1.0  0.81519  0.52647  0.36279  1.0000
  S   S356      1.0  0.91370  0.76237  0.46316  1.0000
  C   C1202     1.0  0.56967  0.60811  0.37333  1.0000
  H   H2059     1.0  0.53564  0.53222  0.40439  1.0000
  H   H2060     1.0  0.73120  0.84269  0.45914  1.0000
  C   C1203     1.0  0.63499  0.93282  0.37047  1.0000
  H   H2061     1.0  0.66002  0.97495  0.30745  1.0000
  H   H2062     1.0  0.67752  0.53243  0.26585  1.0000
  C   C1204     1.0  0.88195  0.64503  0.25226  1.0000
  S   S357      1.0  0.61510  0.90838  0.36081  1.0000
  H   H2063     1.0  0.48749  0.98017  0.24593  1.0000
  H   H2064     1.0  0.81925  0.78809  0.45141  1.0000
  H   H2065     1.0  0.50145  0.89874  0.25460  1.0000
  C   C1205     1.0  0.82762  0.82738  0.46952  1.0000
  C   C1206     1.0  0.95148  0.50907  0.24487  1.0000
  H   H2066     1.0  0.93484  0.89632  0.47632  1.0000
  C   C1207     1.0  0.90334  0.51243  0.35779  1.0000
  H   H2067     1.0  0.84272  0.61891  0.26851  1.0000
  C   C1208     1.0  0.93803  0.77609  0.47526  1.0000
  H   H2068     1.0  0.55378  0.52253  0.27807  1.0000
  H   H2069     1.0  0.95636  0.51798  0.29867  1.0000
  H   H2070     1.0  0.80947  0.82128  0.46382  1.0000
  C   C1209     1.0  0.66736  0.97156  0.38591  1.0000
  H   H2071     1.0  0.55094  0.53020  0.23632  1.0000
  C   C1210     1.0  0.74427  0.86111  0.44914  1.0000
  H   H2072     1.0  0.69983  0.86041  0.39473  1.0000
  H   H2073     1.0  0.97023  0.78414  0.45112  1.0000
  C   C1211     1.0  0.54323  0.51349  0.26738  1.0000
  H   H2074     1.0  0.56406  0.52653  0.39181  1.0000
  H   H2075     1.0  0.72853  0.88207  0.39963  1.0000
  C   C1212     1.0  0.76113  0.85230  0.43378  1.0000
  H   H2076     1.0  0.66907  0.79576  0.47360  1.0000
  H   H2077     1.0  0.64861  0.84400  0.47362  1.0000
  H   H2078     1.0  0.57707  0.53948  0.35447  1.0000
  C   C1213     1.0  0.51827  0.56741  0.37985  1.0000
  H   H2079     1.0  0.86542  0.77241  0.47953  1.0000
  C   C1214     1.0  0.94264  0.50684  0.34073  1.0000
  C   C1215     1.0  0.49261  0.49476  0.24839  1.0000
  H   H2080     1.0  0.96838  0.87530  0.43728  1.0000
  H   H2081     1.0  0.71873  0.50307  0.26454  1.0000
  C   C1216     1.0  0.77362  0.86561  0.47184  1.0000
  C   C1217     1.0  0.54263  0.86562  0.23971  1.0000
  H   H2082     1.0  0.84236  0.51452  0.36163  1.0000
  H   H2083     1.0  0.80926  0.49170  0.36883  1.0000
  H   H2084     1.0  0.57569  0.92652  0.23594  1.0000
  C   C1218     1.0  0.72849  0.78733  0.47397  1.0000
  C   C1219     1.0  0.91956  0.59859  0.23789  1.0000
  H   H2085     1.0  0.65744  0.95252  0.32902  1.0000
  H   H2086     1.0  0.80354  0.51298  0.33491  1.0000
  C   C1220     1.0  0.82221  0.51019  0.35897  1.0000
  H   H2087     1.0  0.50896  0.50781  0.23676  1.0000
  H   H2088     1.0  0.58688  0.96286  0.26431  1.0000
  H   H2089     1.0  0.90063  0.81420  0.47566  1.0000
  C   C1221     1.0  0.89893  0.60823  0.24939  1.0000
  H   H2090     1.0  0.61349  0.95482  0.25119  1.0000
  H   H2091     1.0  0.92214  0.58171  0.24732  1.0000
  C   C1222     1.0  0.48148  0.98777  0.33371  1.0000
  H   H2092     1.0  0.75033  0.90328  0.48075  1.0000
  C   C1223     1.0  0.74631  0.97777  0.47926  1.0000
  H   H2093     1.0  0.87293  0.65898  0.24534  1.0000
  H   H2094     1.0  0.96061  0.53031  0.24446  1.0000
  H   H2095     1.0  0.55477  0.50152  0.26142  1.0000
  H   H2096     1.0  0.54562  0.97307  0.26779  1.0000
  C   C1224     1.0  0.48966  0.54634  0.33322  1.0000
  C   C1225     1.0  0.57747  0.94622  0.23923  1.0000
  C   C1226     1.0  0.97790  0.87545  0.47134  1.0000
  C   C1227     1.0  0.79991  0.48959  0.30353  1.0000
  H   H2097     1.0  0.97999  0.57532  0.29438  1.0000
  H   H2098     1.0  0.87821  0.83055  0.48395  1.0000
  C   C1228     1.0  0.53475  0.64894  0.70757  1.0000
  C   C1229     1.0  0.62376  0.94856  0.58091  1.0000
  H   H2099     1.0  0.87014  0.95047  0.56013  1.0000
  Fe  Fe180     1.0  0.94374  0.84902  0.54428  1.0000
  S   S358      1.0  0.94602  0.80830  0.55214  1.0000
  S   S359      1.0  0.91246  0.85988  0.53096  1.0000
  Fe  Fe181     1.0  0.51681  0.61900  0.62122  1.0000
  H   H2100     1.0  0.69370  0.62511  0.58792  1.0000
  H   H2101     1.0  0.56728  0.75342  0.54185  1.0000
  C   C1230     1.0  0.53004  0.67190  0.56916  1.0000
  C   C1231     1.0  0.97739  0.67710  0.54587  1.0000
  H   H2102     1.0  0.96028  0.71616  0.65944  1.0000
  H   H2103     1.0  0.65730  0.63944  0.59859  1.0000
  Fe  Fe182     1.0  0.76297  0.79684  0.55426  1.0000
  S   S360      1.0  0.73157  0.81031  0.56965  1.0000
  S   S361      1.0  0.79564  0.78950  0.56772  1.0000
  Fe  Fe183     1.0  0.73902  0.79251  0.51907  1.0000
  S   S362      1.0  0.70539  0.80528  0.53128  1.0000
  H   H2104     1.0  0.70026  0.95903  0.59203  1.0000
  Fe  Fe184     1.0  0.73545  0.83559  0.54085  1.0000
  S   S363      1.0  0.73511  0.87722  0.53359  1.0000
  Fe  Fe185     1.0  0.70379  0.77874  0.55906  1.0000
  S   S364      1.0  0.66463  0.75651  0.57911  1.0000
  S   S365      1.0  0.76927  0.82503  0.52640  1.0000
  S   S366      1.0  0.73493  0.76307  0.54601  1.0000
  C   C1232     1.0  0.86792  0.49480  0.70221  1.0000
  S   S367      1.0  0.49504  0.64833  0.61840  1.0000
  C   C1233     1.0  0.94984  0.78726  0.50482  1.0000
  Fe  Fe186     1.0  0.94522  0.61758  0.66261  1.0000
  H   H2105     1.0  0.62787  0.96402  0.58949  1.0000
  H   H2106     1.0  0.85956  0.55790  0.70711  1.0000
  H   H2107     1.0  0.94200  0.59119  0.70349  1.0000
  H   H2108     1.0  0.59383  0.73987  0.54203  1.0000
  C   C1234     1.0  0.94641  0.54691  0.66986  1.0000
  C   C1235     1.0  0.71896  0.86620  0.48849  1.0000
  Fe  Fe187     1.0  0.57033  0.61519  0.60587  1.0000
  S   S368      1.0  0.55483  0.63027  0.63107  1.0000
  S   S369      1.0  0.60985  0.63474  0.58576  1.0000
  Fe  Fe188     1.0  0.54134  0.58832  0.64719  1.0000
  S   S370      1.0  0.54512  0.57918  0.67814  1.0000
  S   S371      1.0  0.56022  0.57399  0.62284  1.0000
  Fe  Fe189     1.0  0.52168  0.56722  0.61375  1.0000
  H   H2109     1.0  0.49475  0.64408  0.72095  1.0000
  S   S372      1.0  0.80155  0.95971  0.57471  1.0000
  C   C1236     1.0  0.50824  0.93212  0.70746  1.0000
  N   N87       1.0  0.49343  0.62754  0.69543  1.0000
  H   H2110     1.0  0.83895  0.75617  0.51069  1.0000
  H   H2111     1.0  0.88782  0.92273  0.54946  1.0000
  C   C1237     1.0  0.54730  0.72019  0.58512  1.0000
  C   C1238     1.0  0.65678  0.67826  0.62734  1.0000
  C   C1239     1.0  0.52560  0.53469  0.70702  1.0000
  C   C1240     1.0  0.53565  0.54508  0.68719  1.0000
  C   C1241     1.0  0.53697  0.52805  0.67454  1.0000
  H   H2112     1.0  0.95123  0.73048  0.67899  1.0000
  S   S373      1.0  0.95581  0.79637  0.60422  1.0000
  H   H2113     1.0  0.52436  0.54777  0.71686  1.0000
  H   H2114     1.0  0.54469  0.53580  0.65927  1.0000
  H   H2115     1.0  0.65851  0.63170  0.65839  1.0000
  C   C1242     1.0  0.92315  0.57792  0.71104  1.0000
  H   H2116     1.0  0.69582  0.60828  0.65314  1.0000
  H   H2117     1.0  0.97474  0.56721  0.62134  1.0000
  H   H2118     1.0  0.56653  0.69097  0.58854  1.0000
  C   C1243     1.0  0.97642  0.79529  0.49603  1.0000
  C   C1244     1.0  0.65005  0.72269  0.58068  1.0000
  C   C1245     1.0  0.66188  0.70847  0.56957  1.0000
  C   C1246     1.0  0.64938  0.68143  0.57119  1.0000
  C   C1247     1.0  0.62504  0.66862  0.58383  1.0000
  C   C1248     1.0  0.61337  0.68286  0.59497  1.0000
  C   C1249     1.0  0.62583  0.70980  0.59340  1.0000
  H   H2119     1.0  0.68055  0.71832  0.55970  1.0000
  H   H2120     1.0  0.65853  0.67050  0.56252  1.0000
  H   H2121     1.0  0.59483  0.67313  0.60490  1.0000
  H   H2122     1.0  0.61671  0.72074  0.60209  1.0000
  C   C1250     1.0  0.66922  0.63658  0.60949  1.0000
  H   H2123     1.0  0.80490  0.75382  0.53796  1.0000
  H   H2124     1.0  0.62031  0.60405  0.61975  1.0000
  C   C1251     1.0  0.58108  0.98634  0.73362  1.0000
  H   H2125     1.0  0.61956  0.59481  0.66366  1.0000
  H   H2126     1.0  0.61323  0.70732  0.55347  1.0000
  H   H2127     1.0  0.67015  0.59756  0.60422  1.0000
  H   H2128     1.0  0.96767  0.55795  0.66546  1.0000
  C   C1252     1.0  0.95650  0.73926  0.54825  1.0000
  C   C1253     1.0  0.96412  0.91887  0.48965  1.0000
  C   C1254     1.0  0.78168  0.93640  0.56431  1.0000
  C   C1255     1.0  0.77274  0.94483  0.54808  1.0000
  C   C1256     1.0  0.75825  0.92644  0.53890  1.0000
  C   C1257     1.0  0.75268  0.89949  0.54588  1.0000
  C   C1258     1.0  0.76120  0.89090  0.56236  1.0000
  C   C1259     1.0  0.77547  0.90939  0.57170  1.0000
  H   H2129     1.0  0.77752  0.96559  0.54243  1.0000
  H   H2130     1.0  0.75167  0.93307  0.52618  1.0000
  H   H2131     1.0  0.75656  0.87007  0.56801  1.0000
  H   H2132     1.0  0.78154  0.90275  0.58466  1.0000
  C   C1260     1.0  0.69460  0.95907  0.55387  1.0000
  C   C1261     1.0  0.61059  0.59386  0.65085  1.0000
  C   C1262     1.0  0.50650  0.64781  0.70604  1.0000
  H   H2133     1.0  0.61161  0.95316  0.57066  1.0000
  H   H2134     1.0  0.97647  0.74411  0.51131  1.0000
  C   C1263     1.0  0.94856  0.74404  0.61758  1.0000
  C   C1264     1.0  0.87415  0.54398  0.73161  1.0000
  H   H2135     1.0  0.71312  0.97599  0.54926  1.0000
  H   H2136     1.0  0.79325  0.76476  0.48613  1.0000
  H   H2137     1.0  0.93303  0.74469  0.62873  1.0000
  C   C1265     1.0  0.88050  0.83824  0.54000  1.0000
  C   C1266     1.0  0.87474  0.81815  0.55630  1.0000
  C   C1267     1.0  0.84863  0.80273  0.56435  1.0000
  C   C1268     1.0  0.82823  0.80741  0.55619  1.0000
  C   C1269     1.0  0.83416  0.82705  0.53957  1.0000
  C   C1270     1.0  0.86024  0.84237  0.53145  1.0000
  H   H2138     1.0  0.89029  0.81495  0.56304  1.0000
  H   H2139     1.0  0.84417  0.78758  0.57725  1.0000
  H   H2140     1.0  0.81868  0.83096  0.53327  1.0000
  H   H2141     1.0  0.86465  0.85797  0.51886  1.0000
  H   H2142     1.0  0.49529  0.85692  0.71375  1.0000
  C   C1271     1.0  0.93318  0.73133  0.56567  1.0000
  C   C1272     1.0  0.51799  0.65361  0.55614  1.0000
  H   H2143     1.0  0.49729  0.64244  0.56331  1.0000
  H   H2144     1.0  0.78952  0.74685  0.51831  1.0000
  C   C1273     1.0  0.93073  0.77732  0.49457  1.0000
  H   H2145     1.0  0.61191  0.93040  0.59174  1.0000
  H   H2146     1.0  0.70744  0.87521  0.49794  1.0000
  C   C1274     1.0  0.94274  0.51935  0.68153  1.0000
  H   H2147     1.0  0.54186  0.73291  0.57400  1.0000
  N   N88       1.0  0.55660  0.69208  0.56047  1.0000
  Fe  Fe190     1.0  0.56557  0.98052  0.67486  1.0000
  C   C1275     1.0  0.83091  0.77294  0.51001  1.0000
  C   C1276     1.0  0.57531  0.73818  0.53716  1.0000
  H   H2148     1.0  0.96164  0.75038  0.65516  1.0000
  H   H2149     1.0  0.56831  0.66556  0.54375  1.0000
  H   H2150     1.0  0.60455  0.70569  0.53006  1.0000
  C   C1277     1.0  0.48288  0.91460  0.71513  1.0000
  H   H2151     1.0  0.52792  0.63864  0.55439  1.0000
  H   H2152     1.0  0.77167  0.96455  0.49564  1.0000
  H   H2153     1.0  0.93753  0.55834  0.67874  1.0000
  C   C1278     1.0  0.51706  0.49031  0.70121  1.0000
  H   H2154     1.0  0.65336  0.92905  0.58008  1.0000
  H   H2155     1.0  0.95105  0.52018  0.62315  1.0000
  H   H2156     1.0  0.68488  0.65576  0.60744  1.0000
  C   C1279     1.0  0.55420  0.71064  0.54339  1.0000
  H   H2157     1.0  0.95383  0.69002  0.56641  1.0000
  C   C1280     1.0  0.92077  0.56237  0.72912  1.0000
  H   H2158     1.0  0.95950  0.83913  0.49248  1.0000
  H   H2159     1.0  0.62419  0.64809  0.62254  1.0000
  H   H2160     1.0  0.80363  0.80440  0.49634  1.0000
  N   N89       1.0  0.85131  0.89529  0.56763  1.0000
  C   C1281     1.0  0.84270  0.86719  0.57882  1.0000
  C   C1282     1.0  0.87963  0.90215  0.55767  1.0000
  C   C1283     1.0  0.83505  0.89619  0.55248  1.0000
  C   C1284     1.0  0.84704  0.91276  0.58154  1.0000
  C   C1285     1.0  0.81317  0.85450  0.58775  1.0000
  C   C1286     1.0  0.89842  0.89801  0.57095  1.0000
  C   C1287     1.0  0.84063  0.92301  0.53904  1.0000
  C   C1288     1.0  0.86427  0.94203  0.57579  1.0000
  H   H2161     1.0  0.84833  0.85424  0.56954  1.0000
  H   H2162     1.0  0.85290  0.86549  0.59102  1.0000
  H   H2163     1.0  0.88144  0.89024  0.54649  1.0000
  H   H2164     1.0  0.83706  0.88186  0.54320  1.0000
  H   H2165     1.0  0.81395  0.89006  0.55922  1.0000
  H   H2166     1.0  0.82624  0.91222  0.58442  1.0000
  H   H2167     1.0  0.85084  0.90519  0.59578  1.0000
  H   H2168     1.0  0.80514  0.86725  0.59593  1.0000
  H   H2169     1.0  0.80177  0.84912  0.57659  1.0000
  H   H2170     1.0  0.81006  0.83574  0.59796  1.0000
  H   H2171     1.0  0.89611  0.87677  0.57530  1.0000
  H   H2172     1.0  0.91897  0.90775  0.56285  1.0000
  H   H2173     1.0  0.89564  0.90640  0.58399  1.0000
  H   H2174     1.0  0.83503  0.93716  0.54709  1.0000
  H   H2175     1.0  0.86118  0.93132  0.53088  1.0000
  H   H2176     1.0  0.85304  0.95399  0.58218  1.0000
  C   C1289     1.0  0.96269  0.76676  0.60346  1.0000
  H   H2177     1.0  0.89667  0.52992  0.68591  1.0000
  C   C1290     1.0  0.88145  0.81117  0.48519  1.0000
  H   H2178     1.0  0.79489  0.77855  0.52511  1.0000
  H   H2179     1.0  0.91769  0.73171  0.52756  1.0000
  H   H2180     1.0  0.53731  0.97508  0.72365  1.0000
  N   N90       1.0  0.91549  0.49975  0.68564  1.0000
  H   H2181     1.0  0.83489  0.82212  0.49845  1.0000
  H   H2182     1.0  0.52269  0.62369  0.67245  1.0000
  C   C1291     1.0  0.63886  0.64934  0.63183  1.0000
  H   H2183     1.0  0.64207  0.93370  0.55875  1.0000
  H   H2184     1.0  0.58527  0.71988  0.57176  1.0000
  H   H2185     1.0  0.92144  0.68988  0.54752  1.0000
  H   H2186     1.0  0.92635  0.49333  0.65700  1.0000
  H   H2187     1.0  0.91025  0.77055  0.50163  1.0000
  C   C1292     1.0  0.68036  0.98368  0.57668  1.0000
  H   H2188     1.0  0.95375  0.75462  0.53746  1.0000
  C   C1293     1.0  0.52809  0.50079  0.68159  1.0000
  H   H2189     1.0  0.67292  0.68114  0.63528  1.0000
  N   N91       1.0  0.96104  0.71722  0.53912  1.0000
  N   N92       1.0  0.83244  0.78517  0.48926  1.0000
  H   H2190     1.0  0.93623  0.72538  0.50654  1.0000
  H   H2191     1.0  0.59847  0.57308  0.65216  1.0000
  C   C1294     1.0  0.92345  0.71639  0.52107  1.0000
  H   H2192     1.0  0.69099  0.98178  0.60472  1.0000
  H   H2193     1.0  0.94651  0.91645  0.50083  1.0000
  H   H2194     1.0  0.93846  0.85845  0.49062  1.0000
  H   H2195     1.0  0.55401  0.70138  0.53053  1.0000
  C   C1295     1.0  0.93637  0.70103  0.53419  1.0000
  H   H2196     1.0  0.51528  0.68152  0.57373  1.0000
  H   H2197     1.0  0.67514  0.59044  0.63963  1.0000
  S   S374      1.0  0.90441  0.59307  0.67910  1.0000
  H   H2198     1.0  0.50690  0.66781  0.69938  1.0000
  C   C1296     1.0  0.75932  0.97691  0.49456  1.0000
  C   C1297     1.0  0.90125  0.57612  0.70284  1.0000
  Fe  Fe191     1.0  0.96663  0.82337  0.57487  1.0000
  H   H2199     1.0  0.57599  0.66315  0.56702  1.0000
  H   H2200     1.0  0.95719  0.51207  0.67319  1.0000
  H   H2201     1.0  0.53083  0.65905  0.58256  1.0000
  C   C1298     1.0  0.69170  0.94560  0.53644  1.0000
  S   S375      1.0  0.56226  0.97874  0.64433  1.0000
  H   H2202     1.0  0.51155  0.95302  0.70516  1.0000
  H   H2203     1.0  0.54447  0.64078  0.69637  1.0000
  C   C1299     1.0  0.66687  0.98534  0.54509  1.0000
  H   H2204     1.0  0.90525  0.70252  0.51884  1.0000
  S   S376      1.0  0.75080  0.78632  0.48902  1.0000
  H   H2205     1.0  0.50798  0.67482  0.66621  1.0000
  C   C1300     1.0  0.66877  0.62845  0.64470  1.0000
  H   H2206     1.0  0.77290  0.88229  0.49810  1.0000
  H   H2207     1.0  0.62744  0.64570  0.64684  1.0000
  C   C1301     1.0  0.97396  0.71943  0.60250  1.0000
  S   S377      1.0  0.96014  0.61740  0.63144  1.0000
  H   H2208     1.0  0.66485  0.68571  0.61160  1.0000
  S   S378      1.0  0.50445  0.52962  0.60423  1.0000
  H   H2209     1.0  0.51786  0.66461  0.54183  1.0000
  H   H2210     1.0  0.94271  0.70270  0.62770  1.0000
  H   H2211     1.0  0.48572  0.52726  0.66572  1.0000
  H   H2212     1.0  0.61523  0.68083  0.54213  1.0000
  C   C1302     1.0  0.68466  0.96804  0.59507  1.0000
  H   H2213     1.0  0.94385  0.78836  0.51958  1.0000
  C   C1303     1.0  0.49378  0.60061  0.70449  1.0000
  C   C1304     1.0  0.51592  0.50726  0.71400  1.0000
  C   C1305     1.0  0.89688  0.51191  0.69557  1.0000
  C   C1306     1.0  0.80333  0.76255  0.52330  1.0000
  N   N93       1.0  0.67202  0.96810  0.56172  1.0000
  S   S379      1.0  0.50182  0.57834  0.63952  1.0000
  H   H2214     1.0  0.93283  0.74906  0.57158  1.0000
  H   H2215     1.0  0.50760  0.49926  0.72920  1.0000
  H   H2216     1.0  0.58060  0.74369  0.52112  1.0000
  H   H2217     1.0  0.59691  0.60556  0.65114  1.0000
  C   C1307     1.0  0.49891  0.87787  0.71228  1.0000
  C   C1308     1.0  0.64847  0.94408  0.57025  1.0000
  H   H2218     1.0  0.65476  0.97312  0.53662  1.0000
  C   C1309     1.0  0.68359  0.61756  0.60336  1.0000
  H   H2219     1.0  0.51408  0.59973  0.70267  1.0000
  H   H2220     1.0  0.90353  0.51821  0.70852  1.0000
  C   C1310     1.0  0.67562  0.60292  0.65047  1.0000
  H   H2221     1.0  0.84307  0.78725  0.51717  1.0000
  H   H2222     1.0  0.53894  0.67073  0.66883  1.0000
  H   H2223     1.0  0.53502  0.71431  0.54643  1.0000
  N   N94       1.0  0.65234  0.62886  0.62960  1.0000
  C   C1311     1.0  0.82460  0.80966  0.48926  1.0000
  H   H2224     1.0  0.94938  0.52221  0.69524  1.0000
  C   C1312     1.0  0.50701  0.63304  0.67439  1.0000
  H   H2225     1.0  0.55774  0.73297  0.59405  1.0000
  C   C1313     1.0  0.52923  0.92246  0.70330  1.0000
  H   H2226     1.0  0.54693  0.66976  0.70593  1.0000
  H   H2227     1.0  0.57062  0.49978  0.71255  1.0000
  H   H2228     1.0  0.81416  0.74502  0.48662  1.0000
  H   H2229     1.0  0.67509  0.92700  0.54011  1.0000
  C   C1314     1.0  0.57518  0.67745  0.55436  1.0000
  S   S380      1.0  0.53339  0.60710  0.59459  1.0000
  H   H2230     1.0  0.66275  0.59096  0.66442  1.0000
  H   H2231     1.0  0.93485  0.71678  0.57762  1.0000
  S   S381      1.0  0.56152  0.94390  0.69609  1.0000
  H   H2232     1.0  0.82805  0.92036  0.52823  1.0000
  H   H2233     1.0  0.70964  0.94032  0.53200  1.0000
  H   H2234     1.0  0.90338  0.51049  0.65903  1.0000
  C   C1315     1.0  0.95406  0.72033  0.61704  1.0000
  S   S382      1.0  0.96047  0.86309  0.56894  1.0000
  H   H2235     1.0  0.69820  0.94481  0.56514  1.0000
  H   H2236     1.0  0.79894  0.86919  0.49256  1.0000
  H   H2237     1.0  0.69912  0.61695  0.61154  1.0000
  C   C1316     1.0  0.63112  0.60299  0.63167  1.0000
  H   H2238     1.0  0.85675  0.50601  0.70955  1.0000
  C   C1317     1.0  0.87664  0.55933  0.71330  1.0000
  S   S383      1.0  0.95884  0.66170  0.65843  1.0000
  H   H2239     1.0  0.64499  0.69083  0.63179  1.0000
  H   H2240     1.0  0.72762  0.85466  0.49804  1.0000
  H   H2241     1.0  0.63903  0.58664  0.63008  1.0000
  H   H2242     1.0  0.94030  0.68581  0.52646  1.0000
  H   H2243     1.0  0.93849  0.54629  0.65656  1.0000
  H   H2244     1.0  0.54072  0.88775  0.70280  1.0000
  C   C1318     1.0  0.52455  0.89529  0.70599  1.0000
  H   H2245     1.0  0.52928  0.70613  0.59498  1.0000
  C   C1319     1.0  0.96524  0.73455  0.66499  1.0000
  H   H2246     1.0  0.69001  0.95882  0.52363  1.0000
  C   C1320     1.0  0.52045  0.66222  0.66413  1.0000
  H   H2247     1.0  0.66628  0.95279  0.60336  1.0000
  H   H2248     1.0  0.69938  0.79271  0.49553  1.0000
  C   C1321     1.0  0.56525  0.70561  0.57635  1.0000
  H   H2249     1.0  0.88179  0.94527  0.58233  1.0000
  H   H2250     1.0  0.68748  0.64512  0.64007  1.0000
  C   C1322     1.0  0.96962  0.69964  0.55329  1.0000
  H   H2251     1.0  0.52573  0.66346  0.64834  1.0000
  H   H2252     1.0  0.91411  0.72373  0.56152  1.0000
  C   C1323     1.0  0.60352  0.69423  0.54453  1.0000
  H   H2253     1.0  0.97636  0.93991  0.48602  1.0000
  H   H2254     1.0  0.97406  0.74969  0.55332  1.0000
  H   H2255     1.0  0.96036  0.66225  0.54308  1.0000
  C   C1324     1.0  0.78727  0.88049  0.48603  1.0000
  H   H2256     1.0  0.57843  0.97127  0.72457  1.0000
  H   H2257     1.0  0.53500  0.63869  0.72215  1.0000
  H   H2258     1.0  0.85884  0.49022  0.68984  1.0000
  H   H2259     1.0  0.88335  0.80409  0.50008  1.0000
  H   H2260     1.0  0.97465  0.90708  0.49689  1.0000
  C   C1325     1.0  0.96959  0.52563  0.62761  1.0000
  C   C1326     1.0  0.90879  0.49407  0.66675  1.0000
  Fe  Fe192     1.0  0.97695  0.66128  0.62817  1.0000
  H   H2261     1.0  0.49318  0.62356  0.66574  1.0000
  C   C1327     1.0  0.48161  0.59078  0.72629  1.0000
  H   H2262     1.0  0.48248  0.53008  0.69026  1.0000
  H   H2263     1.0  0.48366  0.58548  0.69685  1.0000
  H   H2264     1.0  0.48331  0.57094  0.73086  1.0000
  C   C1328     1.0  0.97377  0.48982  0.72922  1.0000
  C   C1329     1.0  0.97985  0.50611  0.63473  1.0000
  H   H2265     1.0  0.48269  0.98620  0.79383  1.0000
  H   H2266     1.0  0.93400  0.54872  0.80398  1.0000
  C   C1330     1.0  0.74351  0.49351  0.81715  1.0000
  C   C1331     1.0  0.89629  0.54543  0.73948  1.0000
  H   H2267     1.0  0.56469  0.95509  0.76858  1.0000
  C   C1332     1.0  0.92479  0.59907  0.79663  1.0000
  H   H2268     1.0  0.48033  0.92708  0.83063  1.0000
  H   H2269     1.0  0.96252  0.63200  0.81064  1.0000
  H   H2270     1.0  0.76061  0.50442  0.82248  1.0000
  H   H2271     1.0  0.95647  0.64583  0.77564  1.0000
  H   H2272     1.0  0.75000  0.49690  0.80121  1.0000
  H   H2273     1.0  0.96975  0.58843  0.80231  1.0000
  H   H2274     1.0  0.93020  0.58022  0.76305  1.0000
  H   H2275     1.0  0.72734  0.50190  0.81992  1.0000
  C   C1333     1.0  0.89953  0.57851  0.79459  1.0000
  H   H2276     1.0  0.53131  0.95211  0.77242  1.0000
  H   H2277     1.0  0.50273  0.96806  0.76284  1.0000
  H   H2278     1.0  0.94400  0.54993  0.77820  1.0000
  H   H2279     1.0  0.48228  0.93724  0.85308  1.0000
  C   C1334     1.0  0.54869  0.95595  0.76080  1.0000
  C   C1335     1.0  0.50618  0.97304  0.74695  1.0000
  H   H2280     1.0  0.90176  0.55909  0.79372  1.0000
  S   S384      1.0  0.89379  0.52747  0.76262  1.0000
  C   C1336     1.0  0.96443  0.58557  0.78826  1.0000
  H   H2281     1.0  0.92782  0.59321  0.81146  1.0000
  H   H2282     1.0  0.56086  0.93099  0.74183  1.0000
  H   H2283     1.0  0.88382  0.57539  0.80745  1.0000
  H   H2284     1.0  0.91982  0.61760  0.79666  1.0000
  C   C1337     1.0  0.96699  0.63160  0.77942  1.0000
  H   H2285     1.0  0.89227  0.58534  0.78180  1.0000
  H   H2286     1.0  0.52791  0.93190  0.74225  1.0000
  H   H2287     1.0  0.49617  0.95520  0.74186  1.0000
  C   C1338     1.0  0.53526  0.98477  0.73615  1.0000
  H   H2288     1.0  0.85512  0.53110  0.73965  1.0000
  C   C1339     1.0  0.93377  0.62040  0.75162  1.0000
  C   C1340     1.0  0.54295  0.93207  0.75098  1.0000
  C   C1341     1.0  0.48774  0.80124  0.83266  1.0000
  H   H2289     1.0  0.49212  0.60338  0.73520  1.0000
  H   H2290     1.0  0.53522  0.91367  0.76226  1.0000
  N   N95       1.0  0.94949  0.60361  0.78176  1.0000
  H   H2291     1.0  0.50882  0.81183  0.82642  1.0000
  C   C1342     1.0  0.95047  0.55584  0.79123  1.0000
  H   H2292     1.0  0.96456  0.54543  0.79452  1.0000
  H   H2293     1.0  0.48511  0.77992  0.83427  1.0000
  H   H2294     1.0  0.96982  0.50569  0.78888  1.0000
  H   H2295     1.0  0.96250  0.60037  0.75233  1.0000
  C   C1343     1.0  0.94427  0.59989  0.76216  1.0000
  H   H2296     1.0  0.91853  0.62491  0.76140  1.0000
  H   H2297     1.0  0.48336  0.80567  0.84718  1.0000
  H   H2298     1.0  0.52997  0.98492  0.78568  1.0000
  H   H2299     1.0  0.93805  0.56333  0.73496  1.0000
  H   H2300     1.0  0.59646  0.98365  0.74155  1.0000
  H   H2301     1.0  0.94999  0.63890  0.74476  1.0000
  N   N96       1.0  0.55578  0.98255  0.74758  1.0000
  H   H2302     1.0  0.49576  0.98740  0.74338  1.0000
  H   H2303     1.0  0.92499  0.61277  0.73983  1.0000
  C   C1344     1.0  0.97792  0.63863  0.79722  1.0000
  H   H2304     1.0  0.74748  0.49015  0.85434  1.0000
