data_image0
_chemical_formula_structural       CHC2S3H4C2H6CHSH2CH2CHNCH2C2FeHFeC2NHCNCH6CSH2CH5CH2FeCHC2H4SCFeC2H3FeC2H2CH4C2H2CH2FeSHCHSH3SCH4SCHCH2C2H7CSHC2H3SHCHCH2CHCH3FeNHCHFeC5H2SH2CNHC2H5CSH3SHCHCHSCHCSHCH6SHC2H3SCFeHC2HCH2SC2H3Fe2H3C2HSH3CHC2H2CHSH2C2HCH2CHCHCH3C2NHCS2HCH2CSH4C2SHCH2S2CH3CH2FeC2FeH6CHCHCH2FeSC2H2CSCHC2H5FeCNHCH2CHFeHC2H4CS2CHSH5C3H5C2HC3SNH4FeC4FeHSCHC2HSFeH3CH2CH2CH4SHC2H2FeSH3NSC2H2CH2C3FeHC2FeHNCH3SCH2C3H4CSHC2H11SCH2SC2H2CHCH2CH2CHC3H2C3SHNCH2SFeC2HS2CHCFeH3CH3CHC2H2C2H4SHC2H2FeHC2H3C2H3CSH2CNCH5CH2FeC2H5C2HCS2HC2SCHCH9CH2CHC2HCHCNH2C3FeSFeHC2H3CH3CHCH2Fe2H2FeHCH2S2H2CHCSH4C2HC2SCHCSCNC2H4CH5FeHC2HC2H4CHCHCHSC2H5S2H6CHCHCHNH2NC2H2CH5CHCSH2CH3SH3CFeHS2H3S2FeS2FeCHFeHCH2CNCH2CH6C2H2SC2HC3HCHC2FeH4CH2NH3SH4CFeC4H2SHSH2CHSCH3CSCHCH2CH13CSCH4CH3SC2HSCHC2H5FeHCHC2HFeC2NSCHC2SH2C2HCHNCHC2H2
_chemical_formula_sum              "C280 H480 S80 N20 Fe40"
_cell_length_a       22.7061
_cell_length_b       28.7335
_cell_length_c       22.4527
_cell_angle_alpha    120.651
_cell_angle_beta     82.0112
_cell_angle_gamma    92.112

_space_group_name_H-M_alt    "P 1"
_space_group_IT_number       1

loop_
  _space_group_symop_operation_xyz
  'x, y, z'

loop_
  _atom_site_type_symbol
  _atom_site_label
  _atom_site_symmetry_multiplicity
  _atom_site_fract_x
  _atom_site_fract_y
  _atom_site_fract_z
  _atom_site_occupancy
  C   C1        1.0  0.15747  0.49527  0.13352  1.0000
  H   H1        1.0  0.19318  0.46872  0.13121  1.0000
  C   C2        1.0  0.34958  0.76845  0.97406  1.0000
  C   C3        1.0  0.10157  0.76578  0.12395  1.0000
  S   S1        1.0  0.18581  0.57468  0.03217  1.0000
  S   S2        1.0  0.35294  0.52905  0.99320  1.0000
  S   S3        1.0  0.23111  0.92082  0.10468  1.0000
  H   H2        1.0  0.98765  0.93500  0.02330  1.0000
  H   H3        1.0  0.05928  0.57226  0.05210  1.0000
  H   H4        1.0  0.39102  0.55510  0.15917  1.0000
  H   H5        1.0  0.05154  0.85577  0.12496  1.0000
  C   C4        1.0  0.93121  0.88325  0.04758  1.0000
  C   C5        1.0  0.02175  0.50340  0.14061  1.0000
  H   H6        1.0  0.33123  0.80750  0.19651  1.0000
  H   H7        1.0  0.17154  0.68046  0.02157  1.0000
  H   H8        1.0  0.21273  0.74914  0.18500  1.0000
  H   H9        1.0  0.26258  0.83885  0.13163  1.0000
  H   H10       1.0  0.10058  0.58319  0.15836  1.0000
  H   H11       1.0  0.05995  0.79136  0.14680  1.0000
  C   C6        1.0  0.97181  0.89455  0.00387  1.0000
  H   H12       1.0  0.41232  0.76517  0.10417  1.0000
  S   S4        1.0  0.32779  0.65947  0.05868  1.0000
  H   H13       1.0  0.31862  0.47015  0.15506  1.0000
  H   H14       1.0  0.10458  0.47446  0.20235  1.0000
  C   C7        1.0  0.06858  0.59030  0.20469  1.0000
  H   H15       1.0  0.07389  0.73248  0.19049  1.0000
  H   H16       1.0  0.32396  0.75441  0.05914  1.0000
  C   C8        1.0  0.32072  0.78157  0.04010  1.0000
  H   H17       1.0  0.09024  0.88069  0.07341  1.0000
  N   N1        1.0  0.38916  0.51290  0.21607  1.0000
  C   C9        1.0  0.17882  0.71975  0.02406  1.0000
  H   H18       1.0  0.12929  0.69092  0.12045  1.0000
  H   H19       1.0  0.16179  0.83111  0.09446  1.0000
  C   C10       1.0  0.32406  0.50403  0.20821  1.0000
  C   C11       1.0  0.13223  0.80703  0.05442  1.0000
  Fe  Fe1       1.0  0.20043  0.94730  0.03616  1.0000
  H   H20       1.0  0.02904  0.74186  0.03482  1.0000
  Fe  Fe2       1.0  0.28128  0.58259  0.99674  1.0000
  C   C12       1.0  0.30922  0.85168  0.99023  1.0000
  C   C13       1.0  0.07277  0.57198  0.00389  1.0000
  N   N2        1.0  0.12139  0.75325  0.04992  1.0000
  H   H21       1.0  0.04203  0.50726  0.09524  1.0000
  C   C14       1.0  0.07355  0.72271  0.00605  1.0000
  N   N3        1.0  0.05380  0.53782  0.20268  1.0000
  C   C15       1.0  0.08899  0.71689  0.13410  1.0000
  H   H22       1.0  0.17964  0.53113  0.13584  1.0000
  H   H23       1.0  0.20832  0.45952  0.97559  1.0000
  H   H24       1.0  0.15659  0.80288  0.00568  1.0000
  H   H25       1.0  0.30201  0.53964  0.21233  1.0000
  H   H26       1.0  0.13778  0.47244  0.08438  1.0000
  H   H27       1.0  0.21122  0.74057  0.06170  1.0000
  C   C16       1.0  0.07615  0.84308  0.07257  1.0000
  S   S5        1.0  0.92561  0.68485  0.04103  1.0000
  H   H28       1.0  0.96207  0.76535  0.17334  1.0000
  H   H29       1.0  0.20893  0.65891  0.17463  1.0000
  C   C17       1.0  0.13309  0.57286  0.98124  1.0000
  H   H30       1.0  0.99090  0.60093  0.16214  1.0000
  H   H31       1.0  0.07184  0.68109  0.99756  1.0000
  H   H32       1.0  0.38852  0.73152  0.18502  1.0000
  H   H33       1.0  0.05304  0.69209  0.10516  1.0000
  H   H34       1.0  0.37750  0.88089  0.17196  1.0000
  C   C18       1.0  0.28599  0.82950  0.08115  1.0000
  H   H35       1.0  0.04564  0.82362  0.03271  1.0000
  H   H36       1.0  0.97490  0.51873  0.15205  1.0000
  Fe  Fe3       1.0  0.40223  0.60529  0.04693  1.0000
  C   C19       1.0  0.27953  0.86414  0.05579  1.0000
  H   H37       1.0  0.13520  0.79001  0.15863  1.0000
  C   C20       1.0  0.11151  0.51141  0.19911  1.0000
  C   C21       1.0  0.01573  0.62391  0.20718  1.0000
  H   H38       1.0  0.98302  0.57195  0.98337  1.0000
  H   H39       1.0  0.03339  0.65928  0.20429  1.0000
  H   H40       1.0  0.91673  0.91482  0.10093  1.0000
  H   H41       1.0  0.30517  0.87896  0.97113  1.0000
  S   S6        1.0  0.26366  0.62211  0.42138  1.0000
  C   C22       1.0  0.12685  0.95160  0.26272  1.0000
  Fe  Fe4       1.0  0.23345  0.92507  0.40654  1.0000
  C   C23       1.0  0.39740  0.56089  0.28645  1.0000
  C   C24       1.0  0.21499  0.78830  0.35518  1.0000
  H   H42       1.0  0.01428  0.88911  0.46677  1.0000
  H   H43       1.0  0.21668  0.73409  0.39446  1.0000
  H   H44       1.0  0.94850  0.92591  0.38424  1.0000
  Fe  Fe5       1.0  0.18419  0.63216  0.38098  1.0000
  C   C25       1.0  0.21055  0.69500  0.22506  1.0000
  C   C26       1.0  0.37463  0.61634  0.30141  1.0000
  H   H45       1.0  0.37790  0.55462  0.32992  1.0000
  H   H46       1.0  0.29252  0.51646  0.31383  1.0000
  C   C27       1.0  0.99521  0.50605  0.28280  1.0000
  H   H47       1.0  0.96567  0.47908  0.24479  1.0000
  H   H48       1.0  0.38003  0.64753  0.35601  1.0000
  H   H49       1.0  0.32698  0.61708  0.29657  1.0000
  H   H50       1.0  0.92095  0.84298  0.37064  1.0000
  C   C28       1.0  0.21306  0.79287  0.29640  1.0000
  C   C29       1.0  0.28652  0.48940  0.25871  1.0000
  H   H51       1.0  0.96823  0.52363  0.33533  1.0000
  H   H52       1.0  0.03766  0.58177  0.31588  1.0000
  C   C30       1.0  0.21213  0.74605  0.23103  1.0000
  H   H53       1.0  0.39365  0.73742  0.30023  1.0000
  H   H54       1.0  0.40097  0.62911  0.26709  1.0000
  Fe  Fe6       1.0  0.20973  0.56889  0.45071  1.0000
  S   S7        1.0  0.13162  0.57312  0.40251  1.0000
  H   H55       1.0  0.33924  0.78266  0.30559  1.0000
  C   C31       1.0  0.21410  0.73725  0.34908  1.0000
  H   H56       1.0  0.91570  0.90564  0.30792  1.0000
  S   S8        1.0  0.21173  0.85657  0.30350  1.0000
  H   H57       1.0  0.13357  0.53846  0.24563  1.0000
  H   H58       1.0  0.21687  0.82390  0.40547  1.0000
  H   H59       1.0  0.98486  0.64066  0.25688  1.0000
  S   S9        1.0  0.24895  0.49410  0.43934  1.0000
  C   C32       1.0  0.36237  0.83710  0.23027  1.0000
  H   H60       1.0  0.03302  0.48286  0.28295  1.0000
  H   H61       1.0  0.40903  0.80778  0.33923  1.0000
  H   H62       1.0  0.34250  0.85031  0.28477  1.0000
  H   H63       1.0  0.31132  0.90077  0.23335  1.0000
  S   S10       1.0  0.20392  0.62699  0.27713  1.0000
  C   C33       1.0  0.21042  0.69064  0.28436  1.0000
  H   H64       1.0  0.10930  0.91024  0.23776  1.0000
  C   C34       1.0  0.01496  0.55264  0.27064  1.0000
  H   H65       1.0  0.97300  0.57378  0.27590  1.0000
  H   H66       1.0  0.37991  0.92256  0.26576  1.0000
  C   C35       1.0  0.38787  0.77415  0.29669  1.0000
  C   C36       1.0  0.35891  0.88797  0.22430  1.0000
  H   H67       1.0  0.09057  0.61748  0.25111  1.0000
  H   H68       1.0  0.97288  0.81616  0.25964  1.0000
  H   H69       1.0  0.99944  0.68122  0.45782  1.0000
  H   H70       1.0  0.94569  0.75072  0.24193  1.0000
  H   H71       1.0  0.17466  0.94582  0.24068  1.0000
  H   H72       1.0  0.23868  0.49212  0.25484  1.0000
  H   H73       1.0  0.17765  0.45818  0.32758  1.0000
  C   C37       1.0  0.94360  0.78312  0.22919  1.0000
  S   S11       1.0  0.32564  0.95670  0.41528  1.0000
  H   H74       1.0  0.96627  0.45725  0.41227  1.0000
  C   C38       1.0  0.96099  0.65947  0.46295  1.0000
  C   C39       1.0  0.26761  0.89619  0.66233  1.0000
  H   H75       1.0  0.32045  0.64600  0.55318  1.0000
  H   H76       1.0  0.09647  0.95196  0.50676  1.0000
  H   H77       1.0  0.05506  0.84520  0.62030  1.0000
  S   S12       1.0  0.14725  0.70514  0.48251  1.0000
  H   H78       1.0  0.11058  0.77911  0.64348  1.0000
  C   C40       1.0  0.95711  0.64025  0.50935  1.0000
  H   H79       1.0  0.25915  0.93628  0.66923  1.0000
  C   C41       1.0  0.40685  0.62377  0.49124  1.0000
  H   H80       1.0  0.08172  0.49317  0.47254  1.0000
  H   H81       1.0  0.09171  0.81457  0.53402  1.0000
  C   C42       1.0  0.06911  0.60202  0.71258  1.0000
  H   H82       1.0  0.08184  0.88721  0.58454  1.0000
  C   C43       1.0  0.40621  0.72911  0.51407  1.0000
  H   H83       1.0  0.37552  0.79912  0.67727  1.0000
  H   H84       1.0  0.01700  0.51541  0.71163  1.0000
  H   H85       1.0  0.11763  0.59284  0.70582  1.0000
  Fe  Fe7       1.0  0.10210  0.64564  0.50803  1.0000
  N   N4        1.0  0.04059  0.55660  0.65414  1.0000
  H   H86       1.0  0.21910  0.46814  0.70963  1.0000
  C   C44       1.0  0.35832  0.65963  0.53198  1.0000
  H   H87       1.0  0.96140  0.77289  0.60118  1.0000
  Fe  Fe8       1.0  0.22459  0.69118  0.52419  1.0000
  C   C45       1.0  0.21685  0.87998  0.70083  1.0000
  C   C46       1.0  0.15285  0.85407  0.61069  1.0000
  C   C47       1.0  0.11800  0.80354  0.69886  1.0000
  C   C48       1.0  0.97662  0.57113  0.65705  1.0000
  C   C49       1.0  0.92973  0.79693  0.59310  1.0000
  H   H88       1.0  0.30973  0.89806  0.68313  1.0000
  H   H89       1.0  0.95611  0.82704  0.58504  1.0000
  S   S13       1.0  0.17694  0.63741  0.55777  1.0000
  H   H90       1.0  0.16082  0.79071  0.70555  1.0000
  H   H91       1.0  0.01272  0.48777  0.51711  1.0000
  C   C50       1.0  0.14217  0.94568  0.71706  1.0000
  N   N5        1.0  0.15476  0.88596  0.68826  1.0000
  H   H92       1.0  0.08200  0.65809  0.67222  1.0000
  C   C51       1.0  0.06091  0.49282  0.52008  1.0000
  C   C52       1.0  0.10455  0.48598  0.65844  1.0000
  H   H93       1.0  0.40635  0.58273  0.48132  1.0000
  H   H94       1.0  0.40495  0.76906  0.52052  1.0000
  H   H95       1.0  0.06562  0.57884  0.57576  1.0000
  H   H96       1.0  0.97381  0.60380  0.64472  1.0000
  H   H97       1.0  0.18197  0.87187  0.58403  1.0000
  C   C53       1.0  0.00894  0.92417  0.51907  1.0000
  S   S14       1.0  0.22263  0.93020  0.51068  1.0000
  H   H98       1.0  0.08044  0.45726  0.51813  1.0000
  H   H99       1.0  0.01782  0.47363  0.62236  1.0000
  H   H100      1.0  0.27577  0.86562  0.60563  1.0000
  S   S15       1.0  0.37085  0.95057  0.58125  1.0000
  H   H101      1.0  0.22778  0.83788  0.68533  1.0000
  C   C54       1.0  0.04217  0.50726  0.66105  1.0000
  H   H102      1.0  0.11903  0.50778  0.71091  1.0000
  C   C55       1.0  0.07452  0.54577  0.58528  1.0000
  H   H103      1.0  0.95510  0.53622  0.61627  1.0000
  S   S16       1.0  0.01040  0.65643  0.56518  1.0000
  C   C56       1.0  0.09168  0.85076  0.58692  1.0000
  H   H104      1.0  0.13890  0.48917  0.62074  1.0000
  C   C57       1.0  0.35725  0.71171  0.54176  1.0000
  S   S17       1.0  0.29116  0.75125  0.57941  1.0000
  H   H105      1.0  0.12352  0.54581  0.58546  1.0000
  C   C58       1.0  0.95565  0.93396  0.56388  1.0000
  H   H106      1.0  0.17311  0.81260  0.58634  1.0000
  H   H107      1.0  0.04727  0.94298  0.70196  1.0000
  H   H108      1.0  0.05133  0.60609  0.76369  1.0000
  H   H109      1.0  0.16363  0.46542  0.88517  1.0000
  H   H110      1.0  0.28428  0.78721  0.73553  1.0000
  H   H111      1.0  0.18573  0.67555  0.90888  1.0000
  S   S18       1.0  0.99319  0.57704  0.85773  1.0000
  H   H112      1.0  0.12077  0.57181  0.83130  1.0000
  C   C59       1.0  0.99027  0.85398  0.93465  1.0000
  C   C60       1.0  0.92761  0.79079  0.95297  1.0000
  H   H113      1.0  0.92712  0.55444  0.73556  1.0000
  H   H114      1.0  0.08670  0.67399  0.89127  1.0000
  H   H115      1.0  0.34274  0.75533  0.74902  1.0000
  S   S19       1.0  0.20354  0.89633  0.91988  1.0000
  C   C61       1.0  0.93581  0.58887  0.72673  1.0000
  Fe  Fe9       1.0  0.36915  0.64656  0.95430  1.0000
  H   H116      1.0  0.98132  0.77096  0.85532  1.0000
  C   C62       1.0  0.96736  0.80235  0.90891  1.0000
  C   C63       1.0  0.41444  0.87725  0.84083  1.0000
  H   H117      1.0  0.25370  0.68297  0.94202  1.0000
  C   C64       1.0  0.10731  0.57098  0.87882  1.0000
  H   H118      1.0  0.34681  0.86233  0.74643  1.0000
  H   H119      1.0  0.22017  0.90359  0.75768  1.0000
  S   S20       1.0  0.39018  0.70713  0.92055  1.0000
  C   C65       1.0  0.34439  0.80377  0.94941  1.0000
  C   C66       1.0  0.04692  0.57157  0.90255  1.0000
  H   H120      1.0  0.08798  0.68769  0.76283  1.0000
  H   H121      1.0  0.11976  0.88661  0.78320  1.0000
  H   H122      1.0  0.19651  0.57340  0.90110  1.0000
  Fe  Fe10      1.0  0.39230  0.52541  0.89331  1.0000
  Fe  Fe11      1.0  0.10929  0.92650  0.93891  1.0000
  H   H123      1.0  0.38612  0.91157  0.84983  1.0000
  H   H124      1.0  0.38832  0.85942  0.86925  1.0000
  H   H125      1.0  0.24192  0.46588  0.87413  1.0000
  C   C67       1.0  0.32454  0.79517  0.76186  1.0000
  C   C68       1.0  0.02965  0.57179  0.96493  1.0000
  H   H126      1.0  0.22275  0.73977  0.94504  1.0000
  S   S21       1.0  0.04262  0.86672  0.87995  1.0000
  H   H127      1.0  0.24191  0.48953  0.79241  1.0000
  H   H128      1.0  0.36644  0.79317  0.89810  1.0000
  H   H129      1.0  0.08266  0.79306  0.72907  1.0000
  C   C69       1.0  0.15030  0.57229  0.91863  1.0000
  H   H130      1.0  0.11134  0.74155  0.92284  1.0000
  C   C70       1.0  0.07759  0.71693  0.93312  1.0000
  C   C71       1.0  0.21086  0.70450  0.95090  1.0000
  H   H131      1.0  0.06567  0.87376  0.72817  1.0000
  H   H132      1.0  0.03409  0.72906  0.92689  1.0000
  C   C72       1.0  0.36929  0.82427  0.73492  1.0000
  H   H133      1.0  0.95325  0.62278  0.77248  1.0000
  S   S22       1.0  0.31747  0.57351  0.89294  1.0000
  H   H134      1.0  0.30950  0.82025  0.81874  1.0000
  H   H135      1.0  0.01618  0.67394  0.73542  1.0000
  C   C73       1.0  0.11304  0.86510  0.72718  1.0000
  C   C74       1.0  0.06303  0.65830  0.72046  1.0000
  H   H136      1.0  0.02795  0.05079  0.02619  1.0000
  C   C75       1.0  0.23007  0.33666  0.06061  1.0000
  H   H137      1.0  0.38561  0.45646  0.06756  1.0000
  H   H138      1.0  0.20106  0.17708  0.99079  1.0000
  C   C76       1.0  0.29528  0.16222  0.06763  1.0000
  H   H139      1.0  0.01027  0.02095  0.19344  1.0000
  C   C77       1.0  0.39048  0.21415  0.18876  1.0000
  H   H140      1.0  0.03716  0.22283  0.15960  1.0000
  C   C78       1.0  0.02039  0.44198  0.11358  1.0000
  H   H141      1.0  0.40255  0.25464  0.19803  1.0000
  H   H142      1.0  0.02174  0.08037  0.18761  1.0000
  H   H143      1.0  0.03434  0.42905  0.14819  1.0000
  C   C79       1.0  0.29003  0.22252  0.12589  1.0000
  C   C80       1.0  0.94185  0.15162  0.04161  1.0000
  N   N6        1.0  0.27675  0.23304  0.19957  1.0000
  H   H144      1.0  0.25073  0.14513  0.05811  1.0000
  C   C81       1.0  0.12601  0.33176  0.04459  1.0000
  S   S23       1.0  0.10438  0.97196  0.05543  1.0000
  S   S24       1.0  0.96095  0.30415  0.05986  1.0000
  H   H145      1.0  0.11870  0.97999  0.19285  1.0000
  C   C82       1.0  0.14251  0.31778  0.97490  1.0000
  H   H146      1.0  0.16991  0.11951  0.99222  1.0000
  H   H147      1.0  0.39947  0.18476  0.13188  1.0000
  C   C83       1.0  0.03930  0.13603  0.09428  1.0000
  S   S25       1.0  0.23324  0.02115  0.03526  1.0000
  H   H148      1.0  0.94962  0.23642  0.11435  1.0000
  H   H149      1.0  0.07975  0.33474  0.06538  1.0000
  H   H150      1.0  0.94249  0.06466  0.97872  1.0000
  H   H151      1.0  0.04756  0.41886  0.06127  1.0000
  C   C84       1.0  0.24650  0.32231  0.99086  1.0000
  C   C85       1.0  0.01169  0.09139  0.04464  1.0000
  S   S26       1.0  0.92469  0.36134  0.97414  1.0000
  H   H152      1.0  0.25473  0.24211  0.11506  1.0000
  C   C86       1.0  0.96758  0.19611  0.09387  1.0000
  H   H153      1.0  0.31971  0.16855  0.20365  1.0000
  H   H154      1.0  0.22518  0.16077  0.16705  1.0000
  S   S27       1.0  0.10427  0.12634  0.12078  1.0000
  S   S28       1.0  0.28495  0.34667  0.11310  1.0000
  C   C87       1.0  0.96290  0.09918  0.01834  1.0000
  H   H155      1.0  0.97422  0.42877  0.10591  1.0000
  H   H156      1.0  0.33177  0.24124  0.11809  1.0000
  H   H157      1.0  0.31750  0.15824  0.01789  1.0000
  C   C88       1.0  0.01643  0.18837  0.12020  1.0000
  H   H158      1.0  0.40711  0.42610  0.16014  1.0000
  H   H159      1.0  0.32128  0.13710  0.07990  1.0000
  Fe  Fe12      1.0  0.13748  0.04170  0.04475  1.0000
  C   C89       1.0  0.41389  0.06094  0.97639  1.0000
  C   C90       1.0  0.16978  0.34179  0.08772  1.0000
  Fe  Fe13      1.0  0.37135  0.30992  0.04414  1.0000
  H   H160      1.0  0.15698  0.35248  0.14160  1.0000
  H   H161      1.0  0.12443  0.16068  0.97785  1.0000
  H   H162      1.0  0.29295  0.31839  0.96969  1.0000
  H   H163      1.0  0.11341  0.06631  0.21412  1.0000
  H   H164      1.0  0.33938  0.32334  0.20497  1.0000
  H   H165      1.0  0.18291  0.21985  0.18935  1.0000
  C   C91       1.0  0.21998  0.20516  0.20428  1.0000
  H   H166      1.0  0.00247  0.37643  0.21720  1.0000
  C   C92       1.0  0.26445  0.29300  0.24911  1.0000
  H   H167      1.0  0.02703  0.10389  0.38709  1.0000
  C   C93       1.0  0.13091  0.39014  0.32330  1.0000
  H   H168      1.0  0.25440  0.17326  0.40139  1.0000
  H   H169      1.0  0.99039  0.04760  0.32547  1.0000
  Fe  Fe14      1.0  0.95202  0.23095  0.46224  1.0000
  S   S29       1.0  0.05046  0.22781  0.42996  1.0000
  C   C94       1.0  0.15335  0.36426  0.40506  1.0000
  C   C95       1.0  0.01847  0.06474  0.22406  1.0000
  H   H170      1.0  0.15014  0.05037  0.36138  1.0000
  H   H171      1.0  0.99897  0.38179  0.30051  1.0000
  C   C96       1.0  0.17071  0.43220  0.34942  1.0000
  S   S30       1.0  0.93241  0.29482  0.43782  1.0000
  C   C97       1.0  0.03018  0.03138  0.39267  1.0000
  H   H172      1.0  0.23623  0.07358  0.31298  1.0000
  C   C98       1.0  0.19430  0.40527  0.42978  1.0000
  C   C99       1.0  0.19767  0.21059  0.27585  1.0000
  H   H173      1.0  0.12322  0.96614  0.31902  1.0000
  H   H174      1.0  0.07027  0.03804  0.41839  1.0000
  H   H175      1.0  0.18046  0.25202  0.31550  1.0000
  H   H176      1.0  0.39576  0.45659  0.25222  1.0000
  H   H177      1.0  0.07681  0.12091  0.29313  1.0000
  Fe  Fe15      1.0  0.03111  0.29628  0.41393  1.0000
  C   C100      1.0  0.03203  0.05938  0.34964  1.0000
  N   N7        1.0  0.08585  0.04670  0.29536  1.0000
  H   H178      1.0  0.29921  0.37298  0.28577  1.0000
  C   C101      1.0  0.12108  0.35708  0.35245  1.0000
  H   H179      1.0  0.22721  0.30759  0.23437  1.0000
  H   H180      1.0  0.10726  0.38382  0.28133  1.0000
  C   C102      1.0  0.07639  0.07623  0.25743  1.0000
  H   H181      1.0  0.13162  0.11326  0.37226  1.0000
  Fe  Fe16      1.0  0.28017  0.03844  0.46558  1.0000
  H   H182      1.0  0.24974  0.30197  0.30323  1.0000
  C   C103      1.0  0.13993  0.06954  0.33180  1.0000
  C   C104      1.0  0.23577  0.18356  0.45386  1.0000
  H   H183      1.0  0.14738  0.33775  0.42621  1.0000
  H   H184      1.0  0.98548  0.31838  0.22434  1.0000
  H   H185      1.0  0.99132  0.04845  0.43462  1.0000
  H   H186      1.0  0.32391  0.23378  0.27754  1.0000
  C   C105      1.0  0.09323  0.98669  0.24286  1.0000
  S   S31       1.0  0.30524  0.09916  0.43325  1.0000
  S   S32       1.0  0.18883  0.00647  0.45026  1.0000
  C   C106      1.0  0.20187  0.44007  0.40321  1.0000
  H   H187      1.0  0.19719  0.09585  0.26767  1.0000
  S   S33       1.0  0.06750  0.30780  0.32462  1.0000
  H   H188      1.0  0.02336  0.98741  0.35996  1.0000
  H   H189      1.0  0.34906  0.32701  0.28639  1.0000
  H   H190      1.0  0.15929  0.18411  0.26982  1.0000
  H   H191      1.0  0.23201  0.19769  0.29563  1.0000
  H   H192      1.0  0.97940  0.08669  0.26407  1.0000
  C   C107      1.0  0.19772  0.06528  0.28383  1.0000
  C   C108      1.0  0.97833  0.36297  0.25197  1.0000
  C   C109      1.0  0.31669  0.33027  0.25583  1.0000
  H   H193      1.0  0.04910  0.96897  0.23000  1.0000
  H   H194      1.0  0.29649  0.44714  0.24434  1.0000
  H   H195      1.0  0.20596  0.02449  0.23677  1.0000
  H   H196      1.0  0.92229  0.29578  0.29103  1.0000
  H   H197      1.0  0.93444  0.37473  0.38848  1.0000
  C   C110      1.0  0.91696  0.45675  0.41706  1.0000
  C   C111      1.0  0.32586  0.21187  0.21960  1.0000
  H   H198      1.0  0.39973  0.08950  0.55388  1.0000
  C   C112      1.0  0.19235  0.22571  0.49271  1.0000
  C   C113      1.0  0.28159  0.32196  0.69250  1.0000
  C   C114      1.0  0.23041  0.16790  0.55063  1.0000
  S   S34       1.0  0.11493  0.29163  0.61049  1.0000
  N   N8        1.0  0.97535  0.17151  0.65160  1.0000
  H   H199      1.0  0.05460  0.08565  0.54239  1.0000
  H   H200      1.0  0.25825  0.28480  0.68302  1.0000
  H   H201      1.0  0.32999  0.31095  0.67993  1.0000
  H   H202      1.0  0.10154  0.13530  0.59908  1.0000
  Fe  Fe17      1.0  0.94440  0.35419  0.54868  1.0000
  C   C115      1.0  0.01883  0.17055  0.59361  1.0000
  C   C116      1.0  0.07013  0.12718  0.56166  1.0000
  C   C117      1.0  0.94898  0.97913  0.63156  1.0000
  C   C118      1.0  0.25431  0.15427  0.48268  1.0000
  Fe  Fe18      1.0  0.18596  0.01411  0.55478  1.0000
  H   H203      1.0  0.10317  0.44214  0.64042  1.0000
  S   S35       1.0  0.10853  0.04691  0.63963  1.0000
  C   C119      1.0  0.18836  0.21076  0.58997  1.0000
  H   H204      1.0  0.96556  0.08457  0.58802  1.0000
  C   C120      1.0  0.05550  0.95972  0.54178  1.0000
  C   C121      1.0  0.04928  0.00428  0.60989  1.0000
  H   H205      1.0  0.17784  0.24823  0.47041  1.0000
  S   S36       1.0  0.04185  0.35980  0.52338  1.0000
  Fe  Fe19      1.0  0.05275  0.29173  0.54190  1.0000
  H   H206      1.0  0.18426  0.38193  0.69681  1.0000
  H   H207      1.0  0.00074  0.28426  0.70035  1.0000
  H   H208      1.0  0.17038  0.22109  0.64257  1.0000
  C   C122      1.0  0.00512  0.16834  0.70532  1.0000
  H   H209      1.0  0.26210  0.02303  0.68436  1.0000
  H   H210      1.0  0.07119  0.22959  0.70820  1.0000
  C   C123      1.0  0.93759  0.12259  0.61757  1.0000
  H   H211      1.0  0.03977  0.20983  0.61038  1.0000
  H   H212      1.0  0.27105  0.33422  0.65560  1.0000
  C   C124      1.0  0.16898  0.23940  0.56095  1.0000
  H   H213      1.0  0.21891  0.41100  0.47085  1.0000
  H   H214      1.0  0.24506  0.14606  0.57350  1.0000
  H   H215      1.0  0.99130  0.04824  0.70773  1.0000
  H   H216      1.0  0.09627  0.12810  0.51663  1.0000
  S   S37       1.0  0.95575  0.29043  0.57579  1.0000
  H   H217      1.0  0.99504  0.16471  0.55012  1.0000
  C   C125      1.0  0.93451  0.22121  0.68468  1.0000
  C   C126      1.0  0.99598  0.01412  0.65475  1.0000
  H   H218      1.0  0.27987  0.43274  0.71335  1.0000
  H   H219      1.0  0.02103  0.12615  0.68479  1.0000
  Fe  Fe20      1.0  0.31135  0.96779  0.52280  1.0000
  S   S38       1.0  0.27380  0.05250  0.57404  1.0000
  H   H220      1.0  0.15998  0.95738  0.67787  1.0000
  H   H221      1.0  0.97224  0.28159  0.77848  1.0000
  H   H222      1.0  0.15737  0.07397  0.86710  1.0000
  N   N9        1.0  0.19962  0.13347  0.84454  1.0000
  S   S39       1.0  0.29697  0.97741  0.84159  1.0000
  C   C127      1.0  0.14707  0.17060  0.86086  1.0000
  C   C128      1.0  0.05843  0.20492  0.73245  1.0000
  H   H223      1.0  0.36861  0.42264  0.88419  1.0000
  H   H224      1.0  0.30210  0.39830  0.77928  1.0000
  C   C129      1.0  0.26260  0.05291  0.74061  1.0000
  H   H225      1.0  0.29526  0.22963  0.84579  1.0000
  H   H226      1.0  0.05149  0.17592  0.86815  1.0000
  C   C130      1.0  0.20402  0.43889  0.86874  1.0000
  C   C131      1.0  0.07663  0.96658  0.74192  1.0000
  C   C132      1.0  0.19082  0.41516  0.75003  1.0000
  Fe  Fe21      1.0  0.22919  0.97244  0.92021  1.0000
  H   H227      1.0  0.08382  0.11580  0.79270  1.0000
  C   C133      1.0  0.39351  0.38791  0.84108  1.0000
  C   C134      1.0  0.38915  0.33779  0.83730  1.0000
  Fe  Fe22      1.0  0.99400  0.30145  0.95948  1.0000
  H   H228      1.0  0.17358  0.32998  0.81622  1.0000
  N   N10       1.0  0.20629  0.39293  0.79418  1.0000
  C   C135      1.0  0.08642  0.14372  0.84897  1.0000
  H   H229      1.0  0.04814  0.23303  0.78960  1.0000
  H   H230      1.0  0.07701  0.36990  0.76820  1.0000
  H   H231      1.0  0.07507  0.12235  0.87822  1.0000
  S   S40       1.0  0.13523  0.99859  0.92909  1.0000
  C   C136      1.0  0.20560  0.42254  0.92413  1.0000
  H   H232      1.0  0.29160  0.14219  0.86194  1.0000
  H   H233      1.0  0.21576  0.30225  0.89437  1.0000
  C   C137      1.0  0.27764  0.18888  0.81408  1.0000
  C   C138      1.0  0.19047  0.10609  0.88716  1.0000
  C   C139      1.0  0.16239  0.35077  0.78859  1.0000
  H   H234      1.0  0.24610  0.20194  0.91692  1.0000
  H   H235      1.0  0.08899  0.41116  0.85830  1.0000
  H   H236      1.0  0.05941  0.96717  0.79113  1.0000
  H   H237      1.0  0.09825  0.17986  0.72414  1.0000
  C   C140      1.0  0.25427  0.16666  0.86263  1.0000
  S   S41       1.0  0.37555  0.22417  0.95576  1.0000
  H   H238      1.0  0.07070  0.34312  0.82610  1.0000
  C   C141      1.0  0.37098  0.02420  0.94196  1.0000
  C   C142      1.0  0.09622  0.37026  0.81133  1.0000
  H   H239      1.0  0.14288  0.20484  0.91586  1.0000
  H   H240      1.0  0.23222  0.08450  0.88227  1.0000
  H   H241      1.0  0.26341  0.02972  0.76752  1.0000
  H   H242      1.0  0.36622  0.04914  0.81008  1.0000
  H   H243      1.0  0.15308  0.19027  0.82890  1.0000
  H   H244      1.0  0.20614  0.10892  0.73474  1.0000
  H   H245      1.0  0.16497  0.31724  0.73353  1.0000
  H   H246      1.0  0.27776  0.34861  0.80049  1.0000
  H   H247      1.0  0.07369  0.00906  0.75383  1.0000
  H   H248      1.0  0.35199  0.99859  0.96131  1.0000
  H   H249      1.0  0.24514  0.39641  0.91279  1.0000
  S   S42       1.0  0.94119  0.22962  0.89576  1.0000
  C   C143      1.0  0.37933  0.05252  0.85651  1.0000
  H   H250      1.0  0.16427  0.40273  0.93042  1.0000
  H   H251      1.0  0.36018  0.33420  0.87704  1.0000
  S   S43       1.0  0.08943  0.30454  0.91892  1.0000
  C   C144      1.0  0.35319  0.02051  0.88253  1.0000
  C   C145      1.0  0.23601  0.45346  0.74147  1.0000
  H   H252      1.0  0.16563  0.97111  0.76323  1.0000
  H   H253      1.0  0.24405  0.19320  0.78581  1.0000
  C   C146      1.0  0.26817  0.36721  0.76981  1.0000
  H   H254      1.0  0.30445  0.07457  0.74417  1.0000
  C   C147      1.0  0.20664  0.09068  0.76810  1.0000
  H   H255      1.0  0.97195  0.17767  0.75150  1.0000
  H   H256      1.0  0.14721  0.43821  0.77234  1.0000
  C   C148      1.0  0.96154  0.27651  0.72886  1.0000
  H   H257      1.0  0.16821  0.06382  0.75654  1.0000
  H   H258      1.0  0.31644  0.16386  0.77621  1.0000
  C   C149      1.0  0.20279  0.31320  0.94825  1.0000
  H   H259      1.0  0.92748  0.30886  0.74411  1.0000
  C   C150      1.0  0.17044  0.14366  0.96627  1.0000
  C   C151      1.0  0.63678  0.59001  0.99052  1.0000
  C   C152      1.0  0.85684  0.53952  0.11519  1.0000
  H   H260      1.0  0.44658  0.49027  0.04947  1.0000
  H   H261      1.0  0.57178  0.68039  0.15565  1.0000
  C   C153      1.0  0.57792  0.64409  0.10454  1.0000
  C   C154      1.0  0.86159  0.58787  0.17771  1.0000
  C   C155      1.0  0.50377  0.75362  0.10873  1.0000
  S   S44       1.0  0.78157  0.69538  0.08243  1.0000
  H   H262      1.0  0.60824  0.56260  0.13294  1.0000
  N   N11       1.0  0.42327  0.81059  0.21359  1.0000
  C   C156      1.0  0.41646  0.46306  0.20918  1.0000
  H   H263      1.0  0.85568  0.76937  0.20102  1.0000
  H   H264      1.0  0.85633  0.53971  0.06754  1.0000
  S   S45       1.0  0.84890  0.57597  0.97689  1.0000
  Fe  Fe23      1.0  0.85028  0.72780  0.03278  1.0000
  C   C157      1.0  0.69055  0.51742  0.08537  1.0000
  C   C158      1.0  0.59132  0.55318  0.96979  1.0000
  H   H265      1.0  0.67232  0.48805  0.03675  1.0000
  S   S46       1.0  0.46028  0.62682  0.12977  1.0000
  S   S47       1.0  0.86053  0.81697  0.07828  1.0000
  C   C159      1.0  0.44627  0.78972  0.13762  1.0000
  H   H266      1.0  0.52616  0.75367  0.06158  1.0000
  C   C160      1.0  0.85469  0.48969  0.17590  1.0000
  Fe  Fe24      1.0  0.85675  0.64748  0.08234  1.0000
  H   H267      1.0  0.53575  0.76725  0.14699  1.0000
  H   H268      1.0  0.71168  0.54901  0.07608  1.0000
  H   H269      1.0  0.45981  0.74174  0.21315  1.0000
  C   C161      1.0  0.85340  0.49035  0.11426  1.0000
  H   H270      1.0  0.74311  0.54319  0.20383  1.0000
  H   H271      1.0  0.50995  0.47629  0.17742  1.0000
  H   H272      1.0  0.72894  0.61395  0.18298  1.0000
  C   C162      1.0  0.41827  0.52428  0.16049  1.0000
  H   H273      1.0  0.50305  0.53487  0.99762  1.0000
  C   C163      1.0  0.63075  0.63471  0.05868  1.0000
  C   C164      1.0  0.53895  0.56234  0.01549  1.0000
  H   H274      1.0  0.49287  0.71111  0.09219  1.0000
  H   H275      1.0  0.46243  0.54216  0.17249  1.0000
  C   C165      1.0  0.90948  0.83121  0.02236  1.0000
  C   C166      1.0  0.63889  0.54132  0.14648  1.0000
  H   H276      1.0  0.66494  0.66390  0.07472  1.0000
  H   H277      1.0  0.45422  0.82314  0.12669  1.0000
  H   H278      1.0  0.61306  0.50716  0.14512  1.0000
  H   H279      1.0  0.65814  0.64485  0.19771  1.0000
  S   S48       1.0  0.86768  0.64990  0.18096  1.0000
  H   H280      1.0  0.72473  0.49513  0.09292  1.0000
  C   C167      1.0  0.42776  0.47584  0.08520  1.0000
  C   C168      1.0  0.53131  0.60873  0.08179  1.0000
  H   H281      1.0  0.67334  0.46574  0.17671  1.0000
  H   H282      1.0  0.53772  0.86033  0.19533  1.0000
  Fe  Fe25      1.0  0.77812  0.62634  0.97336  1.0000
  H   H283      1.0  0.76452  0.80817  0.21395  1.0000
  C   C169      1.0  0.48409  0.46368  0.21197  1.0000
  C   C170      1.0  0.78970  0.79369  0.39237  1.0000
  H   H284      1.0  0.76672  0.87765  0.37343  1.0000
  H   H285      1.0  0.71494  0.48084  0.24553  1.0000
  H   H286      1.0  0.90153  0.47807  0.39252  1.0000
  C   C171      1.0  0.50226  0.88454  0.23938  1.0000
  C   C172      1.0  0.51839  0.89784  0.43709  1.0000
  H   H287      1.0  0.80277  0.89122  0.30938  1.0000
  H   H288      1.0  0.87126  0.75966  0.32350  1.0000
  H   H289      1.0  0.81031  0.82181  0.43932  1.0000
  C   C173      1.0  0.79071  0.85756  0.31921  1.0000
  S   S49       1.0  0.51177  0.59338  0.40402  1.0000
  H   H290      1.0  0.91327  0.67383  0.39681  1.0000
  H   H291      1.0  0.70657  0.85122  0.28063  1.0000
  C   C174      1.0  0.86225  0.58705  0.23914  1.0000
  N   N12       1.0  0.84579  0.82665  0.31254  1.0000
  C   C175      1.0  0.83030  0.78000  0.32395  1.0000
  H   H292      1.0  0.49237  0.70612  0.45055  1.0000
  H   H293      1.0  0.66046  0.68989  0.33000  1.0000
  H   H294      1.0  0.42634  0.91605  0.44026  1.0000
  H   H295      1.0  0.53175  0.88972  0.38451  1.0000
  H   H296      1.0  0.74515  0.80995  0.39552  1.0000
  C   C176      1.0  0.88295  0.86459  0.36724  1.0000
  H   H297      1.0  0.52500  0.91464  0.28363  1.0000
  H   H298      1.0  0.85668  0.88201  0.41977  1.0000
  Fe  Fe26      1.0  0.58477  0.60248  0.46519  1.0000
  C   C177      1.0  0.91243  0.65506  0.42821  1.0000
  C   C178      1.0  0.85830  0.53808  0.23847  1.0000
  H   H299      1.0  0.70831  0.57732  0.29117  1.0000
  H   H300      1.0  0.87319  0.94883  0.39215  1.0000
  H   H301      1.0  0.72819  0.79098  0.27735  1.0000
  H   H302      1.0  0.78254  0.75587  0.39408  1.0000
  H   H303      1.0  0.85882  0.53773  0.28636  1.0000
  C   C179      1.0  0.74550  0.82425  0.26943  1.0000
  C   C180      1.0  0.90589  0.91396  0.36218  1.0000
  H   H304      1.0  0.73361  0.65851  0.31030  1.0000
  C   C181      1.0  0.86110  0.63011  0.43863  1.0000
  S   S50       1.0  0.66534  0.54695  0.41528  1.0000
  S   S51       1.0  0.79559  0.63641  0.41018  1.0000
  H   H305      1.0  0.51722  0.64315  0.31017  1.0000
  C   C182      1.0  0.41592  0.76232  0.22335  1.0000
  C   C183      1.0  0.45471  0.64029  0.46115  1.0000
  S   S52       1.0  0.63629  0.88415  0.43945  1.0000
  C   C184      1.0  0.46479  0.84896  0.26245  1.0000
  H   H306      1.0  0.43949  0.87675  0.31480  1.0000
  C   C185      1.0  0.87920  0.80401  0.23979  1.0000
  H   H307      1.0  0.61234  0.61703  0.32536  1.0000
  H   H308      1.0  0.57342  0.67179  0.27664  1.0000
  H   H309      1.0  0.82214  0.46351  0.32491  1.0000
  H   H310      1.0  0.79986  0.47140  0.41101  1.0000
  H   H311      1.0  0.57633  0.56008  0.26534  1.0000
  H   H312      1.0  0.49759  0.82657  0.27228  1.0000
  H   H313      1.0  0.44541  0.56602  0.29174  1.0000
  H   H314      1.0  0.86590  0.62447  0.28740  1.0000
  H   H315      1.0  0.72004  0.70557  0.28367  1.0000
  C   C186      1.0  0.70041  0.67230  0.29011  1.0000
  H   H316      1.0  0.49401  0.49008  0.26624  1.0000
  H   H317      1.0  0.80850  0.74824  0.28028  1.0000
  C   C187      1.0  0.60085  0.59607  0.27115  1.0000
  H   H318      1.0  0.63819  0.50222  0.26657  1.0000
  C   C188      1.0  0.55509  0.63289  0.26788  1.0000
  C   C189      1.0  0.69918  0.55085  0.23639  1.0000
  H   H319      1.0  0.47551  0.90751  0.22470  1.0000
  C   C190      1.0  0.67945  0.49693  0.23059  1.0000
  H   H320      1.0  0.88034  0.83399  0.22223  1.0000
  C   C191      1.0  0.68581  0.62670  0.21847  1.0000
  N   N13       1.0  0.65617  0.57877  0.21807  1.0000
  H   H321      1.0  0.53634  0.61222  0.21804  1.0000
  H   H322      1.0  0.55383  0.46911  0.68546  1.0000
  C   C192      1.0  0.48521  0.92229  0.57494  1.0000
  C   C193      1.0  0.86031  0.60571  0.47891  1.0000
  C   C194      1.0  0.81685  0.49478  0.60254  1.0000
  Fe  Fe27      1.0  0.68760  0.92645  0.53005  1.0000
  S   S53       1.0  0.57268  0.59602  0.56118  1.0000
  Fe  Fe28      1.0  0.63013  0.66798  0.60517  1.0000
  H   H323      1.0  0.84618  0.72041  0.57244  1.0000
  C   C195      1.0  0.46701  0.73596  0.68150  1.0000
  C   C196      1.0  0.44280  0.92613  0.53801  1.0000
  H   H324      1.0  0.66749  0.62821  0.70101  1.0000
  H   H325      1.0  0.57708  0.90468  0.57261  1.0000
  H   H326      1.0  0.48238  0.79309  0.62118  1.0000
  C   C197      1.0  0.45525  0.69335  0.47390  1.0000
  H   H327      1.0  0.43206  0.73072  0.64924  1.0000
  H   H328      1.0  0.57470  0.60422  0.69330  1.0000
  H   H329      1.0  0.51078  0.85504  0.63329  1.0000
  C   C198      1.0  0.73263  0.45805  0.53931  1.0000
  H   H330      1.0  0.80940  0.79261  0.55266  1.0000
  C   C199      1.0  0.56112  0.89573  0.47499  1.0000
  H   H331      1.0  0.58870  0.53469  0.65599  1.0000
  H   H332      1.0  0.75866  0.73959  0.53327  1.0000
  Fe  Fe29      1.0  0.65819  0.54627  0.51531  1.0000
  Fe  Fe30      1.0  0.80934  0.93276  0.57557  1.0000
  H   H333      1.0  0.43233  0.84665  0.63596  1.0000
  H   H334      1.0  0.61839  0.77821  0.63267  1.0000
  Fe  Fe31      1.0  0.71599  0.62201  0.46869  1.0000
  H   H335      1.0  0.48802  0.53543  0.64852  1.0000
  C   C200      1.0  0.77910  0.77345  0.57636  1.0000
  H   H336      1.0  0.47258  0.93254  0.62863  1.0000
  H   H337      1.0  0.63108  0.47198  0.69879  1.0000
  S   S54       1.0  0.71496  0.61796  0.56580  1.0000
  S   S55       1.0  0.72798  0.88838  0.58103  1.0000
  H   H338      1.0  0.77938  0.72778  0.62743  1.0000
  H   H339      1.0  0.84167  0.52933  0.63467  1.0000
  C   C201      1.0  0.62548  0.80938  0.68438  1.0000
  H   H340      1.0  0.63268  0.87158  0.65783  1.0000
  C   C202      1.0  0.54435  0.90710  0.54351  1.0000
  S   S56       1.0  0.63563  0.67820  0.51183  1.0000
  H   H341      1.0  0.75136  0.54256  0.59480  1.0000
  H   H342      1.0  0.51116  0.73523  0.65263  1.0000
  H   H343      1.0  0.46539  0.69940  0.68656  1.0000
  H   H344      1.0  0.67451  0.54684  0.71218  1.0000
  C   C203      1.0  0.81219  0.75109  0.61246  1.0000
  C   C204      1.0  0.47303  0.83715  0.65074  1.0000
  H   H345      1.0  0.74230  0.80222  0.61266  1.0000
  C   C205      1.0  0.49689  0.56375  0.70286  1.0000
  C   C206      1.0  0.76577  0.50233  0.57964  1.0000
  S   S57       1.0  0.66796  0.46713  0.51146  1.0000
  C   C207      1.0  0.45910  0.91316  0.46872  1.0000
  H   H346      1.0  0.82246  0.58341  0.48333  1.0000
  C   C208      1.0  0.90762  0.61199  0.51581  1.0000
  S   S58       1.0  0.89826  0.88888  0.53503  1.0000
  C   C209      1.0  0.63411  0.86238  0.69856  1.0000
  N   N14       1.0  0.83984  0.79272  0.67481  1.0000
  C   C210      1.0  0.56478  0.57041  0.70319  1.0000
  C   C211      1.0  0.88104  0.82744  0.65662  1.0000
  H   H347      1.0  0.85557  0.85460  0.64659  1.0000
  H   H348      1.0  0.90519  0.59598  0.55045  1.0000
  H   H349      1.0  0.83967  0.68459  0.67570  1.0000
  H   H350      1.0  0.90071  0.48172  0.47393  1.0000
  C   C212      1.0  0.87524  0.76340  0.69865  1.0000
  H   H351      1.0  0.91083  0.77082  0.54402  1.0000
  H   H352      1.0  0.91032  0.73623  0.65589  1.0000
  H   H353      1.0  0.90463  0.85515  0.70150  1.0000
  H   H354      1.0  0.59778  0.54264  0.82763  1.0000
  H   H355      1.0  0.77086  0.89277  0.84030  1.0000
  Fe  Fe32      1.0  0.91207  0.61727  0.93517  1.0000
  H   H356      1.0  0.59484  0.51868  0.91747  1.0000
  C   C213      1.0  0.55885  0.63516  0.82810  1.0000
  C   C214      1.0  0.63058  0.83895  0.80539  1.0000
  H   H357      1.0  0.89199  0.60332  0.72439  1.0000
  C   C215      1.0  0.79262  0.46291  0.79516  1.0000
  C   C216      1.0  0.57234  0.53836  0.78630  1.0000
  H   H358      1.0  0.62908  0.66580  0.89710  1.0000
  H   H359      1.0  0.64572  0.92385  0.87166  1.0000
  H   H360      1.0  0.84696  0.89032  0.80507  1.0000
  H   H361      1.0  0.47657  0.54589  0.73399  1.0000
  C   C217      1.0  0.64285  0.90345  0.76558  1.0000
  H   H362      1.0  0.72791  0.50496  0.77275  1.0000
  C   C218      1.0  0.80905  0.86488  0.80495  1.0000
  H   H363      1.0  0.49402  0.92738  0.86107  1.0000
  C   C219      1.0  0.63972  0.89200  0.81946  1.0000
  H   H364      1.0  0.49912  0.87108  0.87562  1.0000
  S   S59       1.0  0.44653  0.59797  0.94687  1.0000
  C   C220      1.0  0.65439  0.58480  0.75901  1.0000
  C   C221      1.0  0.58122  0.65675  0.89906  1.0000
  H   H365      1.0  0.66436  0.67191  0.79467  1.0000
  H   H366      1.0  0.45281  0.92961  0.93595  1.0000
  H   H367      1.0  0.50980  0.63164  0.83736  1.0000
  H   H368      1.0  0.52494  0.54207  0.80942  1.0000
  H   H369      1.0  0.57290  0.62840  0.91870  1.0000
  S   S60       1.0  0.69767  0.58195  0.92835  1.0000
  S   S61       1.0  0.84102  0.66245  0.92276  1.0000
  H   H370      1.0  0.56393  0.66741  0.81434  1.0000
  H   H371      1.0  0.43451  0.77482  0.79183  1.0000
  H   H372      1.0  0.55620  0.69521  0.93792  1.0000
  H   H373      1.0  0.79298  0.74086  0.74373  1.0000
  H   H374      1.0  0.81978  0.84038  0.82775  1.0000
  H   H375      1.0  0.62920  0.82999  0.84688  1.0000
  C   C222      1.0  0.62477  0.79737  0.73740  1.0000
  H   H376      1.0  0.79525  0.50145  0.84530  1.0000
  C   C223      1.0  0.46882  0.90216  0.87949  1.0000
  H   H377      1.0  0.67356  0.58764  0.80370  1.0000
  C   C224      1.0  0.67916  0.63150  0.74919  1.0000
  H   H378      1.0  0.67549  0.47117  0.84252  1.0000
  N   N15       1.0  0.58751  0.58219  0.76918  1.0000
  H   H379      1.0  0.72853  0.62919  0.74335  1.0000
  H   H380      1.0  0.75248  0.80555  0.73615  1.0000
  N   N16       1.0  0.42774  0.83640  0.76357  1.0000
  C   C225      1.0  0.79095  0.82911  0.73142  1.0000
  C   C226      1.0  0.77015  0.48051  0.74774  1.0000
  H   H381      1.0  0.77191  0.85720  0.71791  1.0000
  H   H382      1.0  0.91099  0.75064  0.93309  1.0000
  C   C227      1.0  0.45782  0.78704  0.75518  1.0000
  H   H383      1.0  0.50270  0.79669  0.77154  1.0000
  H   H384      1.0  0.45318  0.90571  0.75317  1.0000
  H   H385      1.0  0.74194  0.47528  0.91958  1.0000
  H   H386      1.0  0.51391  0.86392  0.74301  1.0000
  H   H387      1.0  0.80326  0.50695  0.73980  1.0000
  C   C228      1.0  0.83972  0.72651  0.72101  1.0000
  H   H388      1.0  0.86041  0.72562  0.76248  1.0000
  C   C229      1.0  0.46801  0.86260  0.73060  1.0000
  S   S62       1.0  0.61604  0.73085  0.71975  1.0000
  H   H389      1.0  0.90109  0.79167  0.74104  1.0000
  H   H390      1.0  0.47357  0.60339  0.72284  1.0000
  C   C230      1.0  0.58436  0.47967  0.72473  1.0000
  H   H391      1.0  0.78923  0.36590  0.98132  1.0000
  H   H392      1.0  0.61517  0.12456  0.01060  1.0000
  H   H393      1.0  0.50058  0.42215  0.19462  1.0000
  S   S63       1.0  0.45263  0.30065  0.08376  1.0000
  H   H394      1.0  0.89447  0.35752  0.21517  1.0000
  H   H395      1.0  0.84880  0.45320  0.06623  1.0000
  H   H396      1.0  0.69642  0.40402  0.06225  1.0000
  C   C231      1.0  0.66538  0.22760  0.04118  1.0000
  Fe  Fe33      1.0  0.88726  0.35861  0.07026  1.0000
  H   H397      1.0  0.69094  0.20294  0.05448  1.0000
  S   S64       1.0  0.42106  0.34103  0.97939  1.0000
  S   S65       1.0  0.85373  0.42885  0.17549  1.0000
  H   H398      1.0  0.69176  0.26316  0.04887  1.0000
  H   H399      1.0  0.46055  0.44561  0.07899  1.0000
  H   H400      1.0  0.62395  0.24205  0.07941  1.0000
  S   S66       1.0  0.57469  0.38463  0.04436  1.0000
  S   S67       1.0  0.88590  0.16132  0.00224  1.0000
  Fe  Fe34      1.0  0.50304  0.32453  0.01090  1.0000
  S   S68       1.0  0.48310  0.14705  0.00181  1.0000
  S   S69       1.0  0.82728  0.29101  0.01593  1.0000
  Fe  Fe35      1.0  0.90322  0.23639  0.99731  1.0000
  C   C232      1.0  0.69446  0.37491  0.00798  1.0000
  H   H401      1.0  0.42164  0.20252  0.21343  1.0000
  Fe  Fe36      1.0  0.46095  0.21688  0.99041  1.0000
  H   H402      1.0  0.60222  0.18307  0.96824  1.0000
  C   C233      1.0  0.63965  0.35826  0.98427  1.0000
  H   H403      1.0  0.42691  0.06449  0.02307  1.0000
  H   H404      1.0  0.72515  0.12039  0.97522  1.0000
  C   C234      1.0  0.91184  0.37979  0.26632  1.0000
  N   N17       1.0  0.87407  0.36991  0.31921  1.0000
  C   C235      1.0  0.87718  0.30944  0.29036  1.0000
  H   H405      1.0  0.78763  0.28503  0.31263  1.0000
  H   H406      1.0  0.74845  0.45131  0.35026  1.0000
  C   C236      1.0  0.79578  0.44680  0.35450  1.0000
  H   H407      1.0  0.79419  0.36324  0.27328  1.0000
  H   H408      1.0  0.86084  0.39922  0.42999  1.0000
  H   H409      1.0  0.82923  0.31326  0.38593  1.0000
  H   H410      1.0  0.78041  0.37669  0.36096  1.0000
  H   H411      1.0  0.84719  0.24633  0.31283  1.0000
  H   H412      1.0  0.84631  0.05982  0.40916  1.0000
  C   C237      1.0  0.83378  0.09402  0.46125  1.0000
  C   C238      1.0  0.89587  0.39819  0.38957  1.0000
  H   H413      1.0  0.90963  0.42269  0.28095  1.0000
  H   H414      1.0  0.87013  0.28667  0.23430  1.0000
  S   S70       1.0  0.90812  0.15121  0.41891  1.0000
  C   C239      1.0  0.81011  0.38641  0.32531  1.0000
  C   C240      1.0  0.83253  0.28797  0.32832  1.0000
  H   H415      1.0  0.60173  0.00986  0.46064  1.0000
  C   C241      1.0  0.80055  0.18221  0.59574  1.0000
  C   C242      1.0  0.44097  0.10026  0.53168  1.0000
  C   C243      1.0  0.85606  0.14484  0.47935  1.0000
  H   H416      1.0  0.47989  0.26144  0.68430  1.0000
  C   C244      1.0  0.45473  0.08236  0.64944  1.0000
  H   H417      1.0  0.42694  0.12833  0.51543  1.0000
  C   C245      1.0  0.78017  0.13089  0.57843  1.0000
  C   C246      1.0  0.46844  0.06236  0.69848  1.0000
  Fe  Fe37      1.0  0.73796  0.03612  0.62012  1.0000
  H   H418      1.0  0.81572  0.35818  0.53165  1.0000
  H   H419      1.0  0.86812  0.07507  0.63472  1.0000
  H   H420      1.0  0.52096  0.14272  0.56056  1.0000
  H   H421      1.0  0.90835  0.98620  0.66680  1.0000
  C   C247      1.0  0.59464  0.04835  0.51183  1.0000
  H   H422      1.0  0.42269  0.11768  0.68146  1.0000
  H   H423      1.0  0.61918  0.14811  0.60389  1.0000
  N   N18       1.0  0.50778  0.09666  0.61384  1.0000
  H   H424      1.0  0.46117  0.16696  0.62955  1.0000
  H   H425      1.0  0.91398  0.22317  0.64387  1.0000
  H   H426      1.0  0.57671  0.10339  0.67551  1.0000
  S   S71       1.0  0.78253  0.00735  0.67938  1.0000
  H   H427      1.0  0.50781  0.01694  0.52024  1.0000
  H   H428      1.0  0.76413  0.44566  0.69599  1.0000
  H   H429      1.0  0.48551  0.34963  0.68935  1.0000
  H   H430      1.0  0.85363  0.22886  0.55932  1.0000
  C   C248      1.0  0.53877  0.04434  0.55618  1.0000
  Fe  Fe38      1.0  0.69811  0.96512  0.68177  1.0000
  C   C249      1.0  0.83532  0.44282  0.58466  1.0000
  C   C250      1.0  0.83814  0.18926  0.54596  1.0000
  C   C251      1.0  0.80227  0.39831  0.54439  1.0000
  C   C252      1.0  0.54835  0.13007  0.66767  1.0000
  H   H431      1.0  0.59019  0.08008  0.49863  1.0000
  H   H432      1.0  0.91003  0.10839  0.70576  1.0000
  S   S72       1.0  0.73783  0.12177  0.64298  1.0000
  H   H433      1.0  0.42918  0.05024  0.61020  1.0000
  S   S73       1.0  0.89710  0.43499  0.61772  1.0000
  H   H434      1.0  0.55338  0.02026  0.57773  1.0000
  H   H435      1.0  0.61946  0.18705  0.69580  1.0000
  C   C253      1.0  0.79543  0.08725  0.51054  1.0000
  H   H436      1.0  0.63471  0.05479  0.53811  1.0000
  S   S74       1.0  0.65126  0.00012  0.63134  1.0000
  C   C254      1.0  0.77812  0.34541  0.67753  1.0000
  H   H437      1.0  0.78837  0.21614  0.64816  1.0000
  H   H438      1.0  0.85449  0.14539  0.69364  1.0000
  H   H439      1.0  0.56432  0.20270  0.65908  1.0000
  C   C255      1.0  0.48454  0.12908  0.58569  1.0000
  S   S75       1.0  0.77149  0.96465  0.51613  1.0000
  C   C256      1.0  0.89032  0.11334  0.66679  1.0000
  H   H440      1.0  0.50565  0.03180  0.67548  1.0000
  C   C257      1.0  0.58989  0.16863  0.65455  1.0000
  H   H441      1.0  0.73639  0.35707  0.66763  1.0000
  H   H442      1.0  0.77924  0.30055  0.64792  1.0000
  C   C258      1.0  0.75069  0.40602  0.52201  1.0000
  H   H443      1.0  0.81653  0.35959  0.65534  1.0000
  H   H444      1.0  0.77712  0.04846  0.49540  1.0000
  H   H445      1.0  0.72471  0.37171  0.49135  1.0000
  H   H446      1.0  0.46199  0.06385  0.48365  1.0000
  H   H447      1.0  0.91392  0.12411  0.57829  1.0000
  H   H448      1.0  0.42851  0.04313  0.70971  1.0000
  H   H449      1.0  0.80497  0.09426  0.85307  1.0000
  H   H450      1.0  0.47832  0.09657  0.74935  1.0000
  H   H451      1.0  0.68930  0.26632  0.81342  1.0000
  H   H452      1.0  0.71806  0.06931  0.88931  1.0000
  H   H453      1.0  0.68334  0.42231  0.75330  1.0000
  H   H454      1.0  0.66162  0.34851  0.78547  1.0000
  H   H455      1.0  0.84332  0.38900  0.86792  1.0000
  C   C259      1.0  0.66712  0.12241  0.84409  1.0000
  S   S76       1.0  0.42278  0.23194  0.78316  1.0000
  C   C260      1.0  0.43760  0.09501  0.95246  1.0000
  H   H456      1.0  0.60327  0.39714  0.80892  1.0000
  H   H457      1.0  0.74864  0.20708  0.90168  1.0000
  H   H458      1.0  0.63373  0.19221  0.84062  1.0000
  H   H459      1.0  0.62085  0.10956  0.84980  1.0000
  C   C261      1.0  0.78057  0.36552  0.75524  1.0000
  H   H460      1.0  0.57543  0.45152  0.74486  1.0000
  H   H461      1.0  0.70966  0.17078  0.79935  1.0000
  H   H462      1.0  0.82849  0.36179  0.75826  1.0000
  S   S77       1.0  0.81202  0.27967  0.84000  1.0000
  C   C262      1.0  0.42874  0.39242  0.78820  1.0000
  C   C263      1.0  0.42097  0.09031  0.89199  1.0000
  H   H463      1.0  0.89706  0.21953  0.72063  1.0000
  S   S78       1.0  0.43449  0.45484  0.79209  1.0000
  C   C264      1.0  0.79855  0.13067  0.84927  1.0000
  H   H464      1.0  0.83976  0.44788  0.77342  1.0000
  C   C265      1.0  0.69581  0.10740  0.93403  1.0000
  C   C266      1.0  0.74713  0.35225  0.96230  1.0000
  H   H465      1.0  0.64929  0.13170  0.75837  1.0000
  H   H466      1.0  0.44007  0.11603  0.87282  1.0000
  H   H467      1.0  0.76018  0.33538  0.76822  1.0000
  H   H468      1.0  0.60476  0.07672  0.92096  1.0000
  H   H469      1.0  0.84196  0.15042  0.85412  1.0000
  Fe  Fe39      1.0  0.43122  0.25448  0.89307  1.0000
  H   H470      1.0  0.64671  0.22669  0.95042  1.0000
  C   C267      1.0  0.69127  0.42881  0.80446  1.0000
  H   H471      1.0  0.82439  0.44781  0.95168  1.0000
  C   C268      1.0  0.63649  0.09098  0.95959  1.0000
  C   C269      1.0  0.74536  0.31196  0.89281  1.0000
  H   H472      1.0  0.59527  0.30870  0.89433  1.0000
  Fe  Fe40      1.0  0.86949  0.28958  0.91858  1.0000
  C   C270      1.0  0.75146  0.17125  0.90804  1.0000
  C   C271      1.0  0.63760  0.32005  0.91362  1.0000
  N   N19       1.0  0.69088  0.14931  0.91317  1.0000
  S   S79       1.0  0.51721  0.23961  0.92009  1.0000
  C   C272      1.0  0.76182  0.43422  0.87976  1.0000
  H   H473      1.0  0.73631  0.40563  0.89151  1.0000
  C   C273      1.0  0.82561  0.43140  0.89474  1.0000
  C   C274      1.0  0.69067  0.29678  0.86767  1.0000
  S   S80       1.0  0.66006  0.96839  0.78150  1.0000
  H   H474      1.0  0.64287  0.40368  0.87535  1.0000
  H   H475      1.0  0.78769  0.11877  0.79688  1.0000
  C   C275      1.0  0.64827  0.39199  0.81951  1.0000
  C   C276      1.0  0.66528  0.15692  0.80966  1.0000
  H   H476      1.0  0.69315  0.08429  0.80536  1.0000
  C   C277      1.0  0.42152  0.29238  0.78191  1.0000
  H   H477      1.0  0.77033  0.18651  0.95769  1.0000
  N   N20       1.0  0.75640  0.42228  0.80710  1.0000
  C   C278      1.0  0.45878  0.34641  0.73083  1.0000
  H   H478      1.0  0.85712  0.45546  0.88014  1.0000
  C   C279      1.0  0.45522  0.29638  0.72770  1.0000
  C   C280      1.0  0.64897  0.19592  0.96620  1.0000
  H   H479      1.0  0.52182  0.15694  0.71958  1.0000
  H   H480      1.0  0.64538  0.05681  0.96735  1.0000
