data_image0
_chemical_formula_structural       C2FeHSFeSH5CHCFe2CHCSHS3HCSHCHC2HS2HCFe2CH4CH3CSCH3C2SC2HSH3CFeCHCSFeHSH3CHCHCH4C2NS2HNHCH3SC2H3NCH4CNFeHCHC2HCH3C2HC3H2CH2SH2CH4CHCHCH5CH2C2NCHC2H2CH6C2H4CHCH2CSHCH3CH2CH8C2H2CH2CHCHC2H4CHCH6C3HCSHC2NC2SH4SCH3C3FeCHCH2SCH3CSH2CSHCSCFeSHC3FeSHCH2FeCH2SCH2CSHCFeCHFeH3CSH2CHCS2FeHC2SHCFeH2SCHCHC2SHCH4C3HCH4SH5CHFeH5CH3SC2HCH2SCH5CHC2SC4HCH6NCHNH3CNCH2CH4CH2CSHC2H2CH3CH2CH5FeSCFeC2FeNC2HCHFeH2C3FeHC4HNSH2C3HNHFeH3FeCS2C2H5SCHCSCH3CH5C3HSHCH2C3SH3SHC2HCSCH2CHC2FeC2HSHSH3CHCHCH6SH2C2H6CH5S2C2HSH3SH3SH3CH3CH6SHCH4C6H4NC2HCHCHCHCHCH7CH3CH3CSH2C2H2CHC2H2CH2C2HNC3HCH3FeH2Fe2SCH9SH5FeHCHC2HC2HCHFeC3HC2HSH4CH2FeH4SCSFeC2HCH2C3NSH2SHCH2CSCHCH2NHSHSH4SC2H2C2H3SFeC2HCH2CHC3H2NH4CHSHC3HNH2CHCH7C3H3NSHC2H6CH2CH5CFeCHNH5FeC2HCH3CHCH5C3H3CH7C2HC3H3SH2C2H2C2H2NHCH3CH3SH4CSCH3FeHCH2SHSCH3FeC2H2FeC3SHC2SH6SHS3HCHSCHFeC5HCH3FeHCHCNH4CH2FeSFeC2HC2H8NHSH2SC2HSCHCH2CNSH5CH3C4H8SC2HSHC3H2C2FeHCH7FeHC3H2C5H3C4H3CHC2H2CFeH2SH6SCHCH2SCHC2H2C2H7CHCHC2FeHFeHCNCSH5C3SCH4CH2SH2CFeH2FeH2C2HCSCH2SHSH2CHFeCH3C2HCH3FeCHCHSH4NHFeCSCH2CS2C2HCSHSFeHCHCSCHFeH4C2HFeHCSHC2H2CH2SCH3CH3CH2C2HCHC4NCH2C2H7CH2CH5CHCH4C2HCSH2CHSCH4SHCNH2SHCH4SC2HCFeCS2H2C4HCH3C2H2CHCHSHCHSC2H2SHCSNC3H4CHCHFeH2CFeH2FeHCHCHFeSCH4CHC2HS2HSH5SCHSH5S2Fe2HFeH4FeCHC3HCHFeNH3C3H3CH2CHSHCHCHFeHCHSCFeCH4CH2SH2S2HCH3C2H2SC2SCH2C2HCH4NHCHSC3H5CH2C2H5CNHCH2CH4CNH2CH3CHCH2NCHSHCH2FeHSCSHSHCHCFeHFeSH7SHCHC2H2FeCHCSCHCH2CHCHSHFeCHC2FeH3FeH3C2SH2SH2SCSCH4CNCSC3HCH3CFeHC3FeHSHSC3H2NHFeHCHCHCSHCHCH2CH4CHCH8FeCHNCH3CHSH2SH4CSHCH4NHCSC3H7CHSH2C2H11C2H2CHC5HC7HCHCH2CH2NH3CHC2NHCFeH
_chemical_formula_sum              "C560 Fe80 H960 S160 N40"
_cell_length_a       21.5733
_cell_length_b       53.3547
_cell_length_c       21.9172
_cell_angle_alpha    65.0931
_cell_angle_beta     85.5792
_cell_angle_gamma    89.4068

_space_group_name_H-M_alt    "P 1"
_space_group_IT_number       1

loop_
  _space_group_symop_operation_xyz
  'x, y, z'

loop_
  _atom_site_type_symbol
  _atom_site_label
  _atom_site_symmetry_multiplicity
  _atom_site_fract_x
  _atom_site_fract_y
  _atom_site_fract_z
  _atom_site_occupancy
  C   C1        1.0  0.01606  0.95840  0.05594  1.0000
  C   C2        1.0  0.64466  0.91789  0.03987  1.0000
  Fe  Fe1       1.0  0.35619  0.91464  0.05647  1.0000
  H   H1        1.0  0.77676  0.06267  0.92540  1.0000
  S   S1        1.0  0.10053  0.00391  0.89351  1.0000
  Fe  Fe2       1.0  0.11965  0.08253  0.96067  1.0000
  S   S2        1.0  0.39035  0.91653  0.95564  1.0000
  H   H2        1.0  0.78136  0.02092  0.86184  1.0000
  H   H3        1.0  0.94703  0.98523  0.95216  1.0000
  H   H4        1.0  0.01039  0.98108  0.03906  1.0000
  H   H5        1.0  0.76544  0.02615  0.96540  1.0000
  H   H6        1.0  0.24101  0.93006  0.01129  1.0000
  C   C3        1.0  0.18115  0.96274  0.95533  1.0000
  H   H7        1.0  0.50150  0.94166  0.99126  1.0000
  C   C4        1.0  0.20892  0.00823  0.94527  1.0000
  Fe  Fe3       1.0  0.00447  0.04870  0.03371  1.0000
  Fe  Fe4       1.0  0.62607  0.07265  0.05445  1.0000
  C   C5        1.0  0.38523  0.09750  0.95514  1.0000
  H   H8        1.0  0.07978  0.95262  0.86428  1.0000
  C   C6        1.0  0.39285  0.08559  0.90937  1.0000
  S   S3        1.0  0.48515  0.02691  0.06311  1.0000
  H   H9        1.0  0.18187  0.91958  0.85139  1.0000
  S   S4        1.0  0.46801  0.07883  0.88416  1.0000
  S   S5        1.0  0.97470  0.04625  0.94098  1.0000
  S   S6        1.0  0.62399  0.05103  0.98630  1.0000
  H   H10       1.0  0.44425  0.97423  0.86936  1.0000
  C   C7        1.0  0.27107  0.96898  0.00793  1.0000
  S   S7        1.0  0.20020  0.10302  0.98106  1.0000
  H   H11       1.0  0.57239  0.11851  0.87159  1.0000
  C   C8        1.0  0.23256  0.95188  0.99252  1.0000
  H   H12       1.0  0.23997  0.07920  0.88706  1.0000
  C   C9        1.0  0.56003  0.95771  0.04249  1.0000
  C   C10       1.0  0.79101  0.04321  0.92208  1.0000
  H   H13       1.0  0.37206  0.98775  0.89070  1.0000
  S   S8        1.0  0.53226  0.09036  0.03253  1.0000
  S   S9        1.0  0.56602  0.89542  0.98306  1.0000
  H   H14       1.0  0.29041  0.01069  0.99374  1.0000
  C   C11       1.0  0.54558  0.93997  0.01287  1.0000
  Fe  Fe5       1.0  0.07459  0.03863  0.92164  1.0000
  Fe  Fe6       1.0  0.00254  0.09120  0.88863  1.0000
  C   C12       1.0  0.61584  0.95483  0.07302  1.0000
  H   H15       1.0  0.28789  0.93855  0.84143  1.0000
  H   H16       1.0  0.87990  0.98762  0.00466  1.0000
  H   H17       1.0  0.34597  0.07012  0.84865  1.0000
  H   H18       1.0  0.42838  0.10802  0.08011  1.0000
  C   C13       1.0  0.25985  0.99727  0.98332  1.0000
  H   H19       1.0  0.64335  0.12620  0.94678  1.0000
  H   H20       1.0  0.67713  0.90237  0.03944  1.0000
  H   H21       1.0  0.84118  0.04006  0.92903  1.0000
  C   C14       1.0  0.58765  0.91990  0.01198  1.0000
  S   S10       1.0  0.10090  0.08332  0.86071  1.0000
  C   C15       1.0  0.77395  0.04237  0.85586  1.0000
  H   H22       1.0  0.93428  0.93330  0.00638  1.0000
  H   H23       1.0  0.20025  0.03009  0.92658  1.0000
  H   H24       1.0  0.28034  0.13670  0.07608  1.0000
  C   C16       1.0  0.28047  0.08439  0.90588  1.0000
  C   C17       1.0  0.32588  0.10290  0.97622  1.0000
  S   S11       1.0  0.33153  0.95485  0.06005  1.0000
  C   C18       1.0  0.77062  0.07764  0.08421  1.0000
  C   C19       1.0  0.42272  0.99169  0.87740  1.0000
  H   H25       1.0  0.44323  0.99210  0.92201  1.0000
  S   S12       1.0  0.70460  0.09777  0.06177  1.0000
  H   H26       1.0  0.32069  0.11207  0.01184  1.0000
  H   H27       1.0  0.67819  0.13185  0.86677  1.0000
  H   H28       1.0  0.18360  0.95488  0.83593  1.0000
  C   C20       1.0  0.34038  0.07937  0.88391  1.0000
  Fe  Fe7       1.0  0.58486  0.01556  0.08061  1.0000
  C   C21       1.0  0.90340  0.97470  0.98176  1.0000
  H   H29       1.0  0.72265  0.04501  0.85378  1.0000
  C   C22       1.0  0.27343  0.09613  0.95228  1.0000
  S   S13       1.0  0.10221  0.03703  0.01969  1.0000
  Fe  Fe8       1.0  0.52456  0.06460  0.97471  1.0000
  H   H30       1.0  0.42505  0.10335  0.97298  1.0000
  S   S14       1.0  0.02353  0.09431  0.98363  1.0000
  H   H31       1.0  0.76895  0.12975  0.91704  1.0000
  H   H32       1.0  0.52706  0.97296  0.04356  1.0000
  H   H33       1.0  0.14957  0.94904  0.94731  1.0000
  C   C23       1.0  0.16890  0.99088  0.93237  1.0000
  H   H34       1.0  0.87201  0.97340  0.94528  1.0000
  C   C24       1.0  0.91460  0.94510  0.03473  1.0000
  H   H35       1.0  0.03003  0.95559  0.00915  1.0000
  C   C25       1.0  0.65824  0.93500  0.07145  1.0000
  H   H36       1.0  0.86764  0.93573  0.05652  1.0000
  H   H37       1.0  0.82939  0.11200  0.07275  1.0000
  H   H38       1.0  0.30468  0.02568  0.08218  1.0000
  H   H39       1.0  0.11098  0.96637  0.07110  1.0000
  C   C26       1.0  0.20235  0.95044  0.19326  1.0000
  C   C27       1.0  0.28431  0.99851  0.29820  1.0000
  N   N1        1.0  0.49213  0.96159  0.31125  1.0000
  S   S15       1.0  0.94588  0.02724  0.13054  1.0000
  S   S16       1.0  0.43410  0.88939  0.11108  1.0000
  H   H40       1.0  0.72446  0.03967  0.09839  1.0000
  N   N2        1.0  0.95564  0.94286  0.08960  1.0000
  H   H41       1.0  0.17716  0.12082  0.08745  1.0000
  C   C28       1.0  0.44345  0.96524  0.20337  1.0000
  H   H42       1.0  0.15094  0.97136  0.28255  1.0000
  H   H43       1.0  0.78380  0.13574  0.16392  1.0000
  H   H44       1.0  0.00186  0.90889  0.16700  1.0000
  S   S17       1.0  0.59216  0.03679  0.14885  1.0000
  C   C29       1.0  0.95127  0.95256  0.19658  1.0000
  C   C30       1.0  0.23560  0.02625  0.16162  1.0000
  H   H45       1.0  0.81902  0.01176  0.12817  1.0000
  H   H46       1.0  0.65530  0.08669  0.19942  1.0000
  H   H47       1.0  0.68182  0.13520  0.12363  1.0000
  N   N3        1.0  0.15687  0.10375  0.19585  1.0000
  C   C31       1.0  0.12268  0.12975  0.18701  1.0000
  H   H48       1.0  0.25705  0.06580  0.31984  1.0000
  H   H49       1.0  0.15798  0.09058  0.30329  1.0000
  H   H50       1.0  0.29324  0.11534  0.16210  1.0000
  H   H51       1.0  0.66360  0.11977  0.30866  1.0000
  C   C32       1.0  0.76765  0.04935  0.10008  1.0000
  N   N4        1.0  0.22165  0.99598  0.20463  1.0000
  Fe  Fe9       1.0  0.49706  0.05224  0.12103  1.0000
  H   H52       1.0  0.98467  0.96980  0.18627  1.0000
  C   C33       1.0  0.30008  0.03339  0.12197  1.0000
  H   H53       1.0  0.22211  0.11165  0.25707  1.0000
  C   C34       1.0  0.07359  0.95045  0.09727  1.0000
  C   C35       1.0  0.20131  0.11001  0.13446  1.0000
  H   H54       1.0  0.57562  0.05222  0.27353  1.0000
  C   C36       1.0  0.92205  0.95571  0.13192  1.0000
  H   H55       1.0  0.20047  0.04983  0.29262  1.0000
  H   H56       1.0  0.97442  0.93279  0.22163  1.0000
  H   H57       1.0  0.15871  0.00562  0.27341  1.0000
  C   C37       1.0  0.56967  0.13341  0.17752  1.0000
  C   C38       1.0  0.84042  0.98697  0.30574  1.0000
  H   H58       1.0  0.50379  0.00626  0.26771  1.0000
  C   C39       1.0  0.75912  0.03533  0.29315  1.0000
  C   C40       1.0  0.56648  0.07470  0.25137  1.0000
  C   C41       1.0  0.88054  0.07436  0.10136  1.0000
  H   H59       1.0  0.52833  0.94403  0.24186  1.0000
  H   H60       1.0  0.06469  0.94934  0.14855  1.0000
  C   C42       1.0  0.87765  0.04610  0.11723  1.0000
  H   H61       1.0  0.06870  0.11299  0.28655  1.0000
  H   H62       1.0  0.88255  0.03262  0.31219  1.0000
  S   S18       1.0  0.63218  0.97475  0.11648  1.0000
  H   H63       1.0  0.31492  0.98133  0.22793  1.0000
  H   H64       1.0  0.05968  0.99728  0.23724  1.0000
  C   C43       1.0  0.50218  0.96216  0.24186  1.0000
  H   H65       1.0  0.45328  0.91078  0.30828  1.0000
  H   H66       1.0  0.74699  0.98525  0.27240  1.0000
  H   H67       1.0  0.06338  0.10890  0.11406  1.0000
  H   H68       1.0  0.26450  0.07028  0.23437  1.0000
  C   C44       1.0  0.06220  0.12583  0.23277  1.0000
  H   H69       1.0  0.02893  0.07549  0.15884  1.0000
  C   C45       1.0  0.90976  0.89434  0.16908  1.0000
  H   H70       1.0  0.53138  0.07830  0.28612  1.0000
  C   C46       1.0  0.25853  0.12807  0.12858  1.0000
  H   H71       1.0  0.21855  0.09071  0.13189  1.0000
  H   H72       1.0  0.71011  0.04181  0.29226  1.0000
  H   H73       1.0  0.52139  0.12550  0.30686  1.0000
  H   H74       1.0  0.53324  0.97992  0.20870  1.0000
  H   H75       1.0  0.52534  0.12387  0.20694  1.0000
  C   C47       1.0  0.39717  0.09314  0.24588  1.0000
  H   H76       1.0  0.65404  0.08114  0.28528  1.0000
  H   H77       1.0  0.25640  0.96184  0.28987  1.0000
  C   C48       1.0  0.82114  0.03351  0.11713  1.0000
  C   C49       1.0  0.11256  0.08092  0.20266  1.0000
  N   N5        1.0  0.62480  0.12194  0.21837  1.0000
  C   C50       1.0  0.27030  0.98336  0.25412  1.0000
  H   H78       1.0  0.30666  0.05618  0.09677  1.0000
  C   C51       1.0  0.56553  0.11739  0.32982  1.0000
  C   C52       1.0  0.39035  0.12009  0.24080  1.0000
  H   H79       1.0  0.37855  0.12322  0.28594  1.0000
  H   H80       1.0  0.09695  0.98953  0.17215  1.0000
  C   C53       1.0  0.62837  0.09109  0.23912  1.0000
  H   H81       1.0  0.30616  0.01924  0.26804  1.0000
  H   H82       1.0  0.80404  0.96562  0.25025  1.0000
  H   H83       1.0  0.75069  0.10187  0.20866  1.0000
  H   H84       1.0  0.78830  0.05280  0.29066  1.0000
  H   H85       1.0  0.87530  0.89314  0.13535  1.0000
  H   H86       1.0  0.57225  0.12813  0.13329  1.0000
  C   C54       1.0  0.42020  0.11132  0.12515  1.0000
  C   C55       1.0  0.47142  0.98971  0.30393  1.0000
  H   H87       1.0  0.19157  0.99193  0.11670  1.0000
  H   H88       1.0  0.75311  0.12526  0.24902  1.0000
  H   H89       1.0  0.20109  0.03520  0.12331  1.0000
  H   H90       1.0  0.09994  0.08014  0.10503  1.0000
  C   C56       1.0  0.07444  0.08682  0.14143  1.0000
  H   H91       1.0  0.26882  0.98219  0.13409  1.0000
  C   C57       1.0  0.19104  0.09476  0.25889  1.0000
  H   H92       1.0  0.45496  0.96001  0.15981  1.0000
  H   H93       1.0  0.20249  0.94237  0.15408  1.0000
  C   C58       1.0  0.22153  0.98134  0.15895  1.0000
  S   S19       1.0  0.42379  0.05471  0.19664  1.0000
  H   H94       1.0  0.54594  0.07959  0.20288  1.0000
  C   C59       1.0  0.41304  0.08868  0.18832  1.0000
  H   H95       1.0  0.91404  0.95260  0.23437  1.0000
  H   H96       1.0  0.15501  0.94672  0.21925  1.0000
  H   H97       1.0  0.10332  0.02393  0.16896  1.0000
  C   C60       1.0  0.74552  0.12360  0.20147  1.0000
  H   H98       1.0  0.33861  0.02535  0.15493  1.0000
  H   H99       1.0  0.42589  0.98655  0.18491  1.0000
  C   C61       1.0  0.10233  0.00150  0.20224  1.0000
  H   H100      1.0  0.87265  0.94830  0.14596  1.0000
  H   H101      1.0  0.02432  0.11657  0.21687  1.0000
  H   H102      1.0  0.40531  0.95053  0.23347  1.0000
  H   H103      1.0  0.23152  0.03800  0.19302  1.0000
  H   H104      1.0  0.39104  0.07571  0.29470  1.0000
  H   H105      1.0  0.13813  0.06187  0.20978  1.0000
  H   H106      1.0  0.42594  0.99449  0.28137  1.0000
  H   H107      1.0  0.08048  0.07430  0.24922  1.0000
  C   C62       1.0  0.15950  0.99296  0.24401  1.0000
  C   C63       1.0  0.62285  0.12840  0.27913  1.0000
  H   H108      1.0  0.76998  0.03186  0.24723  1.0000
  H   H109      1.0  0.85474  0.00536  0.25828  1.0000
  C   C64       1.0  0.78711  0.97178  0.29099  1.0000
  H   H110      1.0  0.23624  0.93809  0.22913  1.0000
  H   H111      1.0  0.09221  0.93049  0.10037  1.0000
  C   C65       1.0  0.96732  0.91249  0.12945  1.0000
  H   H112      1.0  0.88722  0.90131  0.20630  1.0000
  C   C66       1.0  0.41342  0.13836  0.11985  1.0000
  H   H113      1.0  0.62089  0.97787  0.26073  1.0000
  C   C67       1.0  0.23027  0.06868  0.27623  1.0000
  C   C68       1.0  0.68283  0.13570  0.17383  1.0000
  H   H114      1.0  0.88089  0.97312  0.31467  1.0000
  H   H115      1.0  0.92429  0.08421  0.10074  1.0000
  H   H116      1.0  0.59630  0.99528  0.31397  1.0000
  H   H117      1.0  0.24247  0.00024  0.32860  1.0000
  C   C69       1.0  0.60656  0.97505  0.31296  1.0000
  H   H118      1.0  0.91810  0.97837  0.10213  1.0000
  C   C70       1.0  0.82689  0.09008  0.08548  1.0000
  H   H119      1.0  0.70140  0.93276  0.09509  1.0000
  H   H120      1.0  0.98865  0.90348  0.09537  1.0000
  H   H121      1.0  0.09462  0.88928  0.31857  1.0000
  H   H122      1.0  0.77160  0.95255  0.33544  1.0000
  H   H123      1.0  0.56911  0.93409  0.34605  1.0000
  H   H124      1.0  0.86761  0.06100  0.43606  1.0000
  C   C71       1.0  0.13813  0.03000  0.43438  1.0000
  C   C72       1.0  0.00192  0.89839  0.34627  1.0000
  C   C73       1.0  0.28637  0.09105  0.45745  1.0000
  H   H125      1.0  0.03252  0.89853  0.57083  1.0000
  C   C74       1.0  0.76888  0.09602  0.49905  1.0000
  S   S20       1.0  0.44409  0.05665  0.42489  1.0000
  H   H126      1.0  0.17290  0.05859  0.46954  1.0000
  C   C75       1.0  0.44281  0.94054  0.35443  1.0000
  C   C76       1.0  0.40407  0.08292  0.50614  1.0000
  N   N6        1.0  0.82698  0.99488  0.36386  1.0000
  C   C77       1.0  0.87806  0.01433  0.36196  1.0000
  C   C78       1.0  0.88793  0.07428  0.51260  1.0000
  S   S21       1.0  0.08637  0.07821  0.53529  1.0000
  H   H127      1.0  0.75791  0.01619  0.40040  1.0000
  H   H128      1.0  0.19757  0.96685  0.46804  1.0000
  H   H129      1.0  0.93371  0.06550  0.51832  1.0000
  H   H130      1.0  0.41022  0.89826  0.38863  1.0000
  S   S22       1.0  0.68596  0.01606  0.55406  1.0000
  C   C79       1.0  0.60533  0.90633  0.51824  1.0000
  H   H131      1.0  0.39572  0.94745  0.33776  1.0000
  H   H132      1.0  0.36914  0.10415  0.56659  1.0000
  H   H133      1.0  0.44934  0.01549  0.35702  1.0000
  C   C80       1.0  0.52863  0.93679  0.53484  1.0000
  C   C81       1.0  0.17760  0.03851  0.46991  1.0000
  C   C82       1.0  0.46354  0.99388  0.36966  1.0000
  Fe  Fe10      1.0  0.26638  0.93096  0.55713  1.0000
  C   C83       1.0  0.82355  0.96884  0.42865  1.0000
  H   H134      1.0  0.97715  0.01855  0.36852  1.0000
  C   C84       1.0  0.49563  0.89380  0.53266  1.0000
  H   H135      1.0  0.47141  0.13648  0.41009  1.0000
  H   H136      1.0  0.56964  0.12409  0.37094  1.0000
  S   S23       1.0  0.30979  0.92839  0.46433  1.0000
  C   C85       1.0  0.29912  0.10046  0.50561  1.0000
  H   H137      1.0  0.65332  0.90174  0.50949  1.0000
  H   H138      1.0  0.72615  0.99480  0.36693  1.0000
  H   H139      1.0  0.79184  0.11170  0.57085  1.0000
  C   C86       1.0  0.79157  0.08303  0.45832  1.0000
  S   S24       1.0  0.07780  0.05133  0.39487  1.0000
  H   H140      1.0  0.94597  0.98526  0.42439  1.0000
  H   H141      1.0  0.49284  0.90149  0.38469  1.0000
  C   C87       1.0  0.22808  0.99455  0.50892  1.0000
  S   S25       1.0  0.65120  0.95453  0.51320  1.0000
  H   H142      1.0  0.86991  0.13806  0.41587  1.0000
  C   C88       1.0  0.59086  0.93090  0.52399  1.0000
  S   S26       1.0  0.24089  0.11743  0.53386  1.0000
  C   C89       1.0  0.55207  0.95401  0.34503  1.0000
  Fe  Fe11      1.0  0.14947  0.11596  0.49065  1.0000
  S   S27       1.0  0.88395  0.90987  0.38230  1.0000
  H   H143      1.0  0.77581  0.98362  0.49985  1.0000
  C   C90       1.0  0.48097  0.91821  0.53923  1.0000
  C   C91       1.0  0.06697  0.89988  0.34337  1.0000
  C   C92       1.0  0.09631  0.91402  0.37474  1.0000
  Fe  Fe12      1.0  0.07791  0.08610  0.42716  1.0000
  S   S28       1.0  0.99597  0.11291  0.41402  1.0000
  H   H144      1.0  0.11622  0.99780  0.40414  1.0000
  C   C93       1.0  0.96575  0.91217  0.37764  1.0000
  H   H145      1.0  0.43293  0.92295  0.54706  1.0000
  H   H146      1.0  0.86423  0.95568  0.43025  1.0000
  Fe  Fe13      1.0  0.22061  0.90653  0.46775  1.0000
  C   C94       1.0  0.22233  0.02082  0.50751  1.0000
  H   H147      1.0  0.81592  0.95226  0.53805  1.0000
  H   H148      1.0  0.78239  0.95578  0.43194  1.0000
  S   S29       1.0  0.53548  0.00215  0.57252  1.0000
  C   C95       1.0  0.06042  0.92794  0.40615  1.0000
  H   H149      1.0  0.32036  0.07041  0.39656  1.0000
  H   H150      1.0  0.64706  0.96685  0.34328  1.0000
  C   C96       1.0  0.94355  0.00207  0.37319  1.0000
  S   S30       1.0  0.58717  0.06736  0.50932  1.0000
  H   H151      1.0  0.56351  0.09453  0.35414  1.0000
  C   C97       1.0  0.14605  0.00431  0.43252  1.0000
  Fe  Fe14      1.0  0.66657  0.05328  0.46094  1.0000
  C   C98       1.0  0.81872  0.97291  0.49453  1.0000
  H   H152      1.0  0.96765  0.93804  0.43102  1.0000
  Fe  Fe15      1.0  0.00917  0.10796  0.51903  1.0000
  H   H153      1.0  0.54475  0.95034  0.39876  1.0000
  H   H154      1.0  0.25135  0.02725  0.53676  1.0000
  H   H155      1.0  0.42631  0.98024  0.40577  1.0000
  C   C99       1.0  0.99520  0.92748  0.40633  1.0000
  S   S31       1.0  0.74597  0.08047  0.39855  1.0000
  H   H156      1.0  0.44977  0.07984  0.52477  1.0000
  H   H157      1.0  0.85977  0.98403  0.49940  1.0000
  C   C100      1.0  0.33145  0.07782  0.43339  1.0000
  H   H158      1.0  0.72247  0.10415  0.49439  1.0000
  C   C101      1.0  0.45114  0.91122  0.35841  1.0000
  S   S32       1.0  0.14534  0.12213  0.38304  1.0000
  S   S33       1.0  0.17789  0.91509  0.37086  1.0000
  Fe  Fe16      1.0  0.62018  0.99402  0.51799  1.0000
  H   H159      1.0  0.86665  0.02293  0.39965  1.0000
  C   C102      1.0  0.19155  0.98665  0.46945  1.0000
  C   C103      1.0  0.80763  0.09983  0.54326  1.0000
  S   S34       1.0  0.60834  0.03051  0.42048  1.0000
  H   H160      1.0  0.50742  0.99102  0.39475  1.0000
  C   C104      1.0  0.76586  0.00927  0.35916  1.0000
  Fe  Fe17      1.0  0.52978  0.04101  0.47794  1.0000
  H   H161      1.0  0.24156  0.09369  0.43868  1.0000
  H   H162      1.0  0.44090  0.93824  0.40737  1.0000
  S   S35       1.0  0.27661  0.97098  0.56474  1.0000
  C   C105      1.0  0.35851  0.09664  0.52975  1.0000
  H   H163      1.0  0.08298  0.93927  0.42952  1.0000
  C   C106      1.0  0.39013  0.07347  0.45780  1.0000
  H   H164      1.0  0.92119  0.90730  0.56652  1.0000
  C   C107      1.0  0.85051  0.07163  0.46620  1.0000
  C   C108      1.0  0.86804  0.08966  0.54833  1.0000
  S   S36       1.0  0.17439  0.91197  0.55629  1.0000
  H   H165      1.0  0.51704  0.95583  0.53872  1.0000
  C   C109      1.0  0.88952  0.88899  0.58423  1.0000
  H   H166      1.0  0.31795  0.98640  0.33483  1.0000
  H   H167      1.0  0.95970  0.99449  0.33487  1.0000
  H   H168      1.0  0.22838  0.11150  0.74122  1.0000
  H   H169      1.0  0.61138  0.08009  0.83118  1.0000
  C   C110      1.0  0.80974  0.11652  0.71993  1.0000
  C   C111      1.0  0.17186  0.89946  0.75294  1.0000
  C   C112      1.0  0.87685  0.06072  0.79083  1.0000
  H   H170      1.0  0.21119  0.98220  0.68087  1.0000
  C   C113      1.0  0.90350  0.03303  0.79636  1.0000
  H   H171      1.0  0.28720  0.06423  0.70810  1.0000
  H   H172      1.0  0.75499  0.03429  0.68628  1.0000
  H   H173      1.0  0.40487  0.98475  0.66060  1.0000
  H   H174      1.0  0.14331  0.93567  0.67081  1.0000
  S   S37       1.0  0.59654  0.02373  0.70608  1.0000
  H   H175      1.0  0.23102  0.12967  0.65162  1.0000
  H   H176      1.0  0.06073  0.97986  0.78507  1.0000
  H   H177      1.0  0.04701  0.90696  0.67170  1.0000
  H   H178      1.0  0.07969  0.12925  0.64836  1.0000
  H   H179      1.0  0.39635  0.98123  0.77523  1.0000
  C   C114      1.0  0.11874  0.98983  0.64997  1.0000
  H   H180      1.0  0.84576  0.89361  0.60729  1.0000
  Fe  Fe18      1.0  0.60059  0.02769  0.59986  1.0000
  H   H181      1.0  0.46509  0.07560  0.74837  1.0000
  H   H182      1.0  0.96719  0.90673  0.65664  1.0000
  H   H183      1.0  0.40843  0.02140  0.62406  1.0000
  H   H184      1.0  0.22121  0.93713  0.68863  1.0000
  H   H185      1.0  0.18781  0.89009  0.71815  1.0000
  C   C115      1.0  0.00816  0.89347  0.67177  1.0000
  H   H186      1.0  0.44257  0.09529  0.66542  1.0000
  H   H187      1.0  0.80763  0.01820  0.74958  1.0000
  H   H188      1.0  0.72698  0.02259  0.77241  1.0000
  S   S38       1.0  0.92269  0.09996  0.58895  1.0000
  C   C116      1.0  0.33495  0.02653  0.77124  1.0000
  C   C117      1.0  0.60396  0.05538  0.77569  1.0000
  H   H189      1.0  0.06944  0.98851  0.66953  1.0000
  C   C118      1.0  0.63903  0.10375  0.66108  1.0000
  H   H190      1.0  0.91029  0.03292  0.74568  1.0000
  H   H191      1.0  0.89958  0.07660  0.74305  1.0000
  S   S39       1.0  0.30502  0.89158  0.62949  1.0000
  C   C119      1.0  0.63338  0.10408  0.72468  1.0000
  H   H192      1.0  0.28056  0.96317  0.75659  1.0000
  H   H193      1.0  0.73926  0.07255  0.71829  1.0000
  H   H194      1.0  0.40823  0.05662  0.65077  1.0000
  H   H195      1.0  0.05584  0.13190  0.72288  1.0000
  H   H196      1.0  0.81646  0.07157  0.68588  1.0000
  C   C120      1.0  0.43101  0.05101  0.69796  1.0000
  H   H197      1.0  0.48031  0.04805  0.68410  1.0000
  C   C121      1.0  0.17339  0.93111  0.71297  1.0000
  C   C122      1.0  0.39006  0.00307  0.66933  1.0000
  S   S40       1.0  0.94284  0.11993  0.80986  1.0000
  C   C123      1.0  0.29477  0.04299  0.71203  1.0000
  C   C124      1.0  0.62795  0.07907  0.65500  1.0000
  C   C125      1.0  0.42981  0.07676  0.71297  1.0000
  C   C126      1.0  0.76803  0.03223  0.73628  1.0000
  H   H198      1.0  0.33861  0.00236  0.67319  1.0000
  C   C127      1.0  0.05819  0.95726  0.81656  1.0000
  H   H199      1.0  0.74200  0.09299  0.80103  1.0000
  H   H200      1.0  0.15986  0.99064  0.73592  1.0000
  H   H201      1.0  0.16418  0.10789  0.69861  1.0000
  H   H202      1.0  0.31210  0.04414  0.66216  1.0000
  H   H203      1.0  0.24767  0.03308  0.72340  1.0000
  H   H204      1.0  0.05763  0.94217  0.73891  1.0000
  N   N7        1.0  0.15439  0.94749  0.75273  1.0000
  C   C128      1.0  0.16343  0.97785  0.70669  1.0000
  H   H205      1.0  0.12397  0.97998  0.61436  1.0000
  N   N8        1.0  0.40360  0.02475  0.75399  1.0000
  H   H206      1.0  0.63564  0.07863  0.60644  1.0000
  H   H207      1.0  0.65446  0.12210  0.61699  1.0000
  H   H208      1.0  0.38327  0.07994  0.73322  1.0000
  C   C129      1.0  0.61005  0.05489  0.71223  1.0000
  N   N9        1.0  0.80722  0.06337  0.79178  1.0000
  C   C130      1.0  0.19958  0.12284  0.69844  1.0000
  H   H209      1.0  0.13037  0.01215  0.62003  1.0000
  H   H210      1.0  0.59077  0.03672  0.82032  1.0000
  C   C131      1.0  0.61570  0.07991  0.78187  1.0000
  H   H211      1.0  0.42864  0.03572  0.83418  1.0000
  H   H212      1.0  0.87496  0.01487  0.83103  1.0000
  H   H213      1.0  0.78256  0.11644  0.67914  1.0000
  H   H214      1.0  0.08223  0.91836  0.81714  1.0000
  C   C132      1.0  0.79247  0.09168  0.78830  1.0000
  H   H215      1.0  0.79798  0.13583  0.72528  1.0000
  H   H216      1.0  0.46715  0.99795  0.72991  1.0000
  C   C133      1.0  0.41603  0.00097  0.73489  1.0000
  S   S41       1.0  0.65382  0.13360  0.73504  1.0000
  H   H217      1.0  0.86005  0.11785  0.70410  1.0000
  C   C134      1.0  0.08743  0.94036  0.77978  1.0000
  C   C135      1.0  0.78329  0.06130  0.73102  1.0000
  H   H218      1.0  0.48920  0.02031  0.80334  1.0000
  H   H219      1.0  0.28116  0.92652  0.77782  1.0000
  C   C136      1.0  0.43798  0.01943  0.81575  1.0000
  H   H220      1.0  0.20426  0.89267  0.79324  1.0000
  H   H221      1.0  0.12449  0.89086  0.77409  1.0000
  H   H222      1.0  0.40363  0.12918  0.76029  1.0000
  C   C137      1.0  0.19363  0.94065  0.81146  1.0000
  H   H223      1.0  0.32830  0.03655  0.80666  1.0000
  H   H224      1.0  0.94934  0.03023  0.81804  1.0000
  C   C138      1.0  0.26470  0.94248  0.79478  1.0000
  H   H225      1.0  0.81647  0.09571  0.82659  1.0000
  H   H226      1.0  0.31345  0.00545  0.79910  1.0000
  H   H227      1.0  0.00816  0.95130  0.83042  1.0000
  H   H228      1.0  0.89609  0.06586  0.82978  1.0000
  H   H229      1.0  0.38182  0.19365  0.87501  1.0000
  Fe  Fe19      1.0  0.36165  0.24120  0.92750  1.0000
  S   S42       1.0  0.94627  0.23770  0.07440  1.0000
  C   C139      1.0  0.58028  0.13956  0.86859  1.0000
  Fe  Fe20      1.0  0.48808  0.25156  0.96048  1.0000
  C   C140      1.0  0.88056  0.32052  0.01920  1.0000
  C   C141      1.0  0.62152  0.23785  0.04015  1.0000
  Fe  Fe21      1.0  0.86016  0.22121  0.05228  1.0000
  N   N10       1.0  0.66761  0.16918  0.88265  1.0000
  C   C142      1.0  0.58254  0.35130  0.86642  1.0000
  C   C143      1.0  0.67030  0.30883  0.95338  1.0000
  H   H230      1.0  0.37410  0.15818  0.93172  1.0000
  C   C144      1.0  0.94182  0.18660  0.85369  1.0000
  H   H231      1.0  0.05060  0.34000  0.98454  1.0000
  Fe  Fe22      1.0  0.37536  0.27412  0.00959  1.0000
  H   H232      1.0  0.85595  0.27705  0.06628  1.0000
  H   H233      1.0  0.15744  0.23989  0.06211  1.0000
  C   C145      1.0  0.36423  0.17341  0.88046  1.0000
  C   C146      1.0  0.09420  0.32822  0.99091  1.0000
  C   C147      1.0  0.84678  0.29707  0.06541  1.0000
  Fe  Fe23      1.0  0.99453  0.21814  0.01193  1.0000
  H   H234      1.0  0.81864  0.15226  0.93372  1.0000
  C   C148      1.0  0.95297  0.16029  0.85596  1.0000
  C   C149      1.0  0.15490  0.28420  0.89772  1.0000
  C   C150      1.0  0.75590  0.34290  0.90524  1.0000
  C   C151      1.0  0.64492  0.14094  0.89288  1.0000
  H   H235      1.0  0.68931  0.32254  0.03251  1.0000
  N   N11       1.0  0.69411  0.33406  0.89188  1.0000
  S   S43       1.0  0.07687  0.19245  0.04780  1.0000
  H   H236      1.0  0.12138  0.26675  0.92563  1.0000
  H   H237      1.0  0.58040  0.24659  0.05330  1.0000
  C   C152      1.0  0.71855  0.21469  0.07114  1.0000
  C   C153      1.0  0.48443  0.35424  0.01548  1.0000
  C   C154      1.0  0.61760  0.18380  0.90595  1.0000
  H   H238      1.0  0.79568  0.16251  0.85032  1.0000
  N   N12       1.0  0.16087  0.30192  0.93531  1.0000
  H   H239      1.0  0.22106  0.33483  0.93227  1.0000
  Fe  Fe24      1.0  0.39983  0.21241  0.07157  1.0000
  H   H240      1.0  0.63334  0.20480  0.89654  1.0000
  H   H241      1.0  0.29052  0.29881  0.91226  1.0000
  H   H242      1.0  0.78735  0.32502  0.92466  1.0000
  Fe  Fe25      1.0  0.93618  0.27363  0.97485  1.0000
  C   C155      1.0  0.37860  0.36124  0.94407  1.0000
  S   S44       1.0  0.33096  0.30971  0.02402  1.0000
  S   S45       1.0  0.31703  0.23705  0.02760  1.0000
  C   C156      1.0  0.13817  0.19969  0.98570  1.0000
  C   C157      1.0  0.73086  0.21700  0.00555  1.0000
  H   H243      1.0  0.60955  0.32624  0.01109  1.0000
  H   H244      1.0  0.34281  0.36613  0.08230  1.0000
  H   H245      1.0  0.09156  0.31246  0.04401  1.0000
  H   H246      1.0  0.55440  0.36993  0.85684  1.0000
  H   H247      1.0  0.55360  0.18047  0.99073  1.0000
  S   S46       1.0  0.45502  0.24946  0.06225  1.0000
  C   C158      1.0  0.65118  0.31333  0.01726  1.0000
  H   H248      1.0  0.09073  0.25982  0.03138  1.0000
  C   C159      1.0  0.77939  0.15181  0.90417  1.0000
  S   S47       1.0  0.84684  0.25872  0.95636  1.0000
  C   C160      1.0  0.19753  0.19223  0.00662  1.0000
  H   H249      1.0  0.55939  0.33416  0.91126  1.0000
  H   H250      1.0  0.58060  0.14766  0.99782  1.0000
  H   H251      1.0  0.73914  0.18613  0.92012  1.0000
  C   C161      1.0  0.43996  0.33268  0.03526  1.0000
  H   H252      1.0  0.57683  0.18739  0.87585  1.0000
  H   H253      1.0  0.63895  0.29298  0.05988  1.0000
  H   H254      1.0  0.80892  0.36891  0.06101  1.0000
  H   H255      1.0  0.19936  0.27384  0.89469  1.0000
  H   H256      1.0  0.52533  0.35146  0.04292  1.0000
  C   C162      1.0  0.13004  0.21486  0.91701  1.0000
  C   C163      1.0  0.24187  0.21993  0.89353  1.0000
  C   C164      1.0  0.47654  0.37902  0.95907  1.0000
  H   H257      1.0  0.25828  0.36008  0.02333  1.0000
  S   S48       1.0  0.90918  0.19782  0.00039  1.0000
  H   H258      1.0  0.63055  0.17104  0.01337  1.0000
  C   C165      1.0  0.24933  0.20186  0.96035  1.0000
  H   H259      1.0  0.96202  0.19248  0.88930  1.0000
  H   H260      1.0  0.64698  0.36489  0.91776  1.0000
  C   C166      1.0  0.23400  0.37560  0.03769  1.0000
  C   C167      1.0  0.69065  0.23128  0.95619  1.0000
  C   C168      1.0  0.81928  0.34884  0.06225  1.0000
  S   S49       1.0  0.41434  0.28000  0.90661  1.0000
  H   H261      1.0  0.70302  0.23486  0.90439  1.0000
  H   H262      1.0  0.83589  0.37087  0.86151  1.0000
  H   H263      1.0  0.71085  0.15337  0.97734  1.0000
  S   S50       1.0  0.93791  0.31759  0.96147  1.0000
  H   H264      1.0  0.08386  0.21948  0.90022  1.0000
  C   C169      1.0  0.38691  0.33629  0.99973  1.0000
  C   C170      1.0  0.86705  0.34641  0.01799  1.0000
  H   H265      1.0  0.19354  0.29646  0.03116  1.0000
  C   C171      1.0  0.18172  0.28394  0.00392  1.0000
  S   S51       1.0  0.43887  0.21276  0.97328  1.0000
  C   C172      1.0  0.13611  0.26026  0.05113  1.0000
  H   H266      1.0  0.98039  0.14605  0.89423  1.0000
  H   H267      1.0  0.18406  0.37326  0.03208  1.0000
  C   C173      1.0  0.63531  0.24122  0.97363  1.0000
  H   H268      1.0  0.30456  0.33430  0.85617  1.0000
  C   C174      1.0  0.64960  0.35749  0.87721  1.0000
  C   C175      1.0  0.18231  0.22519  0.87053  1.0000
  Fe  Fe26      1.0  0.90486  0.23681  0.90607  1.0000
  C   C176      1.0  0.20845  0.32504  0.89884  1.0000
  C   C177      1.0  0.42387  0.38241  0.92312  1.0000
  H   H269      1.0  0.89278  0.36464  0.98219  1.0000
  S   S52       1.0  0.58452  0.25826  0.91158  1.0000
  H   H270      1.0  0.33792  0.36401  0.91621  1.0000
  S   S53       1.0  0.99385  0.25588  0.91390  1.0000
  H   H271      1.0  0.74998  0.35029  0.94572  1.0000
  H   H272      1.0  0.70582  0.29246  0.96794  1.0000
  H   H273      1.0  0.62927  0.29951  0.94259  1.0000
  C   C178      1.0  0.09911  0.31449  0.94129  1.0000
  H   H274      1.0  0.06053  0.29892  0.95617  1.0000
  C   C179      1.0  0.59469  0.16956  0.98136  1.0000
  H   H275      1.0  0.22600  0.27424  0.99882  1.0000
  C   C180      1.0  0.72316  0.16595  0.92287  1.0000
  H   H276      1.0  0.77325  0.20895  0.99189  1.0000
  H   H277      1.0  0.13312  0.34306  0.98160  1.0000
  H   H278      1.0  0.29531  0.19679  0.97771  1.0000
  H   H279      1.0  0.20361  0.18072  0.05950  1.0000
  H   H280      1.0  0.44641  0.31332  0.07826  1.0000
  H   H281      1.0  0.41841  0.15566  0.07093  1.0000
  S   S54       1.0  0.30590  0.24039  0.84582  1.0000
  H   H282      1.0  0.54240  0.14302  0.90110  1.0000
  H   H283      1.0  0.73872  0.28526  0.87704  1.0000
  C   C181      1.0  0.79172  0.36634  0.84472  1.0000
  C   C182      1.0  0.27028  0.31685  0.87260  1.0000
  H   H284      1.0  0.08761  0.33059  0.89145  1.0000
  H   H285      1.0  0.31293  0.17380  0.87878  1.0000
  H   H286      1.0  0.44381  0.15806  0.84133  1.0000
  H   H287      1.0  0.37069  0.14505  0.83544  1.0000
  H   H288      1.0  0.79756  0.31243  0.83672  1.0000
  H   H289      1.0  0.18931  0.34200  0.85477  1.0000
  C   C183      1.0  0.74991  0.30556  0.83432  1.0000
  H   H290      1.0  0.11013  0.14111  0.13437  1.0000
  H   H291      1.0  0.62653  0.15110  0.26335  1.0000
  H   H292      1.0  0.38787  0.37263  0.17459  1.0000
  H   H293      1.0  0.60107  0.17668  0.11571  1.0000
  H   H294      1.0  0.87173  0.15680  0.21388  1.0000
  S   S55       1.0  0.72247  0.32841  0.15960  1.0000
  S   S56       1.0  0.58417  0.37955  0.11657  1.0000
  C   C184      1.0  0.17647  0.32576  0.13843  1.0000
  C   C185      1.0  0.39870  0.14277  0.17782  1.0000
  H   H295      1.0  0.86722  0.22919  0.19867  1.0000
  S   S57       1.0  0.24568  0.27471  0.28584  1.0000
  H   H296      1.0  0.16313  0.30593  0.18217  1.0000
  H   H297      1.0  0.68574  0.15790  0.16362  1.0000
  H   H298      1.0  0.94103  0.26272  0.27739  1.0000
  S   S58       1.0  0.04771  0.18758  0.29301  1.0000
  H   H299      1.0  0.98737  0.35032  0.27359  1.0000
  H   H300      1.0  0.59208  0.36918  0.25936  1.0000
  H   H301      1.0  0.80957  0.14252  0.32659  1.0000
  S   S59       1.0  0.12325  0.38152  0.31431  1.0000
  H   H302      1.0  0.89166  0.31710  0.18538  1.0000
  H   H303      1.0  0.85987  0.28439  0.29776  1.0000
  H   H304      1.0  0.79162  0.32403  0.27038  1.0000
  C   C186      1.0  0.14490  0.22419  0.23504  1.0000
  H   H305      1.0  0.14581  0.21756  0.19461  1.0000
  H   H306      1.0  0.21986  0.38531  0.18491  1.0000
  H   H307      1.0  0.04626  0.14640  0.22805  1.0000
  C   C187      1.0  0.61174  0.31523  0.29784  1.0000
  H   H308      1.0  0.94584  0.35919  0.10020  1.0000
  H   H309      1.0  0.55287  0.17159  0.19202  1.0000
  H   H310      1.0  0.87239  0.34693  0.19780  1.0000
  H   H311      1.0  0.98245  0.36569  0.16230  1.0000
  H   H312      1.0  0.46814  0.20025  0.25805  1.0000
  H   H313      1.0  0.66291  0.31417  0.30175  1.0000
  S   S60       1.0  0.39025  0.17621  0.17345  1.0000
  H   H314      1.0  0.19177  0.32068  0.09568  1.0000
  C   C188      1.0  0.83428  0.22579  0.24300  1.0000
  H   H315      1.0  0.91880  0.14713  0.28325  1.0000
  H   H316      1.0  0.32750  0.19478  0.26300  1.0000
  H   H317      1.0  0.40776  0.22358  0.21577  1.0000
  H   H318      1.0  0.15300  0.14459  0.19538  1.0000
  C   C189      1.0  0.81171  0.31501  0.31986  1.0000
  C   C190      1.0  0.44088  0.21834  0.25536  1.0000
  C   C191      1.0  0.33868  0.36538  0.18118  1.0000
  C   C192      1.0  0.10090  0.21253  0.29023  1.0000
  C   C193      1.0  0.40759  0.21418  0.32397  1.0000
  C   C194      1.0  0.48436  0.33906  0.27270  1.0000
  H   H319      1.0  0.61426  0.27853  0.27836  1.0000
  H   H320      1.0  0.02271  0.26712  0.25690  1.0000
  H   H321      1.0  0.31324  0.37389  0.21369  1.0000
  H   H322      1.0  0.22402  0.25213  0.19123  1.0000
  N   N13       1.0  0.92691  0.31783  0.27471  1.0000
  C   C195      1.0  0.56142  0.16490  0.15066  1.0000
  C   C196      1.0  0.13699  0.38551  0.13877  1.0000
  H   H323      1.0  0.77255  0.28132  0.14434  1.0000
  C   C197      1.0  0.18917  0.24353  0.23341  1.0000
  H   H324      1.0  0.43299  0.33621  0.28106  1.0000
  C   C198      1.0  0.91056  0.33216  0.20257  1.0000
  H   H325      1.0  0.72886  0.21375  0.32905  1.0000
  C   C199      1.0  0.58946  0.28545  0.31471  1.0000
  H   H326      1.0  0.28849  0.21382  0.30214  1.0000
  C   C200      1.0  0.94242  0.33950  0.29888  1.0000
  H   H327      1.0  0.65482  0.22371  0.13937  1.0000
  C   C201      1.0  0.87229  0.29981  0.31689  1.0000
  H   H328      1.0  0.78914  0.21869  0.23502  1.0000
  H   H329      1.0  0.60602  0.32808  0.24350  1.0000
  H   H330      1.0  0.24737  0.14551  0.14191  1.0000
  H   H331      1.0  0.91103  0.18319  0.22694  1.0000
  H   H332      1.0  0.52012  0.17070  0.12086  1.0000
  H   H333      1.0  0.79191  0.17449  0.26291  1.0000
  H   H334      1.0  0.91386  0.20678  0.29557  1.0000
  C   C202      1.0  0.23087  0.33975  0.15538  1.0000
  H   H335      1.0  0.02579  0.31271  0.25687  1.0000
  H   H336      1.0  0.70108  0.35651  0.27820  1.0000
  H   H337      1.0  0.22203  0.33678  0.20881  1.0000
  C   C203      1.0  0.98270  0.29991  0.28047  1.0000
  H   H338      1.0  0.33837  0.34249  0.20764  1.0000
  H   H339      1.0  0.12635  0.26181  0.09985  1.0000
  H   H340      1.0  0.13422  0.33816  0.12617  1.0000
  C   C204      1.0  0.78519  0.32536  0.10786  1.0000
  S   S61       1.0  0.77739  0.20362  0.12565  1.0000
  H   H341      1.0  0.97215  0.28806  0.19578  1.0000
  H   H342      1.0  0.00238  0.33574  0.14631  1.0000
  C   C205      1.0  0.31353  0.37562  0.11082  1.0000
  C   C206      1.0  0.96402  0.34899  0.15076  1.0000
  H   H343      1.0  0.70966  0.18485  0.30925  1.0000
  H   H344      1.0  0.12061  0.36522  0.17891  1.0000
  C   C207      1.0  0.86291  0.20676  0.30894  1.0000
  H   H345      1.0  0.27168  0.32679  0.15470  1.0000
  C   C208      1.0  0.97843  0.27847  0.25055  1.0000
  C   C209      1.0  0.88615  0.16295  0.25333  1.0000
  H   H346      1.0  0.49419  0.36156  0.24445  1.0000
  H   H347      1.0  0.82701  0.24649  0.24263  1.0000
  C   C210      1.0  0.18897  0.25135  0.28683  1.0000
  H   H348      1.0  0.50055  0.32820  0.24128  1.0000
  H   H349      1.0  0.47420  0.23616  0.23847  1.0000
  C   C211      1.0  0.67312  0.36324  0.31298  1.0000
  C   C212      1.0  0.60291  0.35817  0.31278  1.0000
  H   H350      1.0  0.90724  0.35602  0.28502  1.0000
  N   N14       1.0  0.24529  0.36984  0.10948  1.0000
  C   C213      1.0  0.66364  0.22488  0.08895  1.0000
  C   C214      1.0  0.82791  0.16416  0.29758  1.0000
  C   C215      1.0  0.79951  0.29945  0.10998  1.0000
  H   H351      1.0  0.40670  0.16251  0.31562  1.0000
  C   C216      1.0  0.31055  0.19363  0.31317  1.0000
  H   H352      1.0  0.53905  0.28386  0.31002  1.0000
  H   H353      1.0  0.22077  0.17730  0.30696  1.0000
  H   H354      1.0  0.68231  0.38581  0.29464  1.0000
  Fe  Fe27      1.0  0.68529  0.37076  0.10781  1.0000
  H   H355      1.0  0.38252  0.23364  0.31449  1.0000
  H   H356      1.0  0.99188  0.28801  0.33413  1.0000
  Fe  Fe28      1.0  0.13286  0.28366  0.48549  1.0000
  Fe  Fe29      1.0  0.16398  0.34084  0.37751  1.0000
  S   S62       1.0  0.67324  0.18057  0.53201  1.0000
  C   C217      1.0  0.94014  0.34581  0.51943  1.0000
  H   H357      1.0  0.84510  0.22943  0.58146  1.0000
  H   H358      1.0  0.76268  0.15367  0.41677  1.0000
  H   H359      1.0  0.41127  0.25030  0.39541  1.0000
  H   H360      1.0  0.90345  0.32186  0.40512  1.0000
  H   H361      1.0  0.14913  0.19836  0.48105  1.0000
  H   H362      1.0  0.23958  0.16682  0.39203  1.0000
  H   H363      1.0  0.14433  0.24597  0.38298  1.0000
  H   H364      1.0  0.48972  0.33904  0.36929  1.0000
  H   H365      1.0  0.45997  0.32598  0.56680  1.0000
  S   S63       1.0  0.07237  0.14528  0.48570  1.0000
  H   H366      1.0  0.98272  0.31233  0.39436  1.0000
  H   H367      1.0  0.52955  0.32861  0.46509  1.0000
  H   H368      1.0  0.92633  0.36691  0.48515  1.0000
  H   H369      1.0  0.90981  0.33113  0.51088  1.0000
  H   H370      1.0  0.93000  0.16172  0.36392  1.0000
  Fe  Fe30      1.0  0.21619  0.29088  0.36206  1.0000
  H   H371      1.0  0.40886  0.35189  0.56860  1.0000
  C   C218      1.0  0.89833  0.16834  0.44978  1.0000
  H   H372      1.0  0.36389  0.14499  0.39398  1.0000
  C   C219      1.0  0.38569  0.27617  0.44603  1.0000
  C   C220      1.0  0.88436  0.16032  0.39225  1.0000
  H   H373      1.0  0.60090  0.27073  0.36574  1.0000
  C   C221      1.0  0.88861  0.23385  0.55138  1.0000
  C   C222      1.0  0.48754  0.25436  0.52076  1.0000
  H   H374      1.0  0.49337  0.17238  0.37346  1.0000
  C   C223      1.0  0.94874  0.32900  0.37529  1.0000
  H   H375      1.0  0.52790  0.24688  0.54827  1.0000
  Fe  Fe31      1.0  0.06361  0.14811  0.38206  1.0000
  C   C224      1.0  0.50363  0.36578  0.54025  1.0000
  C   C225      1.0  0.51158  0.32729  0.34208  1.0000
  C   C226      1.0  0.00206  0.24734  0.47291  1.0000
  H   H376      1.0  0.85852  0.16373  0.48834  1.0000
  C   C227      1.0  0.94131  0.23996  0.57656  1.0000
  C   C228      1.0  0.99742  0.24774  0.53646  1.0000
  H   H377      1.0  0.15748  0.15476  0.57298  1.0000
  S   S64       1.0  0.26044  0.33005  0.35331  1.0000
  H   H378      1.0  0.31833  0.16671  0.45758  1.0000
  H   H379      1.0  0.49331  0.30577  0.37063  1.0000
  H   H380      1.0  0.88404  0.28737  0.36963  1.0000
  H   H381      1.0  0.31519  0.38775  0.42462  1.0000
  C   C229      1.0  0.45495  0.34291  0.58373  1.0000
  H   H382      1.0  0.04587  0.25231  0.44266  1.0000
  H   H383      1.0  0.96558  0.34647  0.38512  1.0000
  Fe  Fe32      1.0  0.73815  0.21523  0.52162  1.0000
  H   H384      1.0  0.31217  0.23066  0.39662  1.0000
  H   H385      1.0  0.13550  0.37538  0.45076  1.0000
  H   H386      1.0  0.44741  0.15693  0.45369  1.0000
  H   H387      1.0  0.80219  0.30503  0.46387  1.0000
  S   S65       1.0  0.82613  0.22825  0.45261  1.0000
  C   C230      1.0  0.25943  0.17078  0.34060  1.0000
  S   S66       1.0  0.17084  0.32176  0.48961  1.0000
  Fe  Fe33      1.0  0.26341  0.30736  0.46526  1.0000
  C   C231      1.0  0.94981  0.24011  0.44879  1.0000
  C   C232      1.0  0.47232  0.24515  0.47250  1.0000
  H   H388      1.0  0.74525  0.26688  0.55780  1.0000
  C   C233      1.0  0.14426  0.24005  0.34153  1.0000
  H   H389      1.0  0.55207  0.35869  0.54838  1.0000
  H   H390      1.0  0.95363  0.23950  0.40000  1.0000
  C   C234      1.0  0.73640  0.28785  0.55038  1.0000
  C   C235      1.0  0.76057  0.33669  0.48905  1.0000
  C   C236      1.0  0.10056  0.22038  0.34362  1.0000
  N   N15       1.0  0.36353  0.18955  0.35705  1.0000
  S   S67       1.0  0.66314  0.24627  0.49967  1.0000
  H   H391      1.0  0.71395  0.36310  0.52926  1.0000
  H   H392      1.0  0.65075  0.30951  0.41317  1.0000
  S   S68       1.0  0.22599  0.26702  0.47255  1.0000
  H   H393      1.0  0.81791  0.33137  0.33752  1.0000
  C   C237      1.0  0.39931  0.28445  0.49632  1.0000
  H   H394      1.0  0.07700  0.19489  0.52957  1.0000
  H   H395      1.0  0.93700  0.15570  0.47663  1.0000
  C   C238      1.0  0.42184  0.25642  0.43452  1.0000
  S   S69       1.0  0.06023  0.25868  0.56620  1.0000
  C   C239      1.0  0.39547  0.16318  0.36528  1.0000
  H   H396      1.0  0.49721  0.37180  0.48610  1.0000
  C   C240      1.0  0.45085  0.27379  0.53313  1.0000
  H   H397      1.0  0.57845  0.29146  0.43455  1.0000
  H   H398      1.0  0.24873  0.20670  0.41034  1.0000
  N   N16       1.0  0.83758  0.17745  0.34484  1.0000
  H   H399      1.0  0.98924  0.34373  0.50369  1.0000
  S   S70       1.0  0.51635  0.21991  0.45878  1.0000
  H   H400      1.0  0.06640  0.21136  0.38630  1.0000
  S   S71       1.0  0.79987  0.36362  0.42056  1.0000
  H   H401      1.0  0.59111  0.31057  0.51335  1.0000
  H   H402      1.0  0.68005  0.18585  0.38595  1.0000
  H   H403      1.0  0.28543  0.20704  0.48013  1.0000
  H   H404      1.0  0.44410  0.21338  0.35788  1.0000
  S   S72       1.0  0.11891  0.30375  0.37516  1.0000
  C   C241      1.0  0.72018  0.34210  0.53505  1.0000
  C   C242      1.0  0.76942  0.30952  0.49752  1.0000
  H   H405      1.0  0.85841  0.21723  0.34320  1.0000
  H   H406      1.0  0.13837  0.21676  0.53267  1.0000
  C   C243      1.0  0.45533  0.15732  0.40274  1.0000
  C   C244      1.0  0.59962  0.31260  0.41221  1.0000
  H   H407      1.0  0.60620  0.34486  0.44980  1.0000
  H   H408      1.0  0.46224  0.28022  0.57162  1.0000
  H   H409      1.0  0.27677  0.15123  0.33994  1.0000
  S   S73       1.0  0.35102  0.30760  0.51369  1.0000
  Fe  Fe34      1.0  0.59773  0.21105  0.52146  1.0000
  C   C245      1.0  0.72162  0.19103  0.34927  1.0000
  C   C246      1.0  0.12773  0.19695  0.53008  1.0000
  H   H410      1.0  0.91407  0.19017  0.43053  1.0000
  C   C247      1.0  0.29421  0.20933  0.42745  1.0000
  H   H411      1.0  0.78401  0.18423  0.42416  1.0000
  H   H412      1.0  0.34784  0.28521  0.41507  1.0000
  C   C248      1.0  0.34061  0.18732  0.42604  1.0000
  H   H413      1.0  0.38026  0.18881  0.45411  1.0000
  C   C249      1.0  0.58015  0.32529  0.46206  1.0000
  C   C250      1.0  0.77760  0.17569  0.38683  1.0000
  C   C251      1.0  0.89244  0.23412  0.48721  1.0000
  H   H414      1.0  0.68977  0.35322  0.36408  1.0000
  H   H415      1.0  0.49754  0.38479  0.54871  1.0000
  N   N17       1.0  0.58148  0.32835  0.34114  1.0000
  H   H416      1.0  0.00780  0.16167  0.58338  1.0000
  H   H417      1.0  0.77671  0.29982  0.35609  1.0000
  H   H418      1.0  0.57729  0.36936  0.33943  1.0000
  H   H419      1.0  0.80451  0.36049  0.80261  1.0000
  C   C252      1.0  0.40304  0.14720  0.71057  1.0000
  H   H420      1.0  0.71488  0.17421  0.78684  1.0000
  S   S74       1.0  0.73329  0.20463  0.63218  1.0000
  H   H421      1.0  0.51012  0.23149  0.75541  1.0000
  C   C253      1.0  0.70039  0.32693  0.83201  1.0000
  C   C254      1.0  0.32908  0.19050  0.73730  1.0000
  C   C255      1.0  0.32025  0.20875  0.66220  1.0000
  H   H422      1.0  0.99498  0.17710  0.64288  1.0000
  N   N18       1.0  0.12406  0.16369  0.65753  1.0000
  H   H423      1.0  0.34181  0.22965  0.64491  1.0000
  H   H424      1.0  0.04946  0.16555  0.76253  1.0000
  C   C256      1.0  0.69275  0.29324  0.59355  1.0000
  H   H425      1.0  0.41278  0.29737  0.74674  1.0000
  C   C257      1.0  0.06823  0.14492  0.66834  1.0000
  H   H426      1.0  0.30238  0.17075  0.75292  1.0000
  H   H427      1.0  0.43482  0.22565  0.68836  1.0000
  H   H428      1.0  0.47885  0.16779  0.72849  1.0000
  H   H429      1.0  0.75006  0.30220  0.78757  1.0000
  H   H430      1.0  0.76172  0.21232  0.81240  1.0000
  H   H431      1.0  0.41889  0.29239  0.67216  1.0000
  H   H432      1.0  0.30468  0.20106  0.76634  1.0000
  C   C258      1.0  0.00763  0.15811  0.63687  1.0000
  C   C259      1.0  0.42617  0.21231  0.74339  1.0000
  C   C260      1.0  0.92951  0.15278  0.80817  1.0000
  H   H433      1.0  0.93807  0.23932  0.62660  1.0000
  H   H434      1.0  0.10244  0.29512  0.69099  1.0000
  H   H435      1.0  0.48298  0.20202  0.82956  1.0000
  N   N19       1.0  0.45803  0.33168  0.65925  1.0000
  S   S75       1.0  0.58206  0.20051  0.63163  1.0000
  H   H436      1.0  0.33852  0.19909  0.62871  1.0000
  C   C261      1.0  0.96157  0.33498  0.73534  1.0000
  C   C262      1.0  0.34162  0.31696  0.68141  1.0000
  H   H437      1.0  0.14970  0.20296  0.65677  1.0000
  H   H438      1.0  0.39512  0.22451  0.76297  1.0000
  H   H439      1.0  0.58083  0.34700  0.82136  1.0000
  H   H440      1.0  0.33074  0.32379  0.62826  1.0000
  H   H441      1.0  0.83350  0.28478  0.69621  1.0000
  H   H442      1.0  0.88109  0.34579  0.60313  1.0000
  C   C263      1.0  0.44604  0.35524  0.67916  1.0000
  H   H443      1.0  0.20901  0.16148  0.70618  1.0000
  H   H444      1.0  0.65366  0.32453  0.62167  1.0000
  C   C264      1.0  0.10812  0.18895  0.66933  1.0000
  H   H445      1.0  0.04491  0.33426  0.63246  1.0000
  H   H446      1.0  0.12071  0.17925  0.77554  1.0000
  H   H447      1.0  0.48617  0.37011  0.66057  1.0000
  H   H448      1.0  0.87914  0.31821  0.71702  1.0000
  H   H449      1.0  0.53899  0.31021  0.64208  1.0000
  C   C265      1.0  0.68458  0.18602  0.80832  1.0000
  Fe  Fe35      1.0  0.65372  0.23345  0.61126  1.0000
  C   C266      1.0  0.53125  0.29937  0.74755  1.0000
  H   H450      1.0  0.68678  0.22883  0.80062  1.0000
  N   N20       1.0  0.95209  0.31571  0.64618  1.0000
  H   H451      1.0  0.51435  0.30652  0.78618  1.0000
  H   H452      1.0  0.01218  0.33170  0.73877  1.0000
  H   H453      1.0  0.43876  0.18922  0.65823  1.0000
  H   H454      1.0  0.40593  0.36448  0.76110  1.0000
  H   H455      1.0  0.07375  0.20164  0.63502  1.0000
  Fe  Fe36      1.0  0.66230  0.17279  0.64137  1.0000
  C   C267      1.0  0.43497  0.34824  0.75493  1.0000
  C   C268      1.0  0.43136  0.17348  0.71149  1.0000
  H   H456      1.0  0.55669  0.33786  0.66356  1.0000
  C   C269      1.0  0.48904  0.21040  0.77384  1.0000
  H   H457      1.0  0.32901  0.33316  0.69897  1.0000
  H   H458      1.0  0.85601  0.21241  0.71771  1.0000
  H   H459      1.0  0.26976  0.21174  0.65567  1.0000
  C   C270      1.0  0.92988  0.31430  0.71456  1.0000
  H   H460      1.0  0.03672  0.31377  0.58889  1.0000
  C   C271      1.0  0.90524  0.20514  0.80527  1.0000
  H   H461      1.0  0.64254  0.19039  0.77950  1.0000
  H   H462      1.0  0.20519  0.17856  0.58603  1.0000
  H   H463      1.0  0.04955  0.27118  0.68179  1.0000
  H   H464      1.0  0.35536  0.15013  0.69367  1.0000
  H   H465      1.0  0.14805  0.13926  0.76021  1.0000
  C   C272      1.0  0.92535  0.29122  0.63913  1.0000
  C   C273      1.0  0.13333  0.29925  0.82604  1.0000
  C   C274      1.0  0.85381  0.28893  0.64474  1.0000
  H   H466      1.0  0.17651  0.23864  0.81833  1.0000
  H   H467      1.0  0.94135  0.27161  0.67850  1.0000
  H   H468      1.0  0.31101  0.29858  0.71179  1.0000
  C   C275      1.0  0.15567  0.17240  0.58752  1.0000
  H   H469      1.0  0.43233  0.14173  0.67418  1.0000
  H   H470      1.0  0.40666  0.36799  0.65332  1.0000
  H   H471      1.0  0.52271  0.19793  0.75865  1.0000
  H   H472      1.0  0.93434  0.29315  0.75506  1.0000
  H   H473      1.0  0.94139  0.33187  0.78634  1.0000
  H   H474      1.0  0.83997  0.27108  0.63482  1.0000
  H   H475      1.0  0.83295  0.30758  0.60755  1.0000
  C   C276      1.0  0.41000  0.30850  0.69146  1.0000
  C   C277      1.0  0.39567  0.16441  0.82759  1.0000
  H   H476      1.0  0.03267  0.28463  0.74365  1.0000
  C   C278      1.0  0.52256  0.32064  0.67492  1.0000
  C   C279      1.0  0.05267  0.28988  0.69164  1.0000
  C   C280      1.0  0.71724  0.21430  0.78904  1.0000
  H   H477      1.0  0.95320  0.35669  0.70047  1.0000
  H   H478      1.0  0.05770  0.20171  0.74124  1.0000
  H   H479      1.0  0.65590  0.31797  0.82655  1.0000
  S   S76       1.0  0.64223  0.26649  0.64898  1.0000
  H   H480      1.0  0.57666  0.15423  0.81540  1.0000
  H   H481      1.0  0.08432  0.30557  0.82752  1.0000
  C   C281      1.0  0.02193  0.31481  0.63755  1.0000
  C   C282      1.0  0.88371  0.19807  0.75586  1.0000
  H   H482      1.0  0.87960  0.16676  0.71851  1.0000
  H   H483      1.0  0.47943  0.34786  0.77747  1.0000
  C   C283      1.0  0.93114  0.34254  0.59294  1.0000
  C   C284      1.0  0.08258  0.18330  0.74156  1.0000
  H   H484      1.0  0.72932  0.22433  0.73387  1.0000
  H   H485      1.0  0.26474  0.31227  0.82842  1.0000
  N   N21       1.0  0.39552  0.18517  0.75506  1.0000
  H   H486      1.0  0.70995  0.34583  0.78405  1.0000
  C   C285      1.0  0.89634  0.17204  0.75693  1.0000
  H   H487      1.0  0.58171  0.29543  0.75292  1.0000
  H   H488      1.0  0.13555  0.28465  0.80193  1.0000
  H   H489      1.0  0.16321  0.31746  0.79365  1.0000
  C   C286      1.0  0.17009  0.14765  0.70763  1.0000
  H   H490      1.0  0.50889  0.27912  0.75853  1.0000
  H   H491      1.0  0.40825  0.32883  0.78412  1.0000
  H   H492      1.0  0.96812  0.14357  0.66440  1.0000
  S   S77       1.0  0.88393  0.23658  0.80789  1.0000
  H   H493      1.0  0.66650  0.37572  0.83078  1.0000
  H   H494      1.0  0.95625  0.36047  0.59398  1.0000
  H   H495      1.0  0.76557  0.38578  0.82562  1.0000
  H   H496      1.0  0.94300  0.29081  0.59051  1.0000
  C   C287      1.0  0.68612  0.32030  0.58741  1.0000
  S   S78       1.0  0.53277  0.40572  0.93040  1.0000
  C   C288      1.0  0.43452  0.57052  0.00768  1.0000
  H   H497      1.0  0.37909  0.47139  0.83478  1.0000
  H   H498      1.0  0.36195  0.45731  0.95579  1.0000
  H   H499      1.0  0.88207  0.49322  0.98679  1.0000
  Fe  Fe37      1.0  0.59772  0.40522  0.00540  1.0000
  H   H500      1.0  0.89849  0.58283  0.91417  1.0000
  C   C289      1.0  0.55759  0.51887  0.85071  1.0000
  H   H501      1.0  0.41814  0.40143  0.87890  1.0000
  H   H502      1.0  0.42772  0.62361  0.93010  1.0000
  S   S79       1.0  0.69573  0.39301  0.99542  1.0000
  H   H503      1.0  0.83249  0.54631  0.05594  1.0000
  S   S80       1.0  0.38648  0.55550  0.91541  1.0000
  C   C290      1.0  0.55225  0.58323  0.93745  1.0000
  H   H504      1.0  0.55486  0.51276  0.90594  1.0000
  H   H505      1.0  0.95400  0.50250  0.00381  1.0000
  H   H506      1.0  0.95870  0.46610  0.96101  1.0000
  Fe  Fe38      1.0  0.30518  0.53643  0.99057  1.0000
  C   C291      1.0  0.48126  0.58214  0.02952  1.0000
  C   C292      1.0  0.45536  0.47680  0.92682  1.0000
  H   H507      1.0  0.42015  0.43623  0.93747  1.0000
  H   H508      1.0  0.71526  0.49182  0.96912  1.0000
  Fe  Fe39      1.0  0.16915  0.52170  0.00710  1.0000
  C   C293      1.0  0.00088  0.57562  0.03067  1.0000
  C   C294      1.0  0.93902  0.57621  0.94250  1.0000
  C   C295      1.0  0.83215  0.50347  0.84618  1.0000
  S   S81       1.0  0.22026  0.55864  0.00460  1.0000
  H   H509      1.0  0.21645  0.63007  0.07701  1.0000
  C   C296      1.0  0.41133  0.45118  0.95977  1.0000
  C   C297      1.0  0.04287  0.55796  0.01733  1.0000
  S   S82       1.0  0.62288  0.44444  0.01320  1.0000
  H   H510      1.0  0.08257  0.55077  0.04681  1.0000
  H   H511      1.0  0.84414  0.53096  0.99777  1.0000
  H   H512      1.0  0.46277  0.53140  0.84299  1.0000
  H   H513      1.0  0.23332  0.42146  0.99217  1.0000
  H   H514      1.0  0.33114  0.61803  0.88365  1.0000
  H   H515      1.0  0.24160  0.40633  0.93341  1.0000
  S   S83       1.0  0.89624  0.60643  0.01102  1.0000
  H   H516      1.0  0.35720  0.50972  0.88764  1.0000
  S   S84       1.0  0.74821  0.58444  0.95428  1.0000
  S   S85       1.0  0.08395  0.52665  0.95079  1.0000
  S   S86       1.0  0.25377  0.50119  0.98508  1.0000
  H   H517      1.0  0.97266  0.55170  0.89045  1.0000
  C   C298      1.0  0.98094  0.55855  0.92917  1.0000
  H   H518      1.0  0.50103  0.47033  0.94834  1.0000
  S   S87       1.0  0.80519  0.45387  0.95237  1.0000
  C   C299      1.0  0.25538  0.40438  0.98300  1.0000
  H   H519      1.0  0.00853  0.58216  0.07007  1.0000
  Fe  Fe40      1.0  0.75463  0.60380  0.84144  1.0000
  C   C300      1.0  0.94900  0.58479  0.99320  1.0000
  C   C301      1.0  0.74529  0.50282  0.92383  1.0000
  C   C302      1.0  0.35383  0.51054  0.83696  1.0000
  C   C303      1.0  0.03299  0.54947  0.96643  1.0000
  C   C304      1.0  0.73777  0.53123  0.88556  1.0000
  H   H520      1.0  0.91577  0.44226  0.03566  1.0000
  C   C305      1.0  0.53973  0.58889  0.99383  1.0000
  H   H521      1.0  0.51396  0.56950  0.86864  1.0000
  H   H522      1.0  0.31333  0.62700  0.95264  1.0000
  H   H523      1.0  0.99216  0.45512  0.03994  1.0000
  Fe  Fe41      1.0  0.72067  0.42973  0.01352  1.0000
  H   H524      1.0  0.52610  0.63815  0.86225  1.0000
  C   C306      1.0  0.50508  0.57250  0.91428  1.0000
  H   H525      1.0  0.59774  0.58777  0.91061  1.0000
  C   C307      1.0  0.94772  0.46055  0.01562  1.0000
  N   N22       1.0  0.46323  0.48959  0.85066  1.0000
  H   H526      1.0  0.43870  0.49213  0.94624  1.0000
  H   H527      1.0  0.70123  0.54198  0.90074  1.0000
  H   H528      1.0  0.41864  0.44021  0.01424  1.0000
  H   H529      1.0  0.54503  0.46460  0.85832  1.0000
  C   C308      1.0  0.91829  0.48559  0.02344  1.0000
  H   H530      1.0  0.30674  0.40709  0.97755  1.0000
  H   H531      1.0  0.38872  0.56638  0.03399  1.0000
  Fe  Fe42      1.0  0.67947  0.61728  0.94430  1.0000
  S   S88       1.0  0.59551  0.60589  0.01756  1.0000
  Fe  Fe43      1.0  0.81834  0.61694  0.94303  1.0000
  C   C309      1.0  0.44608  0.56637  0.94899  1.0000
  C   C310      1.0  0.79260  0.48898  0.90408  1.0000
  H   H532      1.0  0.39296  0.46990  0.07796  1.0000
  C   C311      1.0  0.33530  0.63492  0.90018  1.0000
  C   C312      1.0  0.83293  0.52626  0.05177  1.0000
  H   H533      1.0  0.47177  0.58664  0.07298  1.0000
  H   H534      1.0  0.78526  0.51715  0.06783  1.0000
  H   H535      1.0  0.80015  0.47453  0.06559  1.0000
  H   H536      1.0  0.30588  0.50329  0.83652  1.0000
  H   H537      1.0  0.92604  0.52027  0.08208  1.0000
  H   H538      1.0  0.59150  0.50585  0.83755  1.0000
  H   H539      1.0  0.47770  0.45188  0.83799  1.0000
  H   H540      1.0  0.99029  0.62066  0.15564  1.0000
  N   N23       1.0  0.89154  0.48044  0.09352  1.0000
  H   H541      1.0  0.15263  0.61032  0.13241  1.0000
  S   S89       1.0  0.71892  0.40627  0.12582  1.0000
  H   H542      1.0  0.00201  0.48921  0.16800  1.0000
  H   H543      1.0  0.38483  0.61052  0.09704  1.0000
  S   S90       1.0  0.31724  0.51414  0.10059  1.0000
  C   C313      1.0  0.02935  0.63602  0.13842  1.0000
  C   C314      1.0  0.02659  0.54150  0.27345  1.0000
  H   H544      1.0  0.13652  0.57122  0.26701  1.0000
  S   S91       1.0  0.21480  0.54259  0.20378  1.0000
  C   C315      1.0  0.52615  0.53429  0.17463  1.0000
  H   H545      1.0  0.00200  0.56153  0.25356  1.0000
  C   C316      1.0  0.38631  0.41625  0.23379  1.0000
  H   H546      1.0  0.46549  0.39925  0.29087  1.0000
  H   H547      1.0  0.07263  0.54558  0.24407  1.0000
  C   C317      1.0  0.72853  0.60088  0.14724  1.0000
  N   N24       1.0  0.56494  0.51855  0.23249  1.0000
  S   S92       1.0  0.57241  0.42829  0.20512  1.0000
  H   H548      1.0  0.89519  0.58048  0.17258  1.0000
  H   H549      1.0  0.21049  0.47484  0.25485  1.0000
  H   H550      1.0  0.68861  0.60708  0.11540  1.0000
  H   H551      1.0  0.03504  0.46028  0.15556  1.0000
  H   H552      1.0  0.71860  0.57949  0.18572  1.0000
  C   C318      1.0  0.04648  0.41926  0.33166  1.0000
  H   H553      1.0  0.05632  0.63284  0.09723  1.0000
  H   H554      1.0  0.84709  0.62516  0.13599  1.0000
  H   H555      1.0  0.83913  0.44359  0.10855  1.0000
  C   C319      1.0  0.39051  0.58913  0.20455  1.0000
  C   C320      1.0  0.79257  0.45973  0.17390  1.0000
  C   C321      1.0  0.00043  0.47689  0.13807  1.0000
  C   C322      1.0  0.36433  0.59463  0.14381  1.0000
  H   H556      1.0  0.62100  0.57566  0.25370  1.0000
  H   H557      1.0  0.03565  0.63215  0.23960  1.0000
  H   H558      1.0  0.50091  0.52272  0.30926  1.0000
  H   H559      1.0  0.28217  0.43390  0.29895  1.0000
  H   H560      1.0  0.10680  0.50617  0.33333  1.0000
  H   H561      1.0  0.81674  0.44663  0.21902  1.0000
  H   H562      1.0  0.48249  0.49508  0.29026  1.0000
  H   H563      1.0  0.49733  0.54964  0.18549  1.0000
  S   S93       1.0  0.75871  0.49872  0.28227  1.0000
  C   C323      1.0  0.36283  0.56909  0.26511  1.0000
  C   C324      1.0  0.99222  0.52152  0.25231  1.0000
  H   H564      1.0  0.63710  0.52830  0.28389  1.0000
  S   S94       1.0  0.45445  0.60899  0.20510  1.0000
  H   H565      1.0  0.03693  0.42543  0.27965  1.0000
  C   C325      1.0  0.31152  0.57965  0.14335  1.0000
  C   C326      1.0  0.47250  0.45195  0.13358  1.0000
  C   C327      1.0  0.59934  0.49565  0.22230  1.0000
  H   H566      1.0  0.11656  0.40144  0.15402  1.0000
  H   H567      1.0  0.35089  0.50575  0.25081  1.0000
  C   C328      1.0  0.48069  0.51677  0.15603  1.0000
  C   C329      1.0  0.06834  0.63162  0.19826  1.0000
  Fe  Fe44      1.0  0.22655  0.53220  0.11511  1.0000
  H   H568      1.0  0.94259  0.51823  0.27141  1.0000
  C   C330      1.0  0.86532  0.56815  0.21716  1.0000
  H   H569      1.0  0.28561  0.54038  0.31211  1.0000
  H   H570      1.0  0.76485  0.60838  0.22733  1.0000
  H   H571      1.0  0.17860  0.44344  0.25891  1.0000
  H   H572      1.0  0.01545  0.50139  0.26770  1.0000
  H   H573      1.0  0.54276  0.56348  0.26638  1.0000
  H   H574      1.0  0.99285  0.53091  0.19633  1.0000
  H   H575      1.0  0.77068  0.59975  0.11637  1.0000
  Fe  Fe45      1.0  0.61843  0.41752  0.12447  1.0000
  H   H576      1.0  0.47983  0.49436  0.18884  1.0000
  C   C331      1.0  0.44974  0.41459  0.24435  1.0000
  C   C332      1.0  0.52255  0.50635  0.29661  1.0000
  C   C333      1.0  0.30800  0.55518  0.26502  1.0000
  H   H577      1.0  0.38550  0.47299  0.29232  1.0000
  H   H578      1.0  0.91495  0.46099  0.19730  1.0000
  C   C334      1.0  0.86080  0.57461  0.27291  1.0000
  C   C335      1.0  0.18916  0.62592  0.12559  1.0000
  C   C336      1.0  0.58669  0.56586  0.23483  1.0000
  C   C337      1.0  0.83094  0.46439  0.10735  1.0000
  C   C338      1.0  0.83125  0.54564  0.21878  1.0000
  H   H579      1.0  0.57923  0.58049  0.18213  1.0000
  H   H580      1.0  0.63530  0.48734  0.25915  1.0000
  H   H581      1.0  0.08475  0.61016  0.21780  1.0000
  C   C339      1.0  0.63306  0.50328  0.15175  1.0000
  C   C340      1.0  0.28256  0.56035  0.20412  1.0000
  C   C341      1.0  0.49292  0.43208  0.19373  1.0000
  C   C342      1.0  0.93474  0.46396  0.14623  1.0000
  H   H582      1.0  0.43272  0.52424  0.15830  1.0000
  H   H583      1.0  0.35321  0.40211  0.27216  1.0000
  H   H584      1.0  0.32190  0.47679  0.24041  1.0000
  C   C343      1.0  0.40871  0.45440  0.12426  1.0000
  H   H585      1.0  0.56775  0.47767  0.23331  1.0000
  C   C344      1.0  0.73644  0.61968  0.18414  1.0000
  C   C345      1.0  0.19367  0.45378  0.29015  1.0000
  H   H586      1.0  0.29194  0.58379  0.09615  1.0000
  H   H587      1.0  0.93928  0.44248  0.15055  1.0000
  C   C346      1.0  0.88180  0.50782  0.09689  1.0000
  Fe  Fe46      1.0  0.25884  0.48075  0.09695  1.0000
  H   H588      1.0  0.65768  0.48483  0.15218  1.0000
  H   H589      1.0  0.60025  0.50900  0.11181  1.0000
  S   S95       1.0  0.16803  0.49718  0.11895  1.0000
  H   H590      1.0  0.55686  0.54687  0.12868  1.0000
  H   H591      1.0  0.86881  0.50487  0.14965  1.0000
  H   H592      1.0  0.66860  0.52001  0.13791  1.0000
  H   H593      1.0  0.64906  0.54404  0.19574  1.0000
  H   H594      1.0  0.83435  0.54103  0.17525  1.0000
  H   H595      1.0  0.74831  0.44868  0.17694  1.0000
  S   S96       1.0  0.28650  0.43748  0.16044  1.0000
  C   C347      1.0  0.34072  0.48317  0.27737  1.0000
  H   H596      1.0  0.77944  0.47937  0.17651  1.0000
  C   C348      1.0  0.36575  0.43615  0.17373  1.0000
  H   H597      1.0  0.17907  0.62171  0.25357  1.0000
  H   H598      1.0  0.22186  0.61700  0.16550  1.0000
  S   S97       1.0  0.90539  0.60237  0.27076  1.0000
  C   C349      1.0  0.61199  0.53821  0.23755  1.0000
  H   H599      1.0  0.68928  0.62102  0.20700  1.0000
  C   C350      1.0  0.79490  0.52877  0.27726  1.0000
  C   C351      1.0  0.13497  0.56107  0.32264  1.0000
  H   H600      1.0  0.38223  0.56516  0.31233  1.0000
  H   H601      1.0  0.22025  0.41051  0.10059  1.0000
  C   C352      1.0  0.24507  0.43666  0.33346  1.0000
  C   C353      1.0  0.82149  0.55865  0.32978  1.0000
  H   H602      1.0  0.49231  0.63695  0.30817  1.0000
  H   H603      1.0  0.11889  0.38904  0.08996  1.0000
  H   H604      1.0  0.01650  0.49048  0.08529  1.0000
  H   H605      1.0  0.49204  0.51966  0.10314  1.0000
  H   H606      1.0  0.50584  0.46560  0.09452  1.0000
  H   H607      1.0  0.25438  0.49180  0.32069  1.0000
  H   H608      1.0  0.15207  0.45513  0.32143  1.0000
  C   C354      1.0  0.78961  0.53542  0.33258  1.0000
  H   H609      1.0  0.32433  0.39827  0.08554  1.0000
  C   C355      1.0  0.20821  0.38852  0.13365  1.0000
  H   H610      1.0  0.07266  0.63466  0.55519  1.0000
  C   C356      1.0  0.15278  0.52097  0.55295  1.0000
  C   C357      1.0  0.15740  0.56912  0.47372  1.0000
  Fe  Fe47      1.0  0.75406  0.42951  0.52944  1.0000
  H   H611      1.0  0.94429  0.54717  0.36285  1.0000
  Fe  Fe48      1.0  0.94046  0.58872  0.50702  1.0000
  H   H612      1.0  0.31728  0.48539  0.37141  1.0000
  C   C358      1.0  0.31124  0.39996  0.45516  1.0000
  N   N25       1.0  0.03404  0.53162  0.34803  1.0000
  C   C359      1.0  0.60087  0.56131  0.43376  1.0000
  S   S98       1.0  0.81316  0.46780  0.46971  1.0000
  H   H613      1.0  0.59479  0.49397  0.37059  1.0000
  H   H614      1.0  0.98535  0.44886  0.34553  1.0000
  H   H615      1.0  0.35120  0.43994  0.43906  1.0000
  H   H616      1.0  0.26332  0.47451  0.47029  1.0000
  H   H617      1.0  0.26461  0.39586  0.48253  1.0000
  C   C360      1.0  0.57542  0.56758  0.48629  1.0000
  C   C361      1.0  0.96965  0.52751  0.38358  1.0000
  C   C362      1.0  0.02821  0.42410  0.43674  1.0000
  S   S99       1.0  0.89075  0.62194  0.52659  1.0000
  C   C363      1.0  0.55238  0.48557  0.35981  1.0000
  H   H618      1.0  0.03762  0.48763  0.37784  1.0000
  H   H619      1.0  0.51430  0.62575  0.43017  1.0000
  H   H620      1.0  0.22493  0.41549  0.36375  1.0000
  H   H621      1.0  0.56349  0.46597  0.35561  1.0000
  C   C364      1.0  0.01679  0.43231  0.36914  1.0000
  H   H622      1.0  0.17178  0.50050  0.57090  1.0000
  H   H623      1.0  0.15797  0.57556  0.33848  1.0000
  S   S100      1.0  0.71326  0.42750  0.43994  1.0000
  H   H624      1.0  0.97971  0.49599  0.48668  1.0000
  H   H625      1.0  0.76435  0.51425  0.54012  1.0000
  C   C365      1.0  0.66849  0.59429  0.47830  1.0000
  Fe  Fe49      1.0  0.81288  0.61404  0.47450  1.0000
  H   H626      1.0  0.75996  0.52294  0.37714  1.0000
  H   H627      1.0  0.08121  0.39767  0.51794  1.0000
  Fe  Fe50      1.0  0.47139  0.52396  0.47307  1.0000
  H   H628      1.0  0.44387  0.60698  0.45907  1.0000
  H   H629      1.0  0.23972  0.59812  0.54956  1.0000
  C   C366      1.0  0.07169  0.40377  0.46592  1.0000
  C   C367      1.0  0.59562  0.43406  0.57222  1.0000
  H   H630      1.0  0.50814  0.44570  0.52778  1.0000
  C   C368      1.0  0.06895  0.50500  0.37221  1.0000
  S   S101      1.0  0.85730  0.43756  0.37007  1.0000
  C   C369      1.0  0.22103  0.44742  0.43059  1.0000
  H   H631      1.0  0.42403  0.61440  0.34177  1.0000
  H   H632      1.0  0.15113  0.50016  0.42916  1.0000
  S   S102      1.0  0.24215  0.53602  0.44689  1.0000
  H   H633      1.0  0.28848  0.63687  0.43877  1.0000
  S   S103      1.0  0.98615  0.43827  0.48565  1.0000
  H   H634      1.0  0.58944  0.58851  0.54966  1.0000
  H   H635      1.0  0.09302  0.47398  0.47010  1.0000
  C   C370      1.0  0.53065  0.43573  0.57421  1.0000
  H   H636      1.0  0.34402  0.61131  0.44076  1.0000
  Fe  Fe51      1.0  0.79586  0.40194  0.43797  1.0000
  C   C371      1.0  0.06791  0.55447  0.35621  1.0000
  H   H637      1.0  0.18521  0.46274  0.40647  1.0000
  H   H638      1.0  0.49935  0.60117  0.36231  1.0000
  H   H639      1.0  0.49857  0.62964  0.53135  1.0000
  C   C372      1.0  0.32584  0.43093  0.41028  1.0000
  C   C373      1.0  0.24210  0.45351  0.48878  1.0000
  H   H640      1.0  0.62298  0.44287  0.52431  1.0000
  C   C374      1.0  0.69375  0.58836  0.42521  1.0000
  H   H641      1.0  0.67972  0.56720  0.36217  1.0000
  H   H642      1.0  0.20071  0.45284  0.52295  1.0000
  H   H643      1.0  0.27449  0.43787  0.51980  1.0000
  Fe  Fe52      1.0  0.88612  0.43836  0.46495  1.0000
  C   C375      1.0  0.46576  0.62544  0.41642  1.0000
  H   H644      1.0  0.91462  0.51742  0.47816  1.0000
  C   C376      1.0  0.06836  0.55121  0.55572  1.0000
  H   H645      1.0  0.73938  0.59640  0.40131  1.0000
  S   S104      1.0  0.71243  0.61273  0.51064  1.0000
  H   H646      1.0  0.98898  0.53147  0.47730  1.0000
  H   H647      1.0  0.18107  0.58615  0.43155  1.0000
  H   H648      1.0  0.67253  0.48470  0.54347  1.0000
  H   H649      1.0  0.10953  0.61925  0.34028  1.0000
  N   N26       1.0  0.27154  0.44815  0.37833  1.0000
  H   H650      1.0  0.08180  0.59382  0.48505  1.0000
  Fe  Fe53      1.0  0.33024  0.52136  0.49671  1.0000
  C   C377      1.0  0.10066  0.57339  0.50331  1.0000
  S   S105      1.0  0.83048  0.40056  0.53247  1.0000
  C   C378      1.0  0.65990  0.57194  0.40285  1.0000
  H   H651      1.0  0.19485  0.42735  0.45315  1.0000
  H   H652      1.0  0.08277  0.50675  0.47118  1.0000
  C   C379      1.0  0.29404  0.47773  0.33877  1.0000
  S   S106      1.0  0.56006  0.53962  0.40790  1.0000
  S   S107      1.0  0.39872  0.49465  0.47022  1.0000
  C   C380      1.0  0.60902  0.58415  0.50828  1.0000
  C   C381      1.0  0.18238  0.54270  0.49679  1.0000
  H   H653      1.0  0.04139  0.57396  0.33580  1.0000
  C   C382      1.0  0.96443  0.51759  0.46073  1.0000
  S   S108      1.0  0.40222  0.55295  0.48635  1.0000
  H   H654      1.0  0.53008  0.55945  0.51066  1.0000
  S   S109      1.0  0.85836  0.57758  0.46611  1.0000
  Fe  Fe54      1.0  0.89735  0.60906  0.36555  1.0000
  H   H655      1.0  0.94204  0.51199  0.37509  1.0000
  C   C383      1.0  0.10014  0.49652  0.43915  1.0000
  H   H656      1.0  0.51867  0.48035  0.40452  1.0000
  C   C384      1.0  0.47024  0.61953  0.35312  1.0000
  S   S110      1.0  0.98359  0.61728  0.40536  1.0000
  C   C385      1.0  0.08806  0.39811  0.36158  1.0000
  H   H657      1.0  0.81548  0.56403  0.37177  1.0000
  Fe  Fe55      1.0  0.77867  0.46356  0.37998  1.0000
  H   H658      1.0  0.07097  0.55010  0.40979  1.0000
  H   H659      1.0  0.65098  0.51587  0.54916  1.0000
  H   H660      1.0  0.38656  0.63125  0.50965  1.0000
  H   H661      1.0  0.36168  0.43119  0.37067  1.0000
  C   C386      1.0  0.32475  0.63134  0.40798  1.0000
  C   C387      1.0  0.10160  0.39079  0.42830  1.0000
  H   H662      1.0  0.30205  0.62783  0.36833  1.0000
  Fe  Fe56      1.0  0.40437  0.47372  0.58220  1.0000
  H   H663      1.0  0.73508  0.55135  0.56969  1.0000
  C   C388      1.0  0.67296  0.49573  0.57659  1.0000
  S   S111      1.0  0.48317  0.50055  0.58264  1.0000
  H   H664      1.0  0.16399  0.54257  0.33746  1.0000
  C   C389      1.0  0.09571  0.52523  0.58235  1.0000
  C   C390      1.0  0.27521  0.59733  0.58264  1.0000
  H   H665      1.0  0.34456  0.39210  0.49488  1.0000
  H   H666      1.0  0.96523  0.60368  0.79057  1.0000
  C   C391      1.0  0.74088  0.49955  0.58932  1.0000
  H   H667      1.0  0.17870  0.62312  0.73275  1.0000
  H   H668      1.0  0.66989  0.49364  0.71600  1.0000
  S   S112      1.0  0.41426  0.42810  0.63827  1.0000
  C   C392      1.0  0.00388  0.58985  0.71376  1.0000
  H   H669      1.0  0.36022  0.53243  0.79949  1.0000
  H   H670      1.0  0.99493  0.63516  0.59277  1.0000
  H   H671      1.0  0.43645  0.61838  0.82537  1.0000
  C   C393      1.0  0.95388  0.60394  0.74188  1.0000
  H   H672      1.0  0.55398  0.46733  0.74315  1.0000
  H   H673      1.0  0.16120  0.55036  0.68881  1.0000
  H   H674      1.0  0.90894  0.59240  0.75144  1.0000
  C   C394      1.0  0.31709  0.57565  0.60204  1.0000
  H   H675      1.0  0.68245  0.44964  0.72750  1.0000
  H   H676      1.0  0.76358  0.47964  0.59977  1.0000
  C   C395      1.0  0.72687  0.45871  0.73249  1.0000
  C   C396      1.0  0.58914  0.41154  0.69425  1.0000
  H   H677      1.0  0.90913  0.49735  0.65798  1.0000
  C   C397      1.0  0.28103  0.61856  0.60351  1.0000
  H   H678      1.0  0.17323  0.59954  0.82002  1.0000
  C   C398      1.0  0.72446  0.55247  0.66698  1.0000
  C   C399      1.0  0.49497  0.42480  0.63619  1.0000
  C   C400      1.0  0.11628  0.55650  0.70635  1.0000
  C   C401      1.0  0.40144  0.49195  0.82114  1.0000
  N   N27       1.0  0.06887  0.60194  0.70208  1.0000
  C   C402      1.0  0.50364  0.47122  0.82850  1.0000
  H   H679      1.0  0.57659  0.54042  0.82578  1.0000
  H   H680      1.0  0.98794  0.58989  0.66657  1.0000
  C   C403      1.0  0.07034  0.63264  0.65826  1.0000
  C   C404      1.0  0.36759  0.59525  0.66739  1.0000
  H   H681      1.0  0.73500  0.44824  0.78694  1.0000
  H   H682      1.0  0.07764  0.54500  0.69803  1.0000
  H   H683      1.0  0.84691  0.63559  0.64109  1.0000
  H   H684      1.0  0.49677  0.40491  0.74435  1.0000
  H   H685      1.0  0.19030  0.58658  0.75796  1.0000
  H   H686      1.0  0.00290  0.56761  0.74989  1.0000
  H   H687      1.0  0.94612  0.62546  0.70542  1.0000
  C   C405      1.0  0.82377  0.53165  0.80724  1.0000
  H   H688      1.0  0.32825  0.63232  0.66716  1.0000
  H   H689      1.0  0.15620  0.59801  0.65033  1.0000
  C   C406      1.0  0.32578  0.61696  0.64779  1.0000
  H   H690      1.0  0.73762  0.63528  0.61223  1.0000
  H   H691      1.0  0.71208  0.53928  0.72110  1.0000
  H   H692      1.0  0.31310  0.55965  0.58453  1.0000
  H   H693      1.0  0.66662  0.53462  0.62069  1.0000
  H   H694      1.0  0.46377  0.63238  0.70715  1.0000
  C   C407      1.0  0.62489  0.42201  0.63234  1.0000
  H   H695      1.0  0.82482  0.52292  0.68332  1.0000
  C   C408      1.0  0.86027  0.48987  0.66278  1.0000
  H   H696      1.0  0.07968  0.57617  0.80843  1.0000
  H   H697      1.0  0.06845  0.61125  0.78944  1.0000
  H   H698      1.0  0.49601  0.52880  0.77040  1.0000
  H   H699      1.0  0.64413  0.48331  0.62375  1.0000
  C   C409      1.0  0.72070  0.49011  0.71214  1.0000
  C   C410      1.0  0.71761  0.53704  0.62199  1.0000
  H   H700      1.0  0.86919  0.49288  0.83124  1.0000
  C   C411      1.0  0.16260  0.60204  0.76897  1.0000
  S   S113      1.0  0.70604  0.42031  0.63160  1.0000
  H   H701      1.0  0.40758  0.50038  0.76557  1.0000
  H   H702      1.0  0.77190  0.56165  0.65972  1.0000
  C   C412      1.0  0.10927  0.58802  0.66697  1.0000
  H   H703      1.0  0.83660  0.53101  0.59602  1.0000
  S   S114      1.0  0.76675  0.58072  0.77704  1.0000
  C   C413      1.0  0.52782  0.48341  0.75336  1.0000
  H   H704      1.0  0.85437  0.54280  0.76239  1.0000
  H   H705      1.0  0.40301  0.59431  0.70058  1.0000
  H   H706      1.0  0.69222  0.57006  0.65202  1.0000
  H   H707      1.0  0.09035  0.59076  0.61884  1.0000
  S   S115      1.0  0.99247  0.55522  0.58571  1.0000
  H   H708      1.0  0.74015  0.49465  0.75218  1.0000
  C   C414      1.0  0.36443  0.57510  0.64274  1.0000
  N   N28       1.0  0.74918  0.50955  0.64329  1.0000
  H   H709      1.0  0.85065  0.47471  0.71601  1.0000
  H   H710      1.0  0.11809  0.54971  0.76129  1.0000
  S   S116      1.0  0.33059  0.49814  0.60878  1.0000
  H   H711      1.0  0.07134  0.50807  0.62353  1.0000
  C   C415      1.0  0.77681  0.54557  0.82700  1.0000
  H   H712      1.0  0.85850  0.47982  0.62783  1.0000
  H   H713      1.0  0.48939  0.48950  0.71991  1.0000
  H   H714      1.0  0.56006  0.50134  0.73937  1.0000
  H   H715      1.0  0.61176  0.40296  0.74062  1.0000
  S   S117      1.0  0.42157  0.55018  0.65995  1.0000
  C   C416      1.0  0.49264  0.51798  0.82635  1.0000
  C   C417      1.0  0.52417  0.41264  0.69630  1.0000
  H   H716      1.0  0.76519  0.45280  0.70520  1.0000
  C   C418      1.0  0.09200  0.59735  0.76922  1.0000
  Fe  Fe57      1.0  0.40899  0.52754  0.59637  1.0000
  C   C419      1.0  0.81746  0.51478  0.64532  1.0000
  S   S118      1.0  0.83174  0.63331  0.83063  1.0000
  S   S119      1.0  0.67888  0.63391  0.83171  1.0000
  H   H717      1.0  0.54743  0.80186  0.05716  1.0000
  H   H718      1.0  0.91318  0.66425  0.05353  1.0000
  C   C420      1.0  0.50655  0.65924  0.84230  1.0000
  C   C421      1.0  0.78561  0.75306  0.84647  1.0000
  C   C422      1.0  0.70470  0.75945  0.03505  1.0000
  C   C423      1.0  0.20177  0.71665  0.98169  1.0000
  H   H719      1.0  0.89432  0.66461  0.91866  1.0000
  C   C424      1.0  0.33361  0.76563  0.85373  1.0000
  H   H720      1.0  0.40400  0.65529  0.93009  1.0000
  H   H721      1.0  0.77775  0.69125  0.00291  1.0000
  H   H722      1.0  0.51053  0.65669  0.94409  1.0000
  C   C425      1.0  0.13877  0.72290  0.98857  1.0000
  C   C426      1.0  0.19570  0.86393  0.94323  1.0000
  H   H723      1.0  0.75068  0.71176  0.87193  1.0000
  H   H724      1.0  0.30108  0.77404  0.96506  1.0000
  C   C427      1.0  0.74038  0.69292  0.03859  1.0000
  H   H725      1.0  0.13675  0.66234  0.07609  1.0000
  C   C428      1.0  0.09297  0.70880  0.97249  1.0000
  H   H726      1.0  0.57200  0.67679  0.88545  1.0000
  S   S120      1.0  0.74901  0.64873  0.94146  1.0000
  H   H727      1.0  0.70094  0.70340  0.00861  1.0000
  C   C429      1.0  0.59663  0.74603  0.04085  1.0000
  H   H728      1.0  0.39779  0.69421  0.83595  1.0000
  S   S121      1.0  0.52922  0.74752  0.99990  1.0000
  C   C430      1.0  0.22873  0.79181  0.89842  1.0000
  C   C431      1.0  0.16735  0.87273  0.99012  1.0000
  H   H729      1.0  0.12546  0.73743  0.00954  1.0000
  H   H730      1.0  0.75677  0.70632  0.06131  1.0000
  S   S122      1.0  0.27430  0.87155  0.91446  1.0000
  H   H731      1.0  0.21485  0.77200  0.89801  1.0000
  C   C432      1.0  0.07181  0.84842  0.99320  1.0000
  S   S123      1.0  0.01379  0.71091  0.99385  1.0000
  N   N29       1.0  0.34574  0.79149  0.86363  1.0000
  C   C433      1.0  0.21882  0.69759  0.95512  1.0000
  C   C434      1.0  0.40397  0.64285  0.90011  1.0000
  C   C435      1.0  0.52134  0.67192  0.89105  1.0000
  H   H732      1.0  0.34455  0.84590  0.84486  1.0000
  H   H733      1.0  0.41234  0.76890  0.93459  1.0000
  H   H734      1.0  0.30830  0.65294  0.86874  1.0000
  H   H735      1.0  0.65381  0.84983  0.84925  1.0000
  C   C436      1.0  0.40920  0.78898  0.88995  1.0000
  H   H736      1.0  0.18610  0.66974  0.91606  1.0000
  C   C437      1.0  0.43024  0.81159  0.91063  1.0000
  H   H737      1.0  0.15666  0.79679  0.07146  1.0000
  Fe  Fe58      1.0  0.45949  0.71354  0.06158  1.0000
  H   H738      1.0  0.39708  0.81431  0.94840  1.0000
  H   H739      1.0  0.74602  0.77053  0.00540  1.0000
  C   C438      1.0  0.17307  0.68462  0.93610  1.0000
  Fe  Fe59      1.0  0.97007  0.74878  0.99670  1.0000
  H   H740      1.0  0.44601  0.78875  0.85187  1.0000
  H   H741      1.0  0.49597  0.69123  0.88143  1.0000
  Fe  Fe60      1.0  0.34886  0.68727  0.03406  1.0000
  H   H742      1.0  0.77648  0.75147  0.89709  1.0000
  C   C439      1.0  0.11031  0.68957  0.94674  1.0000
  H   H743      1.0  0.62885  0.81012  0.84149  1.0000
  C   C440      1.0  0.29655  0.79205  0.91590  1.0000
  H   H744      1.0  0.19276  0.88569  0.00666  1.0000
  Fe  Fe61      1.0  0.95574  0.80357  0.00602  1.0000
  S   S124      1.0  0.44992  0.67790  0.03406  1.0000
  C   C441      1.0  0.09923  0.84081  0.94388  1.0000
  H   H745      1.0  0.97764  0.75855  0.83870  1.0000
  H   H746      1.0  0.44055  0.83148  0.86606  1.0000
  H   H747      1.0  0.07323  0.82869  0.92536  1.0000
  H   H748      1.0  0.23698  0.72647  0.99719  1.0000
  C   C442      1.0  0.16074  0.84899  0.91816  1.0000
  H   H749      1.0  0.08371  0.87153  0.05197  1.0000
  C   C443      1.0  0.93855  0.67590  0.89333  1.0000
  C   C444      1.0  0.65008  0.76081  0.00335  1.0000
  H   H750      1.0  0.02931  0.71774  0.84957  1.0000
  S   S125      1.0  0.29615  0.68787  0.95010  1.0000
  S   S126      1.0  0.35921  0.72469  0.05312  1.0000
  H   H751      1.0  0.30172  0.81028  0.92704  1.0000
  S   S127      1.0  0.41059  0.84940  0.03330  1.0000
  H   H752      1.0  0.18142  0.84355  0.87912  1.0000
  H   H753      1.0  0.64971  0.77291  0.94958  1.0000
  H   H754      1.0  0.94720  0.69018  0.91666  1.0000
  H   H755      1.0  0.81549  0.64354  0.05753  1.0000
  H   H756      1.0  0.07508  0.67779  0.93698  1.0000
  S   S128      1.0  0.85364  0.80565  0.99170  1.0000
  C   C445      1.0  0.10533  0.86504  0.01497  1.0000
  H   H757      1.0  0.62523  0.83181  0.06931  1.0000
  S   S129      1.0  0.86911  0.74619  0.98339  1.0000
  H   H758      1.0  0.47465  0.80535  0.93496  1.0000
  H   H759      1.0  0.19708  0.79421  0.93791  1.0000
  H   H760      1.0  0.63351  0.76725  0.84121  1.0000
  H   H761      1.0  0.32886  0.74714  0.90313  1.0000
  H   H762      1.0  0.97568  0.66044  0.90422  1.0000
  S   S130      1.0  0.99609  0.83728  0.02868  1.0000
  S   S131      1.0  0.98189  0.79260  0.91884  1.0000
  Fe  Fe62      1.0  0.33267  0.87781  0.98752  1.0000
  Fe  Fe63      1.0  0.87882  0.79056  0.91199  1.0000
  H   H763      1.0  0.22043  0.80886  0.84913  1.0000
  Fe  Fe64      1.0  0.85213  0.76097  0.06408  1.0000
  H   H764      1.0  0.70282  0.65280  0.06420  1.0000
  H   H765      1.0  0.91660  0.73570  0.84481  1.0000
  H   H766      1.0  0.86001  0.68833  0.06339  1.0000
  H   H767      1.0  0.23782  0.79269  0.08133  1.0000
  Fe  Fe65      1.0  0.46400  0.88838  0.01209  1.0000
  C   C446      1.0  0.34797  0.75309  0.18372  1.0000
  H   H768      1.0  0.71415  0.64001  0.27960  1.0000
  C   C447      1.0  0.87640  0.66706  0.08833  1.0000
  C   C448      1.0  0.62225  0.80994  0.10790  1.0000
  C   C449      1.0  0.16233  0.65343  0.12199  1.0000
  H   H769      1.0  0.89857  0.66479  0.13439  1.0000
  C   C450      1.0  0.36388  0.77899  0.18044  1.0000
  H   H770      1.0  0.07681  0.68880  0.11667  1.0000
  Fe  Fe66      1.0  0.34705  0.69539  0.16230  1.0000
  N   N30       1.0  0.12179  0.65188  0.18263  1.0000
  H   H771      1.0  0.98557  0.80223  0.18892  1.0000
  H   H772      1.0  0.73795  0.67419  0.26433  1.0000
  H   H773      1.0  0.77262  0.79002  0.18592  1.0000
  C   C451      1.0  0.85334  0.74733  0.31020  1.0000
  C   C452      1.0  0.06860  0.77845  0.18548  1.0000
  C   C453      1.0  0.19389  0.79833  0.10191  1.0000
  H   H774      1.0  0.92477  0.87282  0.19826  1.0000
  H   H775      1.0  0.15450  0.69739  0.21828  1.0000
  H   H776      1.0  0.67957  0.76693  0.19717  1.0000
  C   C454      1.0  0.72399  0.66111  0.23917  1.0000
  H   H777      1.0  0.61275  0.81932  0.25511  1.0000
  H   H778      1.0  0.60292  0.76627  0.22960  1.0000
  C   C455      1.0  0.66896  0.77105  0.29181  1.0000
  H   H779      1.0  0.62117  0.86427  0.15146  1.0000
  S   S132      1.0  0.95233  0.75955  0.08502  1.0000
  H   H780      1.0  0.06908  0.75784  0.18409  1.0000
  C   C456      1.0  0.36905  0.85595  0.31518  1.0000
  H   H781      1.0  0.46726  0.79606  0.30309  1.0000
  C   C457      1.0  0.59755  0.73037  0.11044  1.0000
  H   H782      1.0  0.68095  0.66978  0.21476  1.0000
  Fe  Fe67      1.0  0.42905  0.65269  0.14487  1.0000
  H   H783      1.0  0.48459  0.67777  0.31587  1.0000
  C   C458      1.0  0.31420  0.76571  0.29278  1.0000
  H   H784      1.0  0.97205  0.76542  0.22261  1.0000
  S   S133      1.0  0.32667  0.65881  0.14250  1.0000
  C   C459      1.0  0.76077  0.80919  0.14251  1.0000
  Fe  Fe68      1.0  0.37435  0.85272  0.12797  1.0000
  C   C460      1.0  0.34639  0.78539  0.23471  1.0000
  H   H785      1.0  0.38395  0.65882  0.32062  1.0000
  H   H786      1.0  0.75385  0.80452  0.09882  1.0000
  H   H787      1.0  0.69472  0.78830  0.29441  1.0000
  H   H788      1.0  0.55161  0.80755  0.22374  1.0000
  C   C461      1.0  0.31294  0.73391  0.24026  1.0000
  H   H789      1.0  0.18470  0.70425  0.13334  1.0000
  H   H790      1.0  0.15011  0.72489  0.28234  1.0000
  S   S134      1.0  0.29221  0.87798  0.08459  1.0000
  H   H791      1.0  0.36104  0.86513  0.26070  1.0000
  H   H792      1.0  0.67493  0.66724  0.11945  1.0000
  S   S135      1.0  0.82451  0.79924  0.30059  1.0000
  S   S136      1.0  0.44833  0.68731  0.17360  1.0000
  H   H793      1.0  0.65434  0.79862  0.08675  1.0000
  C   C462      1.0  0.00535  0.78179  0.21914  1.0000
  H   H794      1.0  0.55627  0.71937  0.13985  1.0000
  H   H795      1.0  0.65249  0.71724  0.19623  1.0000
  H   H796      1.0  0.20380  0.65571  0.23059  1.0000
  C   C463      1.0  0.77796  0.66125  0.18845  1.0000
  C   C464      1.0  0.82462  0.64487  0.10532  1.0000
  H   H797      1.0  0.20231  0.66793  0.11126  1.0000
  H   H798      1.0  0.79413  0.68309  0.15984  1.0000
  S   S137      1.0  0.28842  0.70261  0.24146  1.0000
  C   C465      1.0  0.09575  0.68012  0.16692  1.0000
  C   C466      1.0  0.18231  0.77839  0.17727  1.0000
  S   S138      1.0  0.36343  0.81794  0.23077  1.0000
  C   C467      1.0  0.29654  0.74010  0.29519  1.0000
  H   H799      1.0  0.46432  0.86497  0.31524  1.0000
  H   H800      1.0  0.81837  0.75008  0.27526  1.0000
  C   C468      1.0  0.64815  0.77749  0.22082  1.0000
  C   C469      1.0  0.16078  0.64261  0.24211  1.0000
  H   H801      1.0  0.06813  0.79314  0.13149  1.0000
  C   C470      1.0  0.11452  0.73327  0.30740  1.0000
  H   H802      1.0  0.05488  0.67911  0.20222  1.0000
  H   H803      1.0  0.00764  0.77989  0.27098  1.0000
  H   H804      1.0  0.36198  0.74829  0.14183  1.0000
  H   H805      1.0  0.22608  0.82270  0.19633  1.0000
  N   N31       1.0  0.64250  0.80762  0.17449  1.0000
  H   H806      1.0  0.81683  0.65048  0.21940  1.0000
  C   C471      1.0  0.65197  0.72928  0.14237  1.0000
  H   H807      1.0  0.08505  0.81575  0.23905  1.0000
  S   S139      1.0  0.77448  0.74102  0.14396  1.0000
  C   C472      1.0  0.14183  0.70208  0.16659  1.0000
  C   C473      1.0  0.18380  0.82261  0.22849  1.0000
  C   C474      1.0  0.71815  0.66434  0.09248  1.0000
  H   H808      1.0  0.71520  0.82713  0.20492  1.0000
  H   H809      1.0  0.18058  0.75716  0.17967  1.0000
  H   H810      1.0  0.80205  0.82334  0.12873  1.0000
  H   H811      1.0  0.20028  0.82005  0.09423  1.0000
  H   H812      1.0  0.97986  0.88709  0.32265  1.0000
  C   C475      1.0  0.12677  0.76414  0.28872  1.0000
  H   H813      1.0  0.55046  0.77634  0.14114  1.0000
  H   H814      1.0  0.55757  0.85283  0.11924  1.0000
  C   C476      1.0  0.70576  0.74357  0.10453  1.0000
  C   C477      1.0  0.57979  0.85029  0.16531  1.0000
  H   H815      1.0  0.11761  0.82751  0.15513  1.0000
  H   H816      1.0  0.70185  0.84399  0.11885  1.0000
  H   H817      1.0  0.17270  0.76547  0.30732  1.0000
  H   H818      1.0  0.08858  0.65497  0.30208  1.0000
  H   H819      1.0  0.38996  0.79385  0.13616  1.0000
  C   C478      1.0  0.70395  0.82308  0.16114  1.0000
  N   N32       1.0  0.12559  0.78345  0.21483  1.0000
  H   H820      1.0  0.11926  0.72246  0.14745  1.0000
  C   C479      1.0  0.12514  0.81278  0.20777  1.0000
  H   H821      1.0  0.54590  0.85725  0.19535  1.0000
  H   H822      1.0  0.45321  0.84157  0.28086  1.0000
  C   C480      1.0  0.59574  0.81997  0.20784  1.0000
  H   H823      1.0  0.22479  0.77923  0.20163  1.0000
  H   H824      1.0  0.17759  0.84421  0.22237  1.0000
  H   H825      1.0  0.19189  0.81006  0.28218  1.0000
  H   H826      1.0  0.00899  0.65678  0.11781  1.0000
  C   C481      1.0  0.55605  0.79882  0.10916  1.0000
  N   N33       1.0  0.76458  0.64811  0.14166  1.0000
  H   H827      1.0  0.70118  0.75344  0.30698  1.0000
  H   H828      1.0  0.87649  0.70646  0.31963  1.0000
  C   C482      1.0  0.43670  0.84621  0.32419  1.0000
  H   H829      1.0  0.51939  0.81008  0.12490  1.0000
  H   H830      1.0  0.09303  0.77013  0.32083  1.0000
  H   H831      1.0  0.06717  0.72928  0.29656  1.0000
  C   C483      1.0  0.12752  0.64063  0.30898  1.0000
  H   H832      1.0  0.49122  0.72011  0.33245  1.0000
  C   C484      1.0  0.86598  0.76838  0.33016  1.0000
  H   H833      1.0  0.35965  0.87207  0.33388  1.0000
  H   H834      1.0  0.62818  0.76552  0.32961  1.0000
  N   N34       1.0  0.43302  0.65152  0.40970  1.0000
  C   C485      1.0  0.42615  0.82854  0.44981  1.0000
  H   H835      1.0  0.42786  0.76435  0.35843  1.0000
  S   S140      1.0  0.34117  0.75353  0.56967  1.0000
  H   H836      1.0  0.00032  0.79630  0.43795  1.0000
  C   C486      1.0  0.70306  0.68815  0.45765  1.0000
  H   H837      1.0  0.74086  0.67467  0.45331  1.0000
  H   H838      1.0  0.66568  0.68607  0.42782  1.0000
  Fe  Fe69      1.0  0.85101  0.86597  0.41012  1.0000
  H   H839      1.0  0.37370  0.79801  0.38274  1.0000
  S   S141      1.0  0.22369  0.78359  0.42997  1.0000
  C   C487      1.0  0.88612  0.72255  0.33553  1.0000
  S   S142      1.0  0.97673  0.68911  0.40951  1.0000
  H   H840      1.0  0.16093  0.64628  0.33758  1.0000
  S   S143      1.0  0.83038  0.83966  0.52060  1.0000
  H   H841      1.0  0.33088  0.84452  0.44260  1.0000
  C   C488      1.0  0.35548  0.82524  0.47039  1.0000
  H   H842      1.0  0.33223  0.80808  0.46488  1.0000
  C   C489      1.0  0.55784  0.88784  0.52250  1.0000
  Fe  Fe70      1.0  0.34107  0.88714  0.53655  1.0000
  H   H843      1.0  0.50113  0.77246  0.37881  1.0000
  Fe  Fe71      1.0  0.89005  0.80860  0.50229  1.0000
  S   S144      1.0  0.65707  0.81362  0.54612  1.0000
  H   H844      1.0  0.72097  0.72358  0.53945  1.0000
  H   H845      1.0  0.10369  0.79809  0.37978  1.0000
  H   H846      1.0  0.63873  0.69481  0.52698  1.0000
  H   H847      1.0  0.07778  0.83383  0.55662  1.0000
  H   H848      1.0  0.42047  0.78034  0.45078  1.0000
  H   H849      1.0  0.09242  0.87067  0.52350  1.0000
  H   H850      1.0  0.41166  0.71060  0.33715  1.0000
  S   S145      1.0  0.96146  0.78701  0.57510  1.0000
  H   H851      1.0  0.33404  0.83889  0.33921  1.0000
  C   C490      1.0  0.75414  0.70644  0.55962  1.0000
  H   H852      1.0  0.50243  0.66713  0.49701  1.0000
  C   C491      1.0  0.41616  0.64995  0.47921  1.0000
  C   C492      1.0  0.04076  0.79258  0.46581  1.0000
  H   H853      1.0  0.43949  0.84990  0.44051  1.0000
  H   H854      1.0  0.65171  0.65930  0.54811  1.0000
  Fe  Fe72      1.0  0.27613  0.68557  0.57209  1.0000
  C   C493      1.0  0.55408  0.77992  0.57525  1.0000
  H   H855      1.0  0.61715  0.74283  0.46544  1.0000
  C   C494      1.0  0.37408  0.65501  0.37449  1.0000
  S   S146      1.0  0.49532  0.72039  0.52260  1.0000
  C   C495      1.0  0.14605  0.77959  0.53891  1.0000
  H   H856      1.0  0.34998  0.67397  0.37158  1.0000
  C   C496      1.0  0.99277  0.85833  0.55217  1.0000
  H   H857      1.0  0.98175  0.73786  0.43220  1.0000
  H   H858      1.0  0.26987  0.72525  0.33934  1.0000
  C   C497      1.0  0.03465  0.78635  0.53465  1.0000
  H   H859      1.0  0.44884  0.81458  0.49578  1.0000
  C   C498      1.0  0.55614  0.84276  0.40181  1.0000
  H   H860      1.0  0.52330  0.67246  0.38824  1.0000
  S   S147      1.0  0.32705  0.71774  0.47975  1.0000
  H   H861      1.0  0.71894  0.71012  0.43333  1.0000
  Fe  Fe73      1.0  0.92862  0.65005  0.42183  1.0000
  C   C499      1.0  0.15189  0.78612  0.46974  1.0000
  H   H862      1.0  0.54484  0.84216  0.45269  1.0000
  C   C500      1.0  0.09937  0.79310  0.43306  1.0000
  C   C501      1.0  0.47139  0.64856  0.52112  1.0000
  Fe  Fe74      1.0  0.82952  0.81722  0.37591  1.0000
  H   H863      1.0  0.56948  0.86904  0.51718  1.0000
  H   H864      1.0  0.80266  0.73327  0.46277  1.0000
  H   H865      1.0  0.87723  0.88607  0.53942  1.0000
  Fe  Fe75      1.0  0.39269  0.72027  0.55163  1.0000
  H   H866      1.0  0.97766  0.87808  0.51329  1.0000
  H   H867      1.0  0.54943  0.86381  0.36267  1.0000
  H   H868      1.0  0.68104  0.77929  0.47395  1.0000
  C   C502      1.0  0.93271  0.71916  0.37929  1.0000
  C   C503      1.0  0.67589  0.67981  0.53090  1.0000
  S   S148      1.0  0.80971  0.78725  0.48402  1.0000
  H   H869      1.0  0.60665  0.83865  0.39876  1.0000
  H   H870      1.0  0.92157  0.78070  0.39067  1.0000
  S   S149      1.0  0.91514  0.83593  0.39328  1.0000
  H   H871      1.0  0.11725  0.72141  0.36268  1.0000
  H   H872      1.0  0.44902  0.70500  0.41302  1.0000
  S   S150      1.0  0.76666  0.85031  0.38075  1.0000
  C   C504      1.0  0.51755  0.75942  0.56997  1.0000
  S   S151      1.0  0.23419  0.64746  0.57097  1.0000
  C   C505      1.0  0.91163  0.76463  0.37498  1.0000
  H   H873      1.0  0.38676  0.66750  0.47707  1.0000
  H   H874      1.0  0.96198  0.84224  0.55002  1.0000
  H   H875      1.0  0.30106  0.77061  0.33503  1.0000
  H   H876      1.0  0.53086  0.80027  0.43327  1.0000
  C   C506      1.0  0.51958  0.82015  0.39182  1.0000
  N   N35       1.0  0.44982  0.82287  0.39040  1.0000
  C   C507      1.0  0.94568  0.74033  0.39849  1.0000
  S   S152      1.0  0.84641  0.64500  0.37108  1.0000
  C   C508      1.0  0.54040  0.74580  0.53093  1.0000
  C   C509      1.0  0.45498  0.70425  0.36317  1.0000
  C   C510      1.0  0.45730  0.78165  0.35659  1.0000
  H   H877      1.0  0.04548  0.66480  0.56288  1.0000
  C   C511      1.0  0.47644  0.67575  0.36850  1.0000
  H   H878      1.0  0.78855  0.65658  0.54494  1.0000
  H   H879      1.0  0.05813  0.85560  0.47474  1.0000
  H   H880      1.0  0.54061  0.81961  0.34449  1.0000
  C   C512      1.0  0.42233  0.79578  0.39726  1.0000
  Fe  Fe76      1.0  0.75203  0.82125  0.49043  1.0000
  H   H881      1.0  0.81997  0.69807  0.48522  1.0000
  C   C513      1.0  0.59974  0.75285  0.49689  1.0000
  C   C514      1.0  0.63608  0.77349  0.50178  1.0000
  C   C515      1.0  0.81032  0.71333  0.50622  1.0000
  Fe  Fe77      1.0  0.27144  0.74805  0.50559  1.0000
  H   H882      1.0  0.85332  0.71638  0.52740  1.0000
  S   S153      1.0  0.43707  0.87093  0.53441  1.0000
  H   H883      1.0  0.34791  0.82115  0.52454  1.0000
  S   S154      1.0  0.25643  0.86469  0.52979  1.0000
  C   C516      1.0  0.05931  0.85439  0.52645  1.0000
  C   C517      1.0  0.08752  0.77988  0.57127  1.0000
  C   C518      1.0  0.61344  0.78699  0.54125  1.0000
  H   H884      1.0  0.45295  0.64766  0.57078  1.0000
  H   H885      1.0  0.18675  0.77459  0.56738  1.0000
  N   N36       1.0  0.72083  0.67892  0.58117  1.0000
  H   H886      1.0  0.70978  0.86121  0.77922  1.0000
  Fe  Fe78      1.0  0.21806  0.87178  0.61882  1.0000
  H   H887      1.0  0.55865  0.77330  0.80601  1.0000
  C   C519      1.0  0.00166  0.82547  0.74515  1.0000
  H   H888      1.0  0.77154  0.70833  0.60418  1.0000
  C   C520      1.0  0.17853  0.75515  0.78012  1.0000
  H   H889      1.0  0.59198  0.69109  0.62315  1.0000
  C   C521      1.0  0.81460  0.65181  0.64170  1.0000
  S   S155      1.0  0.21383  0.71564  0.59076  1.0000
  H   H890      1.0  0.71484  0.67107  0.68675  1.0000
  C   C522      1.0  0.33395  0.84467  0.79795  1.0000
  H   H891      1.0  0.74757  0.86226  0.61176  1.0000
  C   C523      1.0  0.47477  0.64715  0.72867  1.0000
  H   H892      1.0  0.99838  0.87801  0.72434  1.0000
  H   H893      1.0  0.62124  0.79508  0.68731  1.0000
  C   C524      1.0  0.68371  0.67212  0.64778  1.0000
  H   H894      1.0  0.61412  0.75200  0.78670  1.0000
  H   H895      1.0  0.11947  0.78402  0.80071  1.0000
  H   H896      1.0  0.52423  0.64407  0.73993  1.0000
  H   H897      1.0  0.65097  0.71433  0.62748  1.0000
  C   C525      1.0  0.00332  0.83015  0.67104  1.0000
  H   H898      1.0  0.61646  0.68743  0.70203  1.0000
  C   C526      1.0  0.73053  0.84390  0.65789  1.0000
  H   H899      1.0  0.13307  0.68724  0.73455  1.0000
  H   H900      1.0  0.36345  0.74170  0.79843  1.0000
  H   H901      1.0  0.07511  0.87289  0.63171  1.0000
  H   H902      1.0  0.70383  0.81521  0.79850  1.0000
  H   H903      1.0  0.89424  0.70398  0.67697  1.0000
  H   H904      1.0  0.62772  0.86768  0.76705  1.0000
  H   H905      1.0  0.08125  0.70628  0.67209  1.0000
  H   H906      1.0  0.47565  0.72164  0.76234  1.0000
  Fe  Fe79      1.0  0.28740  0.71882  0.65358  1.0000
  C   C527      1.0  0.96845  0.72429  0.70427  1.0000
  H   H907      1.0  0.84255  0.67100  0.62782  1.0000
  N   N37       1.0  0.98546  0.85837  0.62119  1.0000
  C   C528      1.0  0.56046  0.82994  0.73706  1.0000
  H   H908      1.0  0.30237  0.77324  0.66362  1.0000
  H   H909      1.0  0.05161  0.82529  0.65909  1.0000
  H   H910      1.0  0.90904  0.86286  0.68641  1.0000
  C   C529      1.0  0.43048  0.64070  0.79241  1.0000
  H   H911      1.0  0.47174  0.75426  0.59592  1.0000
  S   S156      1.0  0.76297  0.70525  0.74591  1.0000
  H   H912      1.0  0.38228  0.64215  0.77655  1.0000
  H   H913      1.0  0.96719  0.68659  0.68448  1.0000
  S   S157      1.0  0.83582  0.80515  0.81247  1.0000
  H   H914      1.0  0.15452  0.73709  0.81870  1.0000
  H   H915      1.0  0.74308  0.82554  0.64860  1.0000
  H   H916      1.0  0.75561  0.84393  0.70006  1.0000
  H   H917      1.0  0.53483  0.67105  0.79442  1.0000
  C   C530      1.0  0.41080  0.68597  0.79778  1.0000
  S   S158      1.0  0.34570  0.68581  0.64254  1.0000
  H   H918      1.0  0.88904  0.70409  0.81044  1.0000
  C   C531      1.0  0.95768  0.74730  0.81203  1.0000
  H   H919      1.0  0.55383  0.85207  0.72644  1.0000
  H   H920      1.0  0.64931  0.86679  0.66432  1.0000
  H   H921      1.0  0.11876  0.64108  0.64783  1.0000
  H   H922      1.0  0.53591  0.79061  0.60484  1.0000
  N   N38       1.0  0.62876  0.82378  0.73336  1.0000
  H   H923      1.0  0.51206  0.80171  0.70528  1.0000
  C   C532      1.0  0.77935  0.73300  0.76594  1.0000
  S   S159      1.0  0.25449  0.71896  0.75274  1.0000
  C   C533      1.0  0.91770  0.86253  0.63620  1.0000
  C   C534      1.0  0.09442  0.70207  0.72342  1.0000
  C   C535      1.0  0.81945  0.77994  0.72894  1.0000
  H   H924      1.0  0.64024  0.84486  0.62416  1.0000
  H   H925      1.0  0.03931  0.83727  0.75367  1.0000
  H   H926      1.0  0.47548  0.83413  0.68605  1.0000
  H   H927      1.0  0.46811  0.66793  0.68856  1.0000
  H   H928      1.0  0.91917  0.67545  0.79960  1.0000
  H   H929      1.0  0.08363  0.77546  0.62434  1.0000
  H   H930      1.0  0.11316  0.72132  0.72339  1.0000
  C   C536      1.0  0.04403  0.64184  0.58873  1.0000
  H   H931      1.0  0.88898  0.84463  0.63984  1.0000
  S   S160      1.0  0.16752  0.83834  0.70964  1.0000
  H   H932      1.0  0.42111  0.72330  0.70470  1.0000
  H   H933      1.0  0.79410  0.64439  0.69437  1.0000
  C   C537      1.0  0.60889  0.77097  0.79562  1.0000
  C   C538      1.0  0.76437  0.65531  0.59246  1.0000
  H   H934      1.0  0.92984  0.73836  0.70365  1.0000
  H   H935      1.0  0.95611  0.82979  0.76484  1.0000
  H   H936      1.0  0.05959  0.68124  0.82700  1.0000
  H   H937      1.0  0.36482  0.86031  0.75705  1.0000
  H   H938      1.0  0.01118  0.80347  0.77571  1.0000
  H   H939      1.0  0.04535  0.64399  0.68479  1.0000
  H   H940      1.0  0.66068  0.65128  0.66708  1.0000
  H   H941      1.0  0.81005  0.75984  0.66299  1.0000
  H   H942      1.0  0.54275  0.83278  0.63573  1.0000
  H   H943      1.0  0.26918  0.81957  0.64730  1.0000
  H   H944      1.0  0.95837  0.71816  0.61323  1.0000
  C   C539      1.0  0.22934  0.75200  0.74035  1.0000
  C   C540      1.0  0.02738  0.88076  0.62157  1.0000
  H   H945      1.0  0.00660  0.73850  0.67171  1.0000
  H   H946      1.0  0.48638  0.70189  0.71269  1.0000
  C   C541      1.0  0.26132  0.77541  0.69198  1.0000
  H   H947      1.0  0.39202  0.77652  0.75790  1.0000
  C   C542      1.0  0.38240  0.75891  0.80786  1.0000
  C   C543      1.0  0.65644  0.82393  0.79431  1.0000
  C   C544      1.0  0.19041  0.80512  0.72055  1.0000
  C   C545      1.0  0.03957  0.68925  0.77717  1.0000
  C   C546      1.0  0.94561  0.70702  0.66838  1.0000
  H   H948      1.0  0.97305  0.81380  0.66868  1.0000
  C   C547      1.0  0.65947  0.84562  0.66886  1.0000
  C   C548      1.0  0.63311  0.69268  0.64879  1.0000
  C   C549      1.0  0.45196  0.70891  0.74155  1.0000
  C   C550      1.0  0.93117  0.69132  0.81718  1.0000
  C   C551      1.0  0.52117  0.82417  0.68811  1.0000
  C   C552      1.0  0.24217  0.80184  0.68241  1.0000
  C   C553      1.0  0.80292  0.75785  0.71432  1.0000
  H   H949      1.0  0.83973  0.79863  0.68894  1.0000
  C   C554      1.0  0.00796  0.72857  0.80104  1.0000
  H   H950      1.0  0.68864  0.79132  0.73055  1.0000
  C   C555      1.0  0.63832  0.79576  0.73318  1.0000
  H   H951      1.0  0.02323  0.67039  0.77295  1.0000
  H   H952      1.0  0.04540  0.74265  0.76600  1.0000
  C   C556      1.0  0.15871  0.78170  0.76982  1.0000
  H   H953      1.0  0.30470  0.81336  0.76944  1.0000
  H   H954      1.0  0.38639  0.81774  0.76358  1.0000
  N   N39       1.0  0.98675  0.70832  0.77499  1.0000
  H   H955      1.0  0.28558  0.85152  0.78712  1.0000
  H   H956      1.0  0.36632  0.68448  0.77689  1.0000
  H   H957      1.0  0.94309  0.76295  0.76341  1.0000
  C   C557      1.0  0.81178  0.77751  0.79517  1.0000
  H   H958      1.0  0.53821  0.81822  0.78895  1.0000
  C   C558      1.0  0.34353  0.81616  0.79659  1.0000
  C   C559      1.0  0.66172  0.85250  0.79610  1.0000
  N   N40       1.0  0.43867  0.65780  0.83159  1.0000
  H   H959      1.0  0.42607  0.75152  0.83276  1.0000
  C   C560      1.0  0.77018  0.73067  0.83207  1.0000
  Fe  Fe80      1.0  0.75563  0.66235  0.82955  1.0000
  H   H960      1.0  0.28886  0.76675  0.83102  1.0000
