data_image0
_chemical_formula_structural       FeS2FeS2FeSFeS3FeSH3SFeS2FeS2FeSFeS3HC3H3C4H4C5H4C6H4C6H5CH3C3NH3C4NCH6CH2C2H2CHCHCH2NC8H20SCH2SH2CHCHCH2C2HC2H4C2H2C2H2C2H3C2H2NCHSH5CH4CHCHC2SH9FeHNHCHCHCH5CHC6HCHNH3CH3FeNCHCHC2H2CH3C2H2CSFeS2FeSHFeSFeS3H2SHCHNHSC2SC2SFeSFeSH2C5H4C4H8C3HC6H5CH3CH2CHCHCH2CH2C2H2CHC4H2CH7C2H2SH3CHCH5CHCH2NH2C5H2FeCH6CH2CHCH4CH3CH5SFeSHFeS2FeSFeS3H3NHC4H5C2HCH3C7H6C2H3NH4CHCNH2CH2CSCH3C2FeCH7CSH6NHC2HC3H2CH2CH5SH2CH2C2H4C2H2C2H3CH4C2H2CH6FeSCFeSFeS3HSFeSCHC6H10C2SCNC2HCHCSH5SH3CH5CHNCH3CSHC2H2NC2HCHSH5CH15C2HCFeCH2NH3C2H2CH2CHCHCH3CHC4H8CH2CH3SCHCHSHSCHSFeHSFeH4CSH2FeS2FeS2FeSFeS3FeS2FeSCFeSFeS3HC2NHNCHCHC10H4C3H3CH5SH4CHC2FeH4CNHC2H2C7H4C4H4C2HCH3CHCNCNC5H3CH10SHC4H3CHCFeH2CSH3C3HCHCH2C2H5C2H9CHC2H3C2H5CHCH3CNCH3CHSCH3C2FeHSHFe2H3CH2CH2CSHCHCH11NSH6C2FeS2FeSFeCFeS4FeCSFeHSCHCS2C6H4CH4CH2CH2C6H7CH2CH7C3HCH3CH4SH8CFeH4CH4C3NHNCH2C2H3C3HFeC3H2CHCH2C2H4CH2C2H8CH3CHSH4SCH2CH2FeS2FeS2FeSFeS3HCH2C3HCH3SCHC4H4CSHC2H3C2HC3H3C6H6CHNHCH6NH6CSC5H2CNCH2C2H5CH3CH3C4H4CH2CSNH4CH4C2HCHCNC8H7CH4SH12CH2FeHCH2C2H5SHSC2HFeCHSFeSHSCS2FeSCFeSH3C5H5CFeH2NCH4Fe2C4H5FeNCH2C3H2CHC2HCH2C2H5CHCHCH4NC6H12SCHC2HFeCHCSCH2CHSH2CH5SCH2CNCSCH2CSH3S2HCHNH2C2HSCH4CHSCHCHCHCHFeSCFe2H5SC3H3CH3CFeHSFe3C3SNCHCHSH3SH2SCH16CH2SFeCSFeH4CHC2H4CH4C2HCSH4CFeSH3CH4CHSH3FeSHCH3Fe2H3CSC3H3CSH2CHCH3CH3NHC3HC4NH14C2H3SC2SC2H2CH4CH2C3H3FeS2FeS2FeHFeS3HFeSCSFeHSH3CFeS2H2FeSFeS3FeS2FeSHFeSFeSHC3SHCHC6H2C6H5SCHNC6H4C6H5C6H7SHNC2HC2H5C2SH5CSCFeH5SNCH10FeSHC2SFeCH3C4H3NC8H19NC6H14C4HSFeHFeSH2CHSHSHSC2HC3H3CHFeCFeH2FeHC4HSH2C3SH2C2HCH2C2SH2CH4SHCH2CH2C2H2CSCHN2HFe2HCH6CNHCH3CHCHSHSHSH2CH7CSCHCH7SH2CHCH3S2FeS2FeSFeSFeS2FeS2FeSFeS3FeS2FeS2FeSFeS4C7H4CH4C6H4C6H7C6H4C6H11CH9CH2CHC3H3C2H6CH3CH2CH2CHSCH2CH6CH2CHNC6HCH6CH6NC4HC3H8CH6FeH9CH4CHCHSHCHC2H2NCHC2HC2SHCH6CH5NC3H2NHCH5C2H3C2HCH5CH2C3H4CHSH2CH4NCH4CH2FeH5CSC2SFeCS2HCNC4HCH2CHCHCHCH7SFeCHC3HCH2C2SH3CH9CH6C2HCH5CHCNH4CHCHCH3CFeS2FeHFeSFeHS2NH4FeS2FeS2FeSFeS3C4HCH2CHC2HC3H5CH3C6H4CH3C6H5SH3C4H5CH2SH3C2H4CH3C2H2C3SCHC2H5CHC3H4NH2C2HCHCHCH4CNSH5FeH3SHCHFeNHCHC4HCH2SH3SH2CH2CHC3HC2H8SH5CHCFeHFeCH5S2CHCHSC2H2FeSNH2C2HCSFeSHSCHC2HCH2FeC2HCH2CNCH2CHC3H3C2H2C2H2CSHCHCH3CH2SCHCH4FeHCH6C3HSC6H4NC4HC3H15NCH5CHFeH7C2SCH4SHC3H2NSFeS2FeS2FeSFeS3HC3H2C2HCH3CHCH3C7H5C6H4CHCNH3CH2C2H5CH3C3H4C4H3SH5CFeCH4CH5CH2CH4CHCHNH5CHCH4CH2CHCHC2H3CHCHCH2CNH7C2H2C3HCH4NCH2CHC3H2CSCHFe2SHCH2SCH2C2SC2H3C2FeH5C3H2C2H3C2HCHSHSH2NHCH2S2H2NH5CH2C2H2FeHCH8C2SH4C4SH2SC2H2CHCHFeCHC5SH8CH6CHCHNSC2HCHSHNH2CHC3HSFeSH2SCH2
_chemical_formula_sum              "Fe144 S288 H1728 C1008 N72"
_cell_length_a       53.6217
_cell_length_b       53.9033
_cell_length_c       55.8118
_cell_angle_alpha    88.8259
_cell_angle_beta     91.1583
_cell_angle_gamma    117.248

_space_group_name_H-M_alt    "P 1"
_space_group_IT_number       1

loop_
  _space_group_symop_operation_xyz
  'x, y, z'

loop_
  _atom_site_type_symbol
  _atom_site_label
  _atom_site_symmetry_multiplicity
  _atom_site_fract_x
  _atom_site_fract_y
  _atom_site_fract_z
  _atom_site_occupancy
  Fe  Fe1       1.0  0.36854  0.35906  0.13098  1.0000
  S   S1        1.0  0.34844  0.33729  0.16575  1.0000
  S   S2        1.0  0.36867  0.40010  0.12011  1.0000
  Fe  Fe2       1.0  0.38891  0.31706  0.11994  1.0000
  S   S3        1.0  0.37072  0.29223  0.15329  1.0000
  S   S4        1.0  0.41815  0.30776  0.09763  1.0000
  Fe  Fe3       1.0  0.33255  0.29784  0.14454  1.0000
  S   S5        1.0  0.29271  0.25841  0.15385  1.0000
  Fe  Fe4       1.0  0.38790  0.33306  0.17246  1.0000
  S   S6        1.0  0.40468  0.33069  0.21004  1.0000
  S   S7        1.0  0.34954  0.31966  0.10917  1.0000
  S   S8        1.0  0.40917  0.35779  0.13956  1.0000
  Fe  Fe5       1.0  0.34696  0.18691  0.00792  1.0000
  S   S9        1.0  0.38730  0.20533  0.02908  1.0000
  H   H1        1.0  0.17425  0.01282  0.12251  1.0000
  H   H2        1.0  0.15458  0.05932  0.17384  1.0000
  H   H3        1.0  0.34086  0.47200  0.99439  1.0000
  S   S10       1.0  0.30536  0.15905  0.02404  1.0000
  Fe  Fe6       1.0  0.12068  0.11217  0.13472  1.0000
  S   S11       1.0  0.10545  0.14456  0.13143  1.0000
  S   S12       1.0  0.12392  0.08920  0.16798  1.0000
  Fe  Fe7       1.0  0.13194  0.11416  0.08158  1.0000
  S   S13       1.0  0.11735  0.14647  0.07360  1.0000
  S   S14       1.0  0.15166  0.09764  0.05521  1.0000
  Fe  Fe8       1.0  0.14219  0.16700  0.10689  1.0000
  S   S15       1.0  0.17149  0.21351  0.10632  1.0000
  Fe  Fe9       1.0  0.08186  0.12106  0.09846  1.0000
  S   S16       1.0  0.03583  0.11136  0.09420  1.0000
  S   S17       1.0  0.15908  0.13631  0.11291  1.0000
  S   S18       1.0  0.09464  0.08691  0.10379  1.0000
  H   H4        1.0  0.42335  0.25487  0.16292  1.0000
  C   C1        1.0  0.01642  0.10261  0.06685  1.0000
  C   C2        1.0  0.02699  0.09689  0.04611  1.0000
  C   C3        1.0  0.01027  0.08843  0.02512  1.0000
  H   H5        1.0  0.35867  0.47342  0.03665  1.0000
  H   H6        1.0  0.04801  0.09887  0.04628  1.0000
  H   H7        1.0  0.06002  0.01840  0.18696  1.0000
  C   C4        1.0  0.25994  0.06608  0.02135  1.0000
  C   C5        1.0  0.25076  0.03710  0.02255  1.0000
  C   C6        1.0  0.24083  0.06330  0.06110  1.0000
  C   C7        1.0  0.25493  0.07911  0.04080  1.0000
  H   H8        1.0  0.25461  0.02684  0.00764  1.0000
  H   H9        1.0  0.23702  0.07362  0.07597  1.0000
  H   H10       1.0  0.26162  0.10131  0.04009  1.0000
  H   H11       1.0  0.45018  0.34224  0.17349  1.0000
  C   C8        1.0  0.21182  0.17574  0.03977  1.0000
  C   C9        1.0  0.18753  0.15329  0.04866  1.0000
  C   C10       1.0  0.18235  0.12583  0.04450  1.0000
  C   C11       1.0  0.20191  0.12093  0.03187  1.0000
  C   C12       1.0  0.22636  0.14336  0.02315  1.0000
  H   H12       1.0  0.21558  0.19692  0.04298  1.0000
  H   H13       1.0  0.17274  0.15737  0.05857  1.0000
  H   H14       1.0  0.19832  0.09984  0.02906  1.0000
  H   H15       1.0  0.18604  0.05590  0.09757  1.0000
  C   C13       1.0  0.25962  0.24643  0.13961  1.0000
  C   C14       1.0  0.25327  0.26324  0.12381  1.0000
  C   C15       1.0  0.22619  0.25290  0.11354  1.0000
  C   C16       1.0  0.20553  0.22563  0.11873  1.0000
  C   C17       1.0  0.21209  0.20878  0.13429  1.0000
  C   C18       1.0  0.23891  0.21923  0.14483  1.0000
  H   H16       1.0  0.26903  0.28428  0.11975  1.0000
  H   H17       1.0  0.22118  0.26607  0.10156  1.0000
  H   H18       1.0  0.19624  0.18795  0.13870  1.0000
  H   H19       1.0  0.24357  0.20605  0.15705  1.0000
  C   C19       1.0  0.40738  0.27826  0.07938  1.0000
  C   C20       1.0  0.38120  0.26588  0.06765  1.0000
  C   C21       1.0  0.37465  0.24348  0.05189  1.0000
  C   C22       1.0  0.39399  0.23308  0.04851  1.0000
  C   C23       1.0  0.41992  0.24543  0.06041  1.0000
  C   C24       1.0  0.42670  0.26809  0.07550  1.0000
  H   H20       1.0  0.36653  0.27420  0.07012  1.0000
  H   H21       1.0  0.35484  0.23442  0.04224  1.0000
  H   H22       1.0  0.43501  0.23764  0.05775  1.0000
  H   H23       1.0  0.44708  0.27778  0.08423  1.0000
  H   H24       1.0  0.48619  0.38182  0.14905  1.0000
  C   C25       1.0  0.45694  0.37736  0.21501  1.0000
  H   H25       1.0  0.45285  0.38453  0.19783  1.0000
  H   H26       1.0  0.33773  0.42298  0.05789  1.0000
  H   H27       1.0  0.22937  0.99893  0.04338  1.0000
  C   C26       1.0  0.39015  0.41328  0.04965  1.0000
  C   C27       1.0  0.38239  0.40062  0.07244  1.0000
  C   C28       1.0  0.38061  0.41592  0.09167  1.0000
  N   N1        1.0  0.06420  0.05730  0.23731  1.0000
  H   H28       1.0  0.19452  0.24188  0.17252  1.0000
  H   H29       1.0  0.37736  0.37890  0.07505  1.0000
  H   H30       1.0  0.43506  0.29957  0.19600  1.0000
  C   C29       1.0  0.15936  0.15298  0.21481  1.0000
  C   C30       1.0  0.14705  0.13766  0.19401  1.0000
  C   C31       1.0  0.14244  0.11003  0.19243  1.0000
  C   C32       1.0  0.15121  0.09818  0.21130  1.0000
  N   N2        1.0  0.31544  0.44159  0.03797  1.0000
  C   C33       1.0  0.47089  0.34305  0.16967  1.0000
  H   H31       1.0  0.14020  0.14690  0.17957  1.0000
  H   H32       1.0  0.14756  0.07678  0.21039  1.0000
  H   H33       1.0  0.13877  0.00477  0.06740  1.0000
  H   H34       1.0  0.09948  0.01745  0.99321  1.0000
  H   H35       1.0  0.38611  0.45617  0.10283  1.0000
  H   H36       1.0  0.45674  0.30703  0.13227  1.0000
  C   C34       1.0  0.28686  0.44038  0.03531  1.0000
  H   H37       1.0  0.19779  0.25913  0.23546  1.0000
  H   H38       1.0  0.25959  0.22678  0.19613  1.0000
  C   C35       1.0  0.10845  0.01552  0.15631  1.0000
  C   C36       1.0  0.23122  0.17080  0.02697  1.0000
  H   H39       1.0  0.25058  0.43276  0.05686  1.0000
  H   H40       1.0  0.02859  0.02012  0.19535  1.0000
  C   C37       1.0  0.18025  0.02307  0.99909  1.0000
  H   H41       1.0  0.00846  0.01075  0.23291  1.0000
  C   C38       1.0  0.33780  0.47117  0.04199  1.0000
  H   H42       1.0  0.10464  0.02833  0.14230  1.0000
  C   C39       1.0  0.12877  0.00197  0.00499  1.0000
  H   H43       1.0  0.34206  0.43052  0.01644  1.0000
  H   H44       1.0  0.11091  0.02547  0.17399  1.0000
  N   N3        1.0  0.28495  0.19558  0.09368  1.0000
  C   C40       1.0  0.26055  0.16695  0.09010  1.0000
  C   C41       1.0  0.30819  0.19772  0.07775  1.0000
  C   C42       1.0  0.27523  0.21667  0.08559  1.0000
  C   C43       1.0  0.29341  0.19892  0.11987  1.0000
  C   C44       1.0  0.23300  0.16136  0.10256  1.0000
  C   C45       1.0  0.31859  0.17561  0.08240  1.0000
  C   C46       1.0  0.29734  0.24750  0.08477  1.0000
  C   C47       1.0  0.32401  0.22036  0.12608  1.0000
  H   H45       1.0  0.25556  0.16281  0.07064  1.0000
  H   H46       1.0  0.26582  0.15031  0.09677  1.0000
  H   H47       1.0  0.32684  0.21822  0.07920  1.0000
  H   H48       1.0  0.30157  0.19650  0.05857  1.0000
  H   H49       1.0  0.26562  0.21156  0.06733  1.0000
  H   H50       1.0  0.25847  0.21596  0.09739  1.0000
  H   H51       1.0  0.27923  0.20438  0.13025  1.0000
  H   H52       1.0  0.29084  0.17865  0.12750  1.0000
  H   H53       1.0  0.22287  0.17319  0.09385  1.0000
  H   H54       1.0  0.21784  0.13893  0.10074  1.0000
  H   H55       1.0  0.23614  0.16604  0.12195  1.0000
  H   H56       1.0  0.33818  0.18158  0.07221  1.0000
  H   H57       1.0  0.32346  0.17385  0.10152  1.0000
  H   H58       1.0  0.30313  0.15474  0.07601  1.0000
  H   H59       1.0  0.31477  0.25146  0.07250  1.0000
  H   H60       1.0  0.30521  0.25552  0.10290  1.0000
  H   H61       1.0  0.28714  0.26007  0.07769  1.0000
  H   H62       1.0  0.32439  0.22901  0.14404  1.0000
  H   H63       1.0  0.33374  0.23839  0.11369  1.0000
  H   H64       1.0  0.33769  0.21001  0.12814  1.0000
  S   S19       1.0  0.40446  0.45556  0.01643  1.0000
  C   C48       1.0  0.18202  0.02562  0.13897  1.0000
  H   H65       1.0  0.22738  0.27277  0.20316  1.0000
  H   H66       1.0  0.33383  0.48612  0.03041  1.0000
  S   S20       1.0  0.27612  0.08483  0.99479  1.0000
  H   H67       1.0  0.06292  0.06609  0.19938  1.0000
  H   H68       1.0  0.16156  0.17382  0.21633  1.0000
  C   C49       1.0  0.29466  0.39167  0.05613  1.0000
  H   H69       1.0  0.27871  0.46766  0.05922  1.0000
  C   C50       1.0  0.48259  0.39308  0.22724  1.0000
  H   H70       1.0  0.20599  0.06699  0.00834  1.0000
  C   C51       1.0  0.32197  0.43193  0.01475  1.0000
  H   H71       1.0  0.19845  0.01994  0.00531  1.0000
  H   H72       1.0  0.19874  0.21183  0.23336  1.0000
  C   C52       1.0  0.19896  0.23258  0.18901  1.0000
  C   C53       1.0  0.18878  0.00805  0.15771  1.0000
  H   H73       1.0  0.43482  0.25111  0.00627  1.0000
  C   C54       1.0  0.13924  0.02224  0.05632  1.0000
  C   C55       1.0  0.23128  0.03426  0.06214  1.0000
  H   H74       1.0  0.20131  0.08319  0.11938  1.0000
  H   H75       1.0  0.45614  0.28545  0.99536  1.0000
  H   H76       1.0  0.27997  0.43856  0.07486  1.0000
  H   H77       1.0  0.20521  0.00334  0.15029  1.0000
  C   C56       1.0  0.43668  0.35242  0.22507  1.0000
  C   C57       1.0  0.43850  0.26669  0.14865  1.0000
  H   H78       1.0  0.30825  0.29660  0.22326  1.0000
  H   H79       1.0  0.17034  0.03874  0.18435  1.0000
  C   C58       1.0  0.29101  0.27835  0.21441  1.0000
  C   C59       1.0  0.41258  0.27427  0.99553  1.0000
  H   H80       1.0  0.19797  0.09448  0.15617  1.0000
  H   H81       1.0  0.08984  0.05785  0.20740  1.0000
  C   C60       1.0  0.06760  0.05203  0.21145  1.0000
  C   C61       1.0  0.19852  0.07846  0.16863  1.0000
  H   H82       1.0  0.00569  0.03044  0.05794  1.0000
  H   H83       1.0  0.28746  0.45630  0.02198  1.0000
  H   H84       1.0  0.20256  0.04321  0.13412  1.0000
  C   C62       1.0  0.22818  0.25305  0.19899  1.0000
  C   C63       1.0  0.31678  0.42254  0.05761  1.0000
  H   H85       1.0  0.04580  0.00567  0.21533  1.0000
  H   H86       1.0  0.28729  0.28579  0.19667  1.0000
  N   N4        1.0  0.16121  0.03561  0.14621  1.0000
  C   C64       1.0  0.17007  0.05211  0.16900  1.0000
  H   H87       1.0  0.40066  0.47873  0.06263  1.0000
  S   S21       1.0  0.26186  0.19904  0.01648  1.0000
  H   H88       1.0  0.06267  0.11063  0.23368  1.0000
  H   H89       1.0  0.02900  0.06434  0.22573  1.0000
  H   H90       1.0  0.24139  0.13934  0.01352  1.0000
  H   H91       1.0  0.24295  0.25864  0.18377  1.0000
  H   H92       1.0  0.29687  0.38044  0.07234  1.0000
  C   C65       1.0  0.44773  0.29827  0.15009  1.0000
  H   H93       1.0  0.27138  0.42028  0.02734  1.0000
  H   H94       1.0  0.01867  0.08415  0.00916  1.0000
  H   H95       1.0  0.48488  0.35609  0.18411  1.0000
  H   H96       1.0  0.22621  0.20204  0.20496  1.0000
  C   C66       1.0  0.04917  0.02235  0.20205  1.0000
  H   H97       1.0  0.31489  0.42953  0.07570  1.0000
  C   C67       1.0  0.39649  0.44140  0.04586  1.0000
  H   H98       1.0  0.08552  0.11015  0.21024  1.0000
  C   C68       1.0  0.13364  0.01005  0.15076  1.0000
  C   C69       1.0  0.16193  0.03167  0.03692  1.0000
  S   S22       1.0  0.21271  0.01535  0.08784  1.0000
  H   H99       1.0  0.14925  0.06708  0.13312  1.0000
  H   H100      1.0  0.30564  0.41059  0.01022  1.0000
  H   H101      1.0  0.18199  0.22879  0.20179  1.0000
  H   H102      1.0  0.11817  0.01682  0.04868  1.0000
  H   H103      1.0  0.21602  0.07386  0.16421  1.0000
  H   H104      1.0  0.18236  0.03706  0.04610  1.0000
  H   H105      1.0  0.39110  0.40113  0.03483  1.0000
  H   H106      1.0  0.16402  0.05189  0.02994  1.0000
  H   H107      1.0  0.19749  0.01943  0.17460  1.0000
  Fe  Fe10      1.0  0.29024  0.18374  0.00078  1.0000
  H   H108      1.0  0.45653  0.26192  0.14922  1.0000
  N   N5        1.0  0.15689  0.01109  0.01719  1.0000
  H   H109      1.0  0.19773  0.21237  0.18374  1.0000
  C   C70       1.0  0.24550  0.21999  0.21187  1.0000
  H   H110      1.0  0.17652  0.08359  0.09782  1.0000
  C   C71       1.0  0.39539  0.45695  0.06521  1.0000
  H   H111      1.0  0.13973  0.03865  0.11357  1.0000
  C   C72       1.0  0.47364  0.31175  0.21607  1.0000
  H   H112      1.0  0.42829  0.30076  0.15132  1.0000
  H   H113      1.0  0.27295  0.38916  0.05592  1.0000
  H   H114      1.0  0.42724  0.25891  0.13132  1.0000
  H   H115      1.0  0.13028  0.04404  0.00530  1.0000
  H   H116      1.0  0.29798  0.38117  0.04054  1.0000
  C   C73       1.0  0.26469  0.26711  0.23016  1.0000
  H   H117      1.0  0.20297  0.08779  0.18677  1.0000
  C   C74       1.0  0.34209  0.48250  0.06771  1.0000
  C   C75       1.0  0.18181  0.06973  0.10955  1.0000
  C   C76       1.0  0.15670  0.05248  0.12604  1.0000
  C   C77       1.0  0.27376  0.44532  0.05795  1.0000
  C   C78       1.0  0.32437  0.45019  0.99234  1.0000
  C   C79       1.0  0.23635  0.02121  0.04276  1.0000
  H   H118      1.0  0.32277  0.48109  0.07556  1.0000
  C   C80       1.0  0.38723  0.44416  0.08797  1.0000
  H   H119      1.0  0.46462  0.35190  0.13190  1.0000
  N   N6        1.0  0.23893  0.24275  0.22020  1.0000
  H   H120      1.0  0.39197  0.25557  0.99732  1.0000
  H   H121      1.0  0.99740  0.04836  0.09415  1.0000
  H   H122      1.0  0.35124  0.47208  0.07976  1.0000
  C   C81       1.0  0.48123  0.35971  0.14602  1.0000
  H   H123      1.0  0.29879  0.26272  0.21201  1.0000
  H   H124      1.0  0.14435  0.03990  0.06859  1.0000
  H   H125      1.0  0.46087  0.30106  0.23202  1.0000
  Fe  Fe11      1.0  0.29754  0.13235  0.99190  1.0000
  N   N7        1.0  0.46824  0.31394  0.16989  1.0000
  C   C82       1.0  0.45570  0.29971  0.19334  1.0000
  H   H126      1.0  0.45133  0.27749  0.19343  1.0000
  C   C83       1.0  0.19280  0.05452  0.99320  1.0000
  H   H127      1.0  0.41642  0.28552  0.01277  1.0000
  C   C84       1.0  0.08283  0.11053  0.22986  1.0000
  C   C85       1.0  0.16396  0.11365  0.23190  1.0000
  H   H128      1.0  0.99496  0.00245  0.07942  1.0000
  H   H129      1.0  0.48033  0.33426  0.21823  1.0000
  C   C86       1.0  0.25765  0.20724  0.23101  1.0000
  H   H130      1.0  0.27177  0.20029  0.22226  1.0000
  H   H131      1.0  0.09813  0.02821  0.23295  1.0000
  H   H132      1.0  0.13538  0.99761  0.16625  1.0000
  C   C87       1.0  0.16754  0.14091  0.23394  1.0000
  C   C88       1.0  0.12256  0.02515  0.99418  1.0000
  H   H133      1.0  0.09979  0.13077  0.23619  1.0000
  H   H134      1.0  0.26041  0.28516  0.23314  1.0000
  C   C89       1.0  0.43635  0.26619  0.99169  1.0000
  S   S23       1.0  0.99430  0.48967  0.32285  1.0000
  Fe  Fe12      1.0  0.17839  0.07435  0.30105  1.0000
  S   S24       1.0  0.18179  0.08006  0.34098  1.0000
  S   S25       1.0  0.16879  0.03582  0.27931  1.0000
  Fe  Fe13      1.0  0.18177  0.13166  0.29123  1.0000
  S   S26       1.0  0.18456  0.14223  0.33038  1.0000
  H   H135      1.0  0.11890  0.02828  0.30785  1.0000
  Fe  Fe14      1.0  0.21497  0.12416  0.33344  1.0000
  S   S27       1.0  0.25838  0.14659  0.35126  1.0000
  Fe  Fe15      1.0  0.15134  0.09772  0.33512  1.0000
  S   S28       1.0  0.11276  0.08118  0.35809  1.0000
  S   S29       1.0  0.21434  0.11664  0.29363  1.0000
  S   S30       1.0  0.14580  0.08912  0.29589  1.0000
  H   H136      1.0  0.27449  0.05585  0.46032  1.0000
  H   H137      1.0  0.46195  0.28593  0.44614  1.0000
  S   S31       1.0  0.40488  0.29986  0.48094  1.0000
  H   H138      1.0  0.27246  0.09733  0.46578  1.0000
  C   C90       1.0  0.05587  0.05387  0.35078  1.0000
  H   H139      1.0  0.27062  0.22214  0.24487  1.0000
  N   N8        1.0  0.31272  0.26466  0.37094  1.0000
  H   H140      1.0  0.29846  0.10150  0.48697  1.0000
  S   S32       1.0  0.00076  0.05351  0.29976  1.0000
  C   C91       1.0  0.30986  0.15086  0.46472  1.0000
  C   C92       1.0  0.33575  0.25712  0.37792  1.0000
  S   S33       1.0  0.37237  0.24806  0.44299  1.0000
  C   C93       1.0  0.21734  0.23086  0.23959  1.0000
  C   C94       1.0  0.44219  0.34373  0.24763  1.0000
  S   S34       1.0  0.33869  0.28034  0.46747  1.0000
  Fe  Fe16      1.0  0.33373  0.23671  0.46464  1.0000
  S   S35       1.0  0.29061  0.20185  0.45463  1.0000
  Fe  Fe17      1.0  0.37858  0.29185  0.44747  1.0000
  S   S36       1.0  0.38745  0.31707  0.41320  1.0000
  H   H141      1.0  0.49094  0.32762  0.37033  1.0000
  H   H142      1.0  0.31978  0.11446  0.41973  1.0000
  C   C95       1.0  0.29178  0.25490  0.41369  1.0000
  C   C96       1.0  0.46027  0.35847  0.37733  1.0000
  C   C97       1.0  0.43170  0.34306  0.38278  1.0000
  C   C98       1.0  0.42323  0.33637  0.40666  1.0000
  C   C99       1.0  0.44333  0.34541  0.42508  1.0000
  H   H143      1.0  0.44197  0.27630  0.41881  1.0000
  H   H144      1.0  0.46676  0.36351  0.35889  1.0000
  H   H145      1.0  0.41623  0.33628  0.36846  1.0000
  H   H146      1.0  0.43693  0.34071  0.44352  1.0000
  C   C100      1.0  0.09718  0.03637  0.25081  1.0000
  C   C101      1.0  0.31030  0.12644  0.42847  1.0000
  C   C102      1.0  0.43836  0.21715  0.45279  1.0000
  C   C103      1.0  0.45332  0.20551  0.44079  1.0000
  H   H147      1.0  0.36276  0.24699  0.35538  1.0000
  H   H148      1.0  0.29387  0.27592  0.41736  1.0000
  H   H149      1.0  0.34735  0.13024  0.48044  1.0000
  H   H150      1.0  0.41785  0.21358  0.44639  1.0000
  H   H151      1.0  0.44415  0.19281  0.42516  1.0000
  H   H152      1.0  0.31905  0.26957  0.33222  1.0000
  H   H153      1.0  0.11591  0.05667  0.25353  1.0000
  H   H154      1.0  0.05769  0.09471  0.29247  1.0000
  C   C104      1.0  0.08167  0.07420  0.34211  1.0000
  C   C105      1.0  0.08233  0.08853  0.32076  1.0000
  C   C106      1.0  0.05727  0.08263  0.30827  1.0000
  H   H155      1.0  0.10204  0.10484  0.31435  1.0000
  C   C107      1.0  0.26655  0.16213  0.37994  1.0000
  C   C108      1.0  0.29488  0.17659  0.38709  1.0000
  C   C109      1.0  0.30250  0.18917  0.40974  1.0000
  C   C110      1.0  0.28184  0.18722  0.42562  1.0000
  C   C111      1.0  0.25349  0.17254  0.41859  1.0000
  C   C112      1.0  0.24586  0.16023  0.39579  1.0000
  H   H156      1.0  0.31102  0.17803  0.37499  1.0000
  H   H157      1.0  0.32437  0.20018  0.41497  1.0000
  H   H158      1.0  0.23731  0.17075  0.43081  1.0000
  H   H159      1.0  0.22396  0.14906  0.39057  1.0000
  H   H160      1.0  0.28541  0.26281  0.34122  1.0000
  C   C113      1.0  0.48159  0.27352  0.41792  1.0000
  H   H161      1.0  0.28112  0.22535  0.38567  1.0000
  H   H162      1.0  0.42664  0.32455  0.25563  1.0000
  H   H163      1.0  0.11682  0.03365  0.33896  1.0000
  C   C114      1.0  0.48032  0.36767  0.39582  1.0000
  H   H164      1.0  0.09875  0.02175  0.26436  1.0000
  H   H165      1.0  0.17778  0.02153  0.32806  1.0000
  C   C115      1.0  0.29203  0.22633  0.33884  1.0000
  H   H166      1.0  0.26755  0.09175  0.42368  1.0000
  C   C116      1.0  0.30271  0.25730  0.34538  1.0000
  H   H167      1.0  0.06879  0.04384  0.27320  1.0000
  C   C117      1.0  0.27953  0.11440  0.41970  1.0000
  H   H168      1.0  0.46657  0.25269  0.41103  1.0000
  H   H169      1.0  0.30202  0.07488  0.44023  1.0000
  C   C118      1.0  0.47179  0.36135  0.41967  1.0000
  H   H170      1.0  0.38050  0.27991  0.36981  1.0000
  H   H171      1.0  0.30988  0.25282  0.42149  1.0000
  C   C119      1.0  0.48023  0.21044  0.44877  1.0000
  C   C120      1.0  0.29451  0.10059  0.46729  1.0000
  H   H172      1.0  0.28757  0.14633  0.46196  1.0000
  H   H173      1.0  0.22559  0.22355  0.25522  1.0000
  C   C121      1.0  0.34445  0.31652  0.35859  1.0000
  H   H174      1.0  0.17048  0.10425  0.24643  1.0000
  C   C122      1.0  0.36779  0.16013  0.45196  1.0000
  C   C123      1.0  0.20694  0.25091  0.24957  1.0000
  C   C124      1.0  0.46785  0.35937  0.25980  1.0000
  C   C125      1.0  0.10439  0.02186  0.32321  1.0000
  H   H175      1.0  0.28789  0.22390  0.31923  1.0000
  H   H176      1.0  0.01130  0.03096  0.34425  1.0000
  C   C126      1.0  0.08592  0.08666  0.24316  1.0000
  H   H177      1.0  0.08771  0.02809  0.31918  1.0000
  H   H178      1.0  0.19010  0.23925  0.26271  1.0000
  H   H179      1.0  0.34795  0.33777  0.36348  1.0000
  H   H180      1.0  0.07578  0.01407  0.36151  1.0000
  H   H181      1.0  0.46757  0.30090  0.35127  1.0000
  H   H182      1.0  0.34481  0.26589  0.39571  1.0000
  H   H183      1.0  0.33828  0.31400  0.33940  1.0000
  C   C127      1.0  0.03101  0.04698  0.33763  1.0000
  C   C128      1.0  0.44982  0.23292  0.47338  1.0000
  H   H184      1.0  0.36493  0.31656  0.36148  1.0000
  H   H185      1.0  0.27053  0.26220  0.24822  1.0000
  S   S37       1.0  0.18113  0.15955  0.26061  1.0000
  H   H186      1.0  0.30762  0.21871  0.34318  1.0000
  H   H187      1.0  0.30328  0.29947  0.37360  1.0000
  H   H188      1.0  0.35935  0.27637  0.34385  1.0000
  C   C129      1.0  0.32173  0.29520  0.37509  1.0000
  H   H189      1.0  0.32224  0.17056  0.45451  1.0000
  C   C130      1.0  0.29573  0.07393  0.45911  1.0000
  H   H190      1.0  0.05508  0.04339  0.36768  1.0000
  H   H191      1.0  0.33031  0.30109  0.39360  1.0000
  H   H192      1.0  0.38834  0.16073  0.45649  1.0000
  H   H193      1.0  0.26917  0.25076  0.38057  1.0000
  H   H194      1.0  0.27911  0.11686  0.39989  1.0000
  C   C131      1.0  0.03165  0.06148  0.31641  1.0000
  H   H195      1.0  0.27287  0.23975  0.42343  1.0000
  C   C132      1.0  0.47627  0.30506  0.36982  1.0000
  H   H196      1.0  0.45829  0.29992  0.38169  1.0000
  H   H197      1.0  0.47597  0.26540  0.37082  1.0000
  N   N9        1.0  0.31472  0.12744  0.45533  1.0000
  H   H198      1.0  0.34794  0.11543  0.45267  1.0000
  H   H199      1.0  0.27185  0.21257  0.34761  1.0000
  C   C133      1.0  0.36060  0.26571  0.36055  1.0000
  C   C134      1.0  0.34414  0.13207  0.46083  1.0000
  C   C135      1.0  0.15623  0.00378  0.29499  1.0000
  C   C136      1.0  0.28772  0.24809  0.38673  1.0000
  C   C137      1.0  0.46363  0.28737  0.42629  1.0000
  H   H200      1.0  0.36706  0.16268  0.43224  1.0000
  H   H201      1.0  0.32698  0.23426  0.38068  1.0000
  Fe  Fe18      1.0  0.39540  0.25487  0.47825  1.0000
  C   C138      1.0  0.03557  0.05542  0.24135  1.0000
  H   H202      1.0  0.48727  0.36861  0.43400  1.0000
  H   H203      1.0  0.47191  0.30965  0.42171  1.0000
  H   H204      1.0  0.08631  0.09061  0.26270  1.0000
  H   H205      1.0  0.31054  0.06967  0.47061  1.0000
  H   H206      1.0  0.47181  0.35225  0.27704  1.0000
  H   H207      1.0  0.22388  0.26846  0.25931  1.0000
  C   C139      1.0  0.06939  0.03790  0.25425  1.0000
  H   H208      1.0  0.00715  0.49242  0.44695  1.0000
  H   H209      1.0  0.36756  0.17824  0.46086  1.0000
  C   C140      1.0  0.01111  0.02628  0.24657  1.0000
  H   H210      1.0  0.32148  0.14773  0.42037  1.0000
  C   C141      1.0  0.16385  0.00257  0.31891  1.0000
  H   H211      1.0  0.03618  0.06830  0.25692  1.0000
  H   H212      1.0  0.24053  0.18897  0.24004  1.0000
  H   H213      1.0  0.01346  0.01846  0.26461  1.0000
  H   H214      1.0  0.26859  0.12553  0.42732  1.0000
  C   C142      1.0  0.47673  0.23789  0.48126  1.0000
  H   H215      1.0  0.99794  0.48919  0.47733  1.0000
  H   H216      1.0  0.05267  0.01612  0.25295  1.0000
  H   H217      1.0  0.99730  0.46106  0.26986  1.0000
  C   C143      1.0  0.48825  0.38412  0.24964  1.0000
  H   H218      1.0  0.99890  0.43516  0.28903  1.0000
  H   H219      1.0  0.48974  0.23112  0.39653  1.0000
  H   H220      1.0  0.99123  0.02798  0.24691  1.0000
  H   H221      1.0  0.10729  0.08981  0.23917  1.0000
  H   H222      1.0  0.49077  0.26869  0.43434  1.0000
  S   S38       1.0  0.36552  0.30121  0.53894  1.0000
  Fe  Fe19      1.0  0.38001  0.44515  0.65822  1.0000
  S   S39       1.0  0.35052  0.43993  0.68774  1.0000
  H   H223      1.0  0.47417  0.28703  0.51642  1.0000
  Fe  Fe20      1.0  0.33496  0.40324  0.62565  1.0000
  S   S40       1.0  0.30067  0.39519  0.65239  1.0000
  S   S41       1.0  0.32998  0.38723  0.58712  1.0000
  Fe  Fe21      1.0  0.32174  0.44153  0.65898  1.0000
  S   S42       1.0  0.30266  0.47119  0.66347  1.0000
  Fe  Fe22      1.0  0.33181  0.39437  0.67974  1.0000
  S   S43       1.0  0.31890  0.36798  0.71337  1.0000
  S   S44       1.0  0.35283  0.44994  0.62961  1.0000
  S   S45       1.0  0.36448  0.39920  0.65280  1.0000
  H   H224      1.0  0.42195  0.26715  0.53729  1.0000
  H   H225      1.0  0.22435  0.49116  0.72107  1.0000
  H   H226      1.0  0.21292  0.43613  0.73845  1.0000
  N   N10       1.0  0.47862  0.28863  0.55534  1.0000
  H   H227      1.0  0.43369  0.40481  0.54353  1.0000
  C   C144      1.0  0.43214  0.41751  0.62340  1.0000
  C   C145      1.0  0.17859  0.43943  0.71804  1.0000
  C   C146      1.0  0.29104  0.46041  0.71172  1.0000
  C   C147      1.0  0.47178  0.44246  0.57140  1.0000
  H   H228      1.0  0.14327  0.42805  0.65314  1.0000
  H   H229      1.0  0.38672  0.33111  0.70553  1.0000
  H   H230      1.0  0.29364  0.44185  0.70934  1.0000
  H   H231      1.0  0.39411  0.48111  0.58881  1.0000
  H   H232      1.0  0.47767  0.26383  0.68277  1.0000
  C   C148      1.0  0.45574  0.29647  0.56098  1.0000
  C   C149      1.0  0.46640  0.31226  0.70551  1.0000
  H   H233      1.0  0.42789  0.39822  0.63382  1.0000
  C   C150      1.0  0.48733  0.24509  0.55523  1.0000
  H   H234      1.0  0.44123  0.30209  0.52488  1.0000
  H   H235      1.0  0.16606  0.46903  0.67927  1.0000
  H   H236      1.0  0.16150  0.44474  0.72276  1.0000
  C   C151      1.0  0.41143  0.39898  0.54661  1.0000
  C   C152      1.0  0.35398  0.32411  0.55193  1.0000
  C   C153      1.0  0.34317  0.33909  0.53821  1.0000
  C   C154      1.0  0.33550  0.35787  0.54936  1.0000
  C   C155      1.0  0.33846  0.36197  0.57432  1.0000
  C   C156      1.0  0.34896  0.34674  0.58806  1.0000
  C   C157      1.0  0.35675  0.32806  0.57691  1.0000
  H   H237      1.0  0.34088  0.33634  0.51901  1.0000
  H   H238      1.0  0.32732  0.36943  0.53852  1.0000
  H   H239      1.0  0.35105  0.34931  0.60728  1.0000
  H   H240      1.0  0.36492  0.31650  0.58775  1.0000
  H   H241      1.0  0.44571  0.45621  0.70793  1.0000
  H   H242      1.0  0.41953  0.41945  0.68255  1.0000
  C   C158      1.0  0.46632  0.25724  0.55668  1.0000
  C   C159      1.0  0.40381  0.47086  0.57791  1.0000
  H   H243      1.0  0.39159  0.24638  0.70986  1.0000
  H   H244      1.0  0.47902  0.29805  0.60640  1.0000
  H   H245      1.0  0.46035  0.46632  0.59560  1.0000
  N   N11       1.0  0.46237  0.28774  0.72145  1.0000
  H   H246      1.0  0.42415  0.42928  0.63418  1.0000
  H   H247      1.0  0.40145  0.37915  0.55698  1.0000
  H   H248      1.0  0.39447  0.39584  0.60211  1.0000
  H   H249      1.0  0.42496  0.31166  0.70478  1.0000
  C   C160      1.0  0.42491  0.44241  0.71549  1.0000
  H   H250      1.0  0.45423  0.24885  0.57345  1.0000
  C   C161      1.0  0.43281  0.28967  0.54152  1.0000
  N   N12       1.0  0.19569  0.45810  0.69781  1.0000
  H   H251      1.0  0.41172  0.45278  0.71027  1.0000
  H   H252      1.0  0.40081  0.39437  0.52876  1.0000
  C   C162      1.0  0.40814  0.25694  0.72367  1.0000
  H   H253      1.0  0.16761  0.41722  0.71286  1.0000
  H   H254      1.0  0.47561  0.22198  0.55675  1.0000
  C   C163      1.0  0.41342  0.41485  0.70164  1.0000
  S   S46       1.0  0.35610  0.23951  0.49993  1.0000
  C   C164      1.0  0.40689  0.42228  0.55826  1.0000
  H   H255      1.0  0.41330  0.43955  0.54478  1.0000
  H   H256      1.0  0.18969  0.46448  0.66003  1.0000
  H   H257      1.0  0.45079  0.24751  0.54190  1.0000
  C   C165      1.0  0.34086  0.35401  0.72414  1.0000
  C   C166      1.0  0.49002  0.29823  0.53055  1.0000
  Fe  Fe23      1.0  0.36437  0.28450  0.50109  1.0000
  C   C167      1.0  0.35707  0.34755  0.70854  1.0000
  H   H258      1.0  0.38484  0.43298  0.59873  1.0000
  H   H259      1.0  0.39018  0.40416  0.70199  1.0000
  H   H260      1.0  0.41663  0.29518  0.54818  1.0000
  H   H261      1.0  0.38371  0.41371  0.55987  1.0000
  H   H262      1.0  0.47991  0.45460  0.72719  1.0000
  H   H263      1.0  0.16096  0.41106  0.66811  1.0000
  H   H264      1.0  0.47490  0.44463  0.55170  1.0000
  C   C168      1.0  0.15335  0.42673  0.67039  1.0000
  S   S47       1.0  0.43092  0.24557  0.49066  1.0000
  H   H265      1.0  0.45521  0.42963  0.62169  1.0000
  H   H266      1.0  0.44465  0.28563  0.57762  1.0000
  H   H267      1.0  0.46406  0.30648  0.68627  1.0000
  H   H268      1.0  0.41734  0.45860  0.61031  1.0000
  H   H269      1.0  0.42150  0.40051  0.70865  1.0000
  H   H270      1.0  0.38967  0.46181  0.56222  1.0000
  N   N13       1.0  0.42112  0.43316  0.58215  1.0000
  H   H271      1.0  0.42437  0.39499  0.59086  1.0000
  C   C169      1.0  0.40652  0.44816  0.59348  1.0000
  C   C170      1.0  0.31653  0.15764  0.49154  1.0000
  H   H272      1.0  0.43904  0.24282  0.71968  1.0000
  C   C171      1.0  0.37467  0.33665  0.71767  1.0000
  C   C172      1.0  0.27742  0.48868  0.73694  1.0000
  C   C173      1.0  0.45153  0.45390  0.57903  1.0000
  H   H273      1.0  0.20686  0.41916  0.66369  1.0000
  H   H274      1.0  0.46444  0.31904  0.56509  1.0000
  C   C174      1.0  0.41722  0.40925  0.59878  1.0000
  H   H275      1.0  0.33891  0.16441  0.49610  1.0000
  H   H276      1.0  0.35560  0.35044  0.68943  1.0000
  C   C175      1.0  0.17697  0.45597  0.67652  1.0000
  H   H277      1.0  0.46944  0.41770  0.72525  1.0000
  H   H278      1.0  0.46527  0.42055  0.57677  1.0000
  H   H279      1.0  0.42439  0.48749  0.57205  1.0000
  H   H280      1.0  0.13665  0.41922  0.68410  1.0000
  H   H281      1.0  0.23010  0.41808  0.68693  1.0000
  S   S48       1.0  0.42559  0.47587  0.66198  1.0000
  H   H282      1.0  0.19223  0.49220  0.71498  1.0000
  H   H283      1.0  0.43487  0.26048  0.69393  1.0000
  C   C176      1.0  0.29532  0.47879  0.69240  1.0000
  H   H284      1.0  0.45361  0.46995  0.56529  1.0000
  H   H285      1.0  0.45353  0.34412  0.69710  1.0000
  C   C177      1.0  0.21927  0.45196  0.69069  1.0000
  C   C178      1.0  0.44708  0.32582  0.70940  1.0000
  H   H286      1.0  0.30288  0.14008  0.50337  1.0000
  H   H287      1.0  0.23095  0.46542  0.67530  1.0000
  H   H288      1.0  0.23548  0.45783  0.70499  1.0000
  H   H289      1.0  0.19451  0.40562  0.69352  1.0000
  C   C179      1.0  0.43676  0.26158  0.71382  1.0000
  C   C180      1.0  0.21173  0.42198  0.68319  1.0000
  H   H290      1.0  0.31227  0.17539  0.49580  1.0000
  H   H291      1.0  0.44922  0.33412  0.72774  1.0000
  C   C181      1.0  0.20851  0.48777  0.70666  1.0000
  C   C182      1.0  0.28198  0.46527  0.73382  1.0000
  H   H292      1.0  0.48580  0.25017  0.49704  1.0000
  H   H293      1.0  0.48904  0.27053  0.60214  1.0000
  H   H294      1.0  0.40671  0.27594  0.72851  1.0000
  C   C183      1.0  0.48792  0.28311  0.71863  1.0000
  H   H295      1.0  0.48550  0.26396  0.72843  1.0000
  H   H296      1.0  0.46625  0.49524  0.72695  1.0000
  H   H297      1.0  0.37111  0.47729  0.73061  1.0000
  H   H298      1.0  0.48815  0.32930  0.70753  1.0000
  C   C184      1.0  0.47166  0.43472  0.73735  1.0000
  C   C185      1.0  0.35985  0.48837  0.73782  1.0000
  H   H299      1.0  0.42088  0.20497  0.93842  1.0000
  H   H300      1.0  0.48830  0.43684  0.75056  1.0000
  C   C186      1.0  0.41767  0.39336  0.89752  1.0000
  H   H301      1.0  0.39745  0.39197  0.90337  1.0000
  H   H302      1.0  0.28477  0.22283  0.90754  1.0000
  H   H303      1.0  0.48324  0.27472  0.76757  1.0000
  H   H304      1.0  0.17349  0.01182  0.98179  1.0000
  H   H305      1.0  0.18071  0.42425  0.75409  1.0000
  H   H306      1.0  0.24880  0.16220  0.92498  1.0000
  Fe  Fe24      1.0  0.42266  0.33797  0.78698  1.0000
  S   S49       1.0  0.41094  0.35486  0.81882  1.0000
  C   C187      1.0  0.27272  0.20799  0.92217  1.0000
  Fe  Fe25      1.0  0.45363  0.39157  0.81492  1.0000
  S   S50       1.0  0.45209  0.43217  0.82226  1.0000
  Fe  Fe26      1.0  0.43256  0.33498  0.84110  1.0000
  S   S51       1.0  0.41729  0.31937  0.87920  1.0000
  S   S52       1.0  0.46343  0.37626  0.78091  1.0000
  S   S53       1.0  0.44063  0.31474  0.80929  1.0000
  H   H307      1.0  0.25835  0.19642  0.96648  1.0000
  S   S54       1.0  0.27939  0.15536  0.96928  1.0000
  Fe  Fe27      1.0  0.32363  0.18390  0.95753  1.0000
  S   S55       1.0  0.33409  0.19740  0.91845  1.0000
  C   C188      1.0  0.25774  0.17877  0.91106  1.0000
  H   H308      1.0  0.32435  0.49507  0.76967  1.0000
  C   C189      1.0  0.39305  0.28542  0.88924  1.0000
  C   C190      1.0  0.38263  0.26224  0.87426  1.0000
  C   C191      1.0  0.36440  0.23551  0.88344  1.0000
  C   C192      1.0  0.35658  0.23159  0.90767  1.0000
  C   C193      1.0  0.36681  0.25482  0.92259  1.0000
  C   C194      1.0  0.38476  0.28156  0.91335  1.0000
  H   H309      1.0  0.38879  0.26486  0.85567  1.0000
  H   H310      1.0  0.35659  0.21771  0.87172  1.0000
  H   H311      1.0  0.36098  0.25221  0.94123  1.0000
  H   H312      1.0  0.39257  0.29940  0.92503  1.0000
  H   H313      1.0  0.45201  0.25324  0.92031  1.0000
  H   H314      1.0  0.46196  0.49179  0.89090  1.0000
  H   H315      1.0  0.42550  0.42169  0.86754  1.0000
  H   H316      1.0  0.27769  0.45034  0.74837  1.0000
  H   H317      1.0  0.21654  0.15786  0.96730  1.0000
  H   H318      1.0  0.34017  0.47225  0.74577  1.0000
  C   C195      1.0  0.29907  0.25334  0.95777  1.0000
  C   C196      1.0  0.41811  0.44870  0.90748  1.0000
  S   S56       1.0  0.26290  0.49189  0.76415  1.0000
  C   C197      1.0  0.45406  0.27406  0.92425  1.0000
  N   N14       1.0  0.25469  0.21827  0.93486  1.0000
  C   C198      1.0  0.27340  0.24822  0.94175  1.0000
  C   C199      1.0  0.23262  0.21843  0.91775  1.0000
  H   H319      1.0  0.21051  0.16441  0.93697  1.0000
  C   C200      1.0  0.24254  0.20140  0.95742  1.0000
  H   H320      1.0  0.47641  0.28976  0.92259  1.0000
  C   C201      1.0  0.21402  0.23073  0.92766  1.0000
  S   S57       1.0  0.47500  0.37273  0.83868  1.0000
  H   H321      1.0  0.37837  0.44734  0.89666  1.0000
  H   H322      1.0  0.28145  0.26173  0.92544  1.0000
  H   H323      1.0  0.26150  0.25686  0.95184  1.0000
  H   H324      1.0  0.21818  0.19729  0.91137  1.0000
  H   H325      1.0  0.24264  0.23045  0.90114  1.0000
  S   S58       1.0  0.33258  0.21415  0.98732  1.0000
  H   H326      1.0  0.44941  0.43081  0.77019  1.0000
  H   H327      1.0  0.43201  0.40327  0.74979  1.0000
  H   H328      1.0  0.23792  0.21405  0.97055  1.0000
  C   C202      1.0  0.43503  0.46782  0.75343  1.0000
  H   H329      1.0  0.45540  0.41982  0.87918  1.0000
  H   H330      1.0  0.44813  0.47036  0.86562  1.0000
  H   H331      1.0  0.19571  0.22543  0.91543  1.0000
  H   H332      1.0  0.20578  0.22226  0.94567  1.0000
  H   H333      1.0  0.22551  0.25386  0.92831  1.0000
  C   C203      1.0  0.44398  0.42646  0.75089  1.0000
  H   H334      1.0  0.19696  0.17621  0.96127  1.0000
  N   N15       1.0  0.42576  0.43960  0.74238  1.0000
  C   C204      1.0  0.21518  0.17368  0.95495  1.0000
  H   H335      1.0  0.42388  0.46917  0.91597  1.0000
  H   H336      1.0  0.45743  0.29775  0.95560  1.0000
  H   H337      1.0  0.06924  0.47244  0.79048  1.0000
  C   C205      1.0  0.40912  0.22937  0.96340  1.0000
  S   S59       1.0  0.39819  0.31853  0.75341  1.0000
  H   H338      1.0  0.42876  0.38934  0.91292  1.0000
  C   C206      1.0  0.45984  0.24545  0.96869  1.0000
  C   C207      1.0  0.36080  0.33978  0.75807  1.0000
  H   H339      1.0  0.24175  0.17688  0.89738  1.0000
  H   H340      1.0  0.40480  0.40779  0.78585  1.0000
  N   N16       1.0  0.43710  0.25457  0.96742  1.0000
  C   C208      1.0  0.43627  0.42125  0.88466  1.0000
  C   C209      1.0  0.48961  0.26865  0.97441  1.0000
  H   H341      1.0  0.40762  0.43290  0.92189  1.0000
  C   C210      1.0  0.47289  0.47367  0.93588  1.0000
  H   H342      1.0  0.45470  0.22868  0.98259  1.0000
  S   S60       1.0  0.34104  0.15825  0.97728  1.0000
  H   H343      1.0  0.44284  0.29767  0.75134  1.0000
  H   H344      1.0  0.38664  0.42442  0.87975  1.0000
  H   H345      1.0  0.43577  0.46633  0.77328  1.0000
  H   H346      1.0  0.40539  0.22555  0.92412  1.0000
  H   H347      1.0  0.39473  0.43568  0.78689  1.0000
  C   C211      1.0  0.37670  0.33296  0.74244  1.0000
  H   H348      1.0  0.33045  0.44162  0.97683  1.0000
  H   H349      1.0  0.29306  0.24046  0.97442  1.0000
  H   H350      1.0  0.47935  0.44376  0.91481  1.0000
  H   H351      1.0  0.45679  0.27795  0.78379  1.0000
  H   H352      1.0  0.02698  0.47990  0.84447  1.0000
  H   H353      1.0  0.36201  0.33658  0.77717  1.0000
  H   H354      1.0  0.41965  0.47585  0.74900  1.0000
  H   H355      1.0  0.42271  0.27853  0.94482  1.0000
  H   H356      1.0  0.44892  0.42959  0.93259  1.0000
  H   H357      1.0  0.32966  0.35438  0.76094  1.0000
  H   H358      1.0  0.40435  0.46179  0.87407  1.0000
  H   H359      1.0  0.03775  0.45379  0.80708  1.0000
  H   H360      1.0  0.28867  0.20706  0.93468  1.0000
  H   H361      1.0  0.41256  0.37606  0.88475  1.0000
  H   H362      1.0  0.03665  0.46671  0.77696  1.0000
  C   C212      1.0  0.46962  0.48774  0.81488  1.0000
  C   C213      1.0  0.00712  0.49491  0.78978  1.0000
  H   H363      1.0  0.20708  0.05948  0.97770  1.0000
  C   C214      1.0  0.44231  0.27691  0.94863  1.0000
  Fe  Fe28      1.0  0.48121  0.35403  0.80473  1.0000
  C   C215      1.0  0.48956  0.47746  0.87551  1.0000
  H   H364      1.0  0.36934  0.40086  0.78071  1.0000
  H   H365      1.0  0.30952  0.27552  0.96334  1.0000
  N   N17       1.0  0.44392  0.44737  0.89880  1.0000
  H   H366      1.0  0.41151  0.28832  0.98122  1.0000
  H   H367      1.0  0.27359  0.17476  0.90164  1.0000
  H   H368      1.0  0.45069  0.48418  0.82406  1.0000
  C   C216      1.0  0.39603  0.42118  0.75026  1.0000
  C   C217      1.0  0.39146  0.41647  0.77754  1.0000
  H   H369      1.0  0.44278  0.27915  0.90953  1.0000
  H   H370      1.0  0.48577  0.49306  0.92563  1.0000
  C   C218      1.0  0.39585  0.44527  0.88811  1.0000
  H   H371      1.0  0.00158  0.45890  0.82345  1.0000
  H   H372      1.0  0.47949  0.31513  0.75171  1.0000
  C   C219      1.0  0.46138  0.44729  0.92027  1.0000
  H   H373      1.0  0.45581  0.47588  0.94498  1.0000
  C   C220      1.0  0.40544  0.21310  0.94015  1.0000
  H   H374      1.0  0.20221  0.46075  0.75059  1.0000
  C   C221      1.0  0.04844  0.47129  0.79420  1.0000
  H   H375      1.0  0.44640  0.25159  0.76147  1.0000
  H   H376      1.0  0.40448  0.21420  0.97860  1.0000
  H   H377      1.0  0.34536  0.49286  0.79297  1.0000
  C   C222      1.0  0.46144  0.29469  0.74738  1.0000
  H   H378      1.0  0.46138  0.23572  0.95191  1.0000
  C   C223      1.0  0.01198  0.48046  0.83066  1.0000
  C   C224      1.0  0.46193  0.27322  0.76584  1.0000
  C   C225      1.0  0.45989  0.47230  0.88268  1.0000
  C   C226      1.0  0.46412  0.49092  0.74640  1.0000
  H   H379      1.0  0.48099  0.48614  0.75314  1.0000
  H   H380      1.0  0.31496  0.24989  0.94797  1.0000
  H   H381      1.0  0.17681  0.06140  0.98847  1.0000
  H   H382      1.0  0.48936  0.45943  0.86618  1.0000
  H   H383      1.0  0.99758  0.17081  0.92770  1.0000
  H   H384      1.0  0.38450  0.19453  0.94029  1.0000
  H   H385      1.0  0.48659  0.47180  0.95025  1.0000
  H   H386      1.0  0.39183  0.23530  0.96293  1.0000
  C   C227      1.0  0.47589  0.46550  0.81145  1.0000
  H   H387      1.0  0.38151  0.42930  0.74320  1.0000
  H   H388      1.0  0.13118  0.03103  0.97584  1.0000
  C   C228      1.0  0.34240  0.34967  0.74887  1.0000
  H   H389      1.0  0.38819  0.40002  0.74270  1.0000
  H   H390      1.0  0.99795  0.47247  0.78501  1.0000
  H   H391      1.0  0.30417  0.45008  0.98748  1.0000
  S   S61       1.0  0.39282  0.49643  0.96615  1.0000
  C   C229      1.0  0.19492  0.44049  0.74141  1.0000
  H   H392      1.0  0.40211  0.24243  0.73936  1.0000
  C   C230      1.0  0.22652  0.95709  0.21972  1.0000
  H   H393      1.0  0.06750  0.79198  0.06423  1.0000
  S   S62       1.0  0.23583  0.68481  0.03641  1.0000
  H   H394      1.0  0.45595  0.68908  0.05137  1.0000
  S   S63       1.0  0.30229  0.59900  0.03554  1.0000
  C   C231      1.0  0.03114  0.90745  0.06310  1.0000
  H   H395      1.0  0.08462  0.73443  0.05813  1.0000
  S   S64       1.0  0.30472  0.67192  0.02795  1.0000
  Fe  Fe29      1.0  0.26111  0.66577  0.01853  1.0000
  H   H396      1.0  0.06224  0.76076  0.07947  1.0000
  S   S65       1.0  0.39745  0.52835  0.01709  1.0000
  Fe  Fe30      1.0  0.31487  0.68324  0.98918  1.0000
  H   H397      1.0  0.14018  0.59820  0.10689  1.0000
  H   H398      1.0  0.12652  0.78194  0.04256  1.0000
  H   H399      1.0  0.36970  0.74712  0.01634  1.0000
  H   H400      1.0  0.14584  0.90456  0.20859  1.0000
  C   C232      1.0  0.13460  0.65128  0.05095  1.0000
  S   S66       1.0  0.46976  0.77494  0.02756  1.0000
  H   H401      1.0  0.04469  0.96806  0.01482  1.0000
  H   H402      1.0  0.11700  0.60495  0.12469  1.0000
  Fe  Fe31      1.0  0.10169  0.66517  0.18809  1.0000
  S   S67       1.0  0.10762  0.64318  0.15646  1.0000
  S   S68       1.0  0.08473  0.65031  0.22604  1.0000
  Fe  Fe32      1.0  0.12476  0.72156  0.16057  1.0000
  S   S69       1.0  0.13247  0.70416  0.12677  1.0000
  S   S70       1.0  0.12485  0.76325  0.16684  1.0000
  Fe  Fe33      1.0  0.09090  0.66739  0.13402  1.0000
  S   S71       1.0  0.06374  0.64801  0.10166  1.0000
  Fe  Fe34      1.0  0.14918  0.68117  0.15089  1.0000
  S   S72       1.0  0.18561  0.67236  0.14140  1.0000
  S   S73       1.0  0.08142  0.68627  0.16577  1.0000
  S   S74       1.0  0.14496  0.70163  0.18463  1.0000
  Fe  Fe35      1.0  0.17351  0.90792  0.10466  1.0000
  S   S75       1.0  0.12684  0.89192  0.10584  1.0000
  S   S76       1.0  0.19285  0.87877  0.11153  1.0000
  Fe  Fe36      1.0  0.18536  0.96832  0.09238  1.0000
  S   S77       1.0  0.13942  0.95631  0.09339  1.0000
  C   C233      1.0  0.05734  0.76098  0.19585  1.0000
  Fe  Fe37      1.0  0.13752  0.93106  0.12628  1.0000
  S   S78       1.0  0.11595  0.93572  0.15906  1.0000
  Fe  Fe38      1.0  0.13329  0.91863  0.07286  1.0000
  S   S79       1.0  0.10274  0.90609  0.04172  1.0000
  S   S80       1.0  0.18395  0.94563  0.12722  1.0000
  S   S81       1.0  0.17936  0.93192  0.06968  1.0000
  H   H403      1.0  0.05411  0.91532  0.06048  1.0000
  C   C234      1.0  0.10307  0.87942  0.02418  1.0000
  C   C235      1.0  0.12506  0.87224  0.02588  1.0000
  N   N18       1.0  0.08478  0.75732  0.23356  1.0000
  H   H404      1.0  0.09486  0.65315  0.05777  1.0000
  N   N19       1.0  0.12913  0.62440  0.06394  1.0000
  C   C236      1.0  0.08057  0.86476  0.00854  1.0000
  H   H405      1.0  0.14283  0.88375  0.03756  1.0000
  C   C237      1.0  0.01547  0.87379  0.03059  1.0000
  H   H406      1.0  0.10323  0.57967  0.05935  1.0000
  C   C238      1.0  0.07885  0.84177  0.99601  1.0000
  C   C239      1.0  0.16879  0.91360  0.21121  1.0000
  C   C240      1.0  0.10561  0.77930  0.04780  1.0000
  C   C241      1.0  0.08468  0.74853  0.04338  1.0000
  C   C242      1.0  0.14496  0.79557  0.15221  1.0000
  C   C243      1.0  0.16902  0.80089  0.13931  1.0000
  C   C244      1.0  0.18381  0.82669  0.12730  1.0000
  C   C245      1.0  0.17446  0.84715  0.12779  1.0000
  C   C246      1.0  0.15052  0.84188  0.14087  1.0000
  C   C247      1.0  0.13603  0.81631  0.15321  1.0000
  H   H407      1.0  0.17622  0.78516  0.13858  1.0000
  H   H408      1.0  0.20240  0.83069  0.11733  1.0000
  H   H409      1.0  0.14325  0.85753  0.14157  1.0000
  H   H410      1.0  0.11751  0.81242  0.16322  1.0000
  C   C248      1.0  0.04873  0.66863  0.09002  1.0000
  C   C249      1.0  0.02759  0.68237  0.05668  1.0000
  C   C250      1.0  0.04008  0.66622  0.06593  1.0000
  H   H411      1.0  0.02083  0.68042  0.03811  1.0000
  H   H412      1.0  0.04293  0.65179  0.05448  1.0000
  H   H413      1.0  0.45904  0.71227  0.02740  1.0000
  C   C251      1.0  0.05020  0.59301  0.22215  1.0000
  H   H414      1.0  0.13008  0.74892  0.07116  1.0000
  H   H415      1.0  0.12378  0.78785  0.10749  1.0000
  H   H416      1.0  0.23535  0.94509  0.21011  1.0000
  H   H417      1.0  0.05956  0.59444  0.20485  1.0000
  H   H418      1.0  0.02237  0.91584  0.16974  1.0000
  S   S82       1.0  0.45405  0.53233  0.99172  1.0000
  H   H419      1.0  0.04990  0.78627  0.10645  1.0000
  H   H420      1.0  0.17045  0.98766  0.16139  1.0000
  H   H421      1.0  0.19371  0.98458  0.22553  1.0000
  H   H422      1.0  0.10755  0.59947  0.03325  1.0000
  C   C252      1.0  0.15437  0.83224  0.06509  1.0000
  H   H423      1.0  0.15713  0.78401  0.07591  1.0000
  C   C253      1.0  0.07637  0.78357  0.07865  1.0000
  C   C254      1.0  0.32697  0.56521  0.02806  1.0000
  Fe  Fe39      1.0  0.43787  0.56227  0.00266  1.0000
  H   H424      1.0  0.05146  0.68913  0.12335  1.0000
  H   H425      1.0  0.07201  0.60594  0.07276  1.0000
  H   H426      1.0  0.33218  0.56768  0.04696  1.0000
  H   H427      1.0  0.09733  0.84202  0.18732  1.0000
  C   C255      1.0  0.15648  0.96329  0.01125  1.0000
  N   N20       1.0  0.01557  0.90017  0.03930  1.0000
  H   H428      1.0  0.15639  0.82540  0.04702  1.0000
  C   C256      1.0  0.13850  0.76657  0.08379  1.0000
  C   C257      1.0  0.41327  0.75755  0.02268  1.0000
  H   H429      1.0  0.03601  0.87410  0.03476  1.0000
  H   H430      1.0  0.41569  0.77108  0.03754  1.0000
  C   C258      1.0  0.11573  0.77478  0.09135  1.0000
  C   C259      1.0  0.22421  0.68264  0.06634  1.0000
  C   C260      1.0  0.20852  0.69664  0.07202  1.0000
  C   C261      1.0  0.19661  0.69371  0.09484  1.0000
  C   C262      1.0  0.20082  0.67722  0.11255  1.0000
  C   C263      1.0  0.21729  0.66392  0.10715  1.0000
  C   C264      1.0  0.22879  0.66643  0.08413  1.0000
  H   H431      1.0  0.20516  0.70950  0.05849  1.0000
  H   H432      1.0  0.18433  0.70436  0.09879  1.0000
  H   H433      1.0  0.22085  0.65126  0.12075  1.0000
  H   H434      1.0  0.24090  0.65562  0.08008  1.0000
  C   C265      1.0  0.09666  0.86120  0.19159  1.0000
  C   C266      1.0  0.10425  0.88256  0.17420  1.0000
  C   C267      1.0  0.10412  0.90769  0.17973  1.0000
  C   C268      1.0  0.09575  0.91112  0.20257  1.0000
  H   H435      1.0  0.16367  0.85537  0.06409  1.0000
  H   H436      1.0  0.07099  0.61008  0.04060  1.0000
  H   H437      1.0  0.11069  0.87972  0.15668  1.0000
  H   H438      1.0  0.09572  0.93056  0.20696  1.0000
  C   C269      1.0  0.07267  0.79507  0.10272  1.0000
  C   C270      1.0  0.12544  0.62683  0.09039  1.0000
  H   H439      1.0  0.10045  0.79211  0.03463  1.0000
  C   C271      1.0  0.15721  0.98557  0.02865  1.0000
  H   H440      1.0  0.21641  0.96539  0.20666  1.0000
  H   H441      1.0  0.14585  0.75933  0.09995  1.0000
  H   H442      1.0  0.48211  0.81763  0.10333  1.0000
  C   C272      1.0  0.16580  0.62192  0.03560  1.0000
  H   H443      1.0  0.15022  0.60607  0.02356  1.0000
  C   C273      1.0  0.10452  0.59990  0.05286  1.0000
  N   N21       1.0  0.40786  0.64209  0.02844  1.0000
  C   C274      1.0  0.41962  0.63313  0.04990  1.0000
  N   N22       1.0  0.99701  0.87393  0.22142  1.0000
  C   C275      1.0  0.43299  0.73689  0.99568  1.0000
  C   C276      1.0  0.38272  0.64526  0.03637  1.0000
  C   C277      1.0  0.40095  0.60376  0.06036  1.0000
  C   C278      1.0  0.44381  0.69315  0.03687  1.0000
  C   C279      1.0  0.03173  0.70269  0.09577  1.0000
  H   H444      1.0  0.99967  0.85534  0.04041  1.0000
  H   H445      1.0  0.13645  0.95339  0.00099  1.0000
  H   H446      1.0  0.42402  0.64772  0.06505  1.0000
  C   C280      1.0  0.31161  0.57799  0.01774  1.0000
  H   H447      1.0  0.05338  0.92695  0.02025  1.0000
  H   H448      1.0  0.16739  0.82764  0.07829  1.0000
  H   H449      1.0  0.05907  0.57630  0.05479  1.0000
  H   H450      1.0  0.36416  0.62444  0.03822  1.0000
  H   H451      1.0  0.38656  0.65445  0.05459  1.0000
  H   H452      1.0  0.37930  0.60034  0.06374  1.0000
  H   H453      1.0  0.40055  0.58718  0.04862  1.0000
  H   H454      1.0  0.41005  0.60138  0.07779  1.0000
  H   H455      1.0  0.17619  0.99165  0.04031  1.0000
  H   H456      1.0  0.14400  0.64517  0.09784  1.0000
  S   S83       1.0  0.02721  0.77688  0.01681  1.0000
  H   H457      1.0  0.12390  0.67494  0.07708  1.0000
  C   C281      1.0  0.12386  0.82063  0.07348  1.0000
  C   C282      1.0  0.05802  0.61717  0.23553  1.0000
  C   C283      1.0  0.12397  0.84991  0.01246  1.0000
  C   C284      1.0  0.30430  0.57412  0.99342  1.0000
  H   H458      1.0  0.12262  0.68460  0.04660  1.0000
  H   H459      1.0  0.08110  0.81811  0.10197  1.0000
  H   H460      1.0  0.08036  0.73722  0.19923  1.0000
  C   C285      1.0  0.10039  0.83409  0.99813  1.0000
  H   H461      1.0  0.02850  0.86216  0.20954  1.0000
  C   C286      1.0  0.03333  0.95245  0.02907  1.0000
  Fe  Fe40      1.0  0.99162  0.76561  0.99089  1.0000
  H   H462      1.0  0.03376  0.89206  0.09897  1.0000
  H   H463      1.0  0.45038  0.73375  0.98994  1.0000
  C   C287      1.0  0.37371  0.66376  0.02051  1.0000
  S   S84       1.0  0.00640  0.71980  0.06125  1.0000
  H   H464      1.0  0.09792  0.75508  0.09795  1.0000
  H   H465      1.0  0.02778  0.86701  0.07638  1.0000
  H   H466      1.0  0.44881  0.66530  0.01269  1.0000
  C   C288      1.0  0.39969  0.61974  0.00978  1.0000
  C   C289      1.0  0.02528  0.90478  0.18576  1.0000
  C   C290      1.0  0.03153  0.92407  0.02221  1.0000
  H   H467      1.0  0.02494  0.54827  0.22092  1.0000
  C   C291      1.0  0.01011  0.86733  0.00361  1.0000
  H   H468      1.0  0.42471  0.67695  0.00285  1.0000
  C   C292      1.0  0.08850  0.88988  0.22005  1.0000
  H   H469      1.0  0.04694  0.77053  0.20666  1.0000
  H   H470      1.0  0.01248  0.81755  0.23032  1.0000
  C   C293      1.0  0.02227  0.88355  0.08189  1.0000
  C   C294      1.0  0.00646  0.85224  0.21585  1.0000
  H   H471      1.0  0.18451  0.61810  0.03635  1.0000
  H   H472      1.0  0.00711  0.92866  0.23072  1.0000
  H   H473      1.0  0.13896  0.97449  0.04066  1.0000
  H   H474      1.0  0.09007  0.74155  0.02655  1.0000
  H   H475      1.0  0.38000  0.68424  0.02906  1.0000
  C   C295      1.0  0.03062  0.56682  0.23137  1.0000
  C   C296      1.0  0.48404  0.82142  0.08372  1.0000
  H   H476      1.0  0.04908  0.72386  0.21587  1.0000
  H   H477      1.0  0.07463  0.77739  0.18539  1.0000
  H   H478      1.0  0.99356  0.83866  0.20094  1.0000
  H   H479      1.0  0.12155  0.78220  0.21249  1.0000
  H   H480      1.0  0.12638  0.98793  0.98984  1.0000
  H   H481      1.0  0.06413  0.87079  0.00635  1.0000
  H   H482      1.0  0.41785  0.61592  0.00570  1.0000
  H   H483      1.0  0.04174  0.74717  0.18253  1.0000
  H   H484      1.0  0.17308  0.64307  0.02759  1.0000
  C   C297      1.0  0.48022  0.63330  0.00990  1.0000
  H   H485      1.0  0.15694  0.66695  0.05317  1.0000
  C   C298      1.0  0.06801  0.74358  0.21125  1.0000
  C   C299      1.0  0.99667  0.88840  0.19809  1.0000
  H   H486      1.0  0.38319  0.59957  0.01660  1.0000
  H   H487      1.0  0.38107  0.66717  0.00188  1.0000
  H   H488      1.0  0.03370  0.89088  0.17913  1.0000
  C   C300      1.0  0.08920  0.86498  0.21467  1.0000
  C   C301      1.0  0.15473  0.61981  0.06131  1.0000
  H   H489      1.0  0.13119  0.64789  0.03129  1.0000
  H   H490      1.0  0.15082  0.59888  0.06830  1.0000
  H   H491      1.0  0.14092  0.84435  0.01375  1.0000
  H   H492      1.0  0.06319  0.74628  0.04102  1.0000
  H   H493      1.0  0.06490  0.69605  0.23435  1.0000
  C   C302      1.0  0.43644  0.75476  0.01465  1.0000
  H   H494      1.0  0.34785  0.53991  0.02199  1.0000
  C   C303      1.0  0.38437  0.72750  0.99082  1.0000
  H   H495      1.0  0.10021  0.79880  0.21771  1.0000
  H   H496      1.0  0.17745  0.93003  0.19717  1.0000
  H   H497      1.0  0.42758  0.69784  0.04462  1.0000
  C   C304      1.0  0.07530  0.59846  0.05541  1.0000
  N   N23       1.0  0.10596  0.78937  0.07284  1.0000
  C   C305      1.0  0.38723  0.74391  0.01077  1.0000
  H   H498      1.0  0.10269  0.58200  0.10000  1.0000
  H   H499      1.0  0.12540  0.82860  0.09196  1.0000
  H   H500      1.0  0.11388  0.83117  0.06240  1.0000
  C   C306      1.0  0.17718  0.89078  0.20464  1.0000
  H   H501      1.0  0.08244  0.78902  0.11795  1.0000
  S   S85       1.0  0.46326  0.60071  0.02475  1.0000
  C   C307      1.0  0.33586  0.54951  0.01394  1.0000
  H   H502      1.0  0.17488  0.88759  0.18492  1.0000
  H   H503      1.0  0.17245  0.63504  0.07228  1.0000
  H   H504      1.0  0.02878  0.92459  0.07191  1.0000
  C   C308      1.0  0.04497  0.68725  0.10478  1.0000
  C   C309      1.0  0.12108  0.60126  0.10601  1.0000
  Fe  Fe41      1.0  0.28888  0.62772  0.01523  1.0000
  H   H505      1.0  0.16294  0.87042  0.21304  1.0000
  S   S86       1.0  0.24444  0.62057  0.00846  1.0000
  H   H506      1.0  0.03945  0.90064  0.23437  1.0000
  Fe  Fe42      1.0  0.41187  0.49841  0.00278  1.0000
  Fe  Fe43      1.0  0.01089  0.73100  0.02205  1.0000
  H   H507      1.0  0.10762  0.63117  0.09406  1.0000
  H   H508      1.0  0.99965  0.87408  0.08585  1.0000
  H   H509      1.0  0.04526  0.96050  0.04600  1.0000
  C   C310      1.0  0.02306  0.70028  0.07175  1.0000
  H   H510      1.0  0.19922  0.89646  0.20960  1.0000
  H   H511      1.0  0.35755  0.50497  0.06727  1.0000
  C   C311      1.0  0.11775  0.66643  0.05875  1.0000
  H   H512      1.0  0.04094  0.92093  0.19754  1.0000
  H   H513      1.0  0.44017  0.63391  0.04560  1.0000
  C   C312      1.0  0.10841  0.78515  0.22622  1.0000
  S   S87       1.0  0.03813  0.72747  0.99377  1.0000
  H   H514      1.0  0.35045  0.65372  0.01937  1.0000
  C   C313      1.0  0.17134  0.96913  0.22370  1.0000
  H   H515      1.0  0.00961  0.84681  0.00045  1.0000
  C   C314      1.0  0.43119  0.66894  0.01893  1.0000
  H   H516      1.0  0.02251  0.91981  0.00385  1.0000
  H   H517      1.0  0.02826  0.71656  0.10745  1.0000
  H   H518      1.0  0.16552  0.96277  0.20483  1.0000
  H   H519      1.0  0.15797  0.94634  0.02186  1.0000
  H   H520      1.0  0.01224  0.95144  0.03032  1.0000
  H   H521      1.0  0.46857  0.82897  0.07846  1.0000
  H   H522      1.0  0.11083  0.73666  0.22954  1.0000
  H   H523      1.0  0.12749  0.99585  0.13507  1.0000
  H   H524      1.0  0.08918  0.99518  0.15724  1.0000
  H   H525      1.0  0.02734  0.88272  0.99246  1.0000
  H   H526      1.0  0.14529  0.82198  0.23788  1.0000
  N   N24       1.0  0.17657  0.92496  0.23622  1.0000
  S   S88       1.0  0.08263  0.83894  0.23666  1.0000
  H   H527      1.0  0.11115  0.98853  0.01694  1.0000
  H   H528      1.0  0.47757  0.80167  0.07399  1.0000
  H   H529      1.0  0.17447  0.97151  0.99885  1.0000
  H   H530      1.0  0.08300  0.89305  0.23780  1.0000
  H   H531      1.0  0.15917  0.98024  0.22871  1.0000
  H   H532      1.0  0.24495  0.97546  0.22719  1.0000
  C   C315      1.0  0.32880  0.54594  0.98954  1.0000
  C   C316      1.0  0.00555  0.83272  0.23683  1.0000
  Fe  Fe44      1.0  0.06014  0.81654  0.32383  1.0000
  S   S89       1.0  0.03334  0.81229  0.29111  1.0000
  S   S90       1.0  0.05997  0.77664  0.33856  1.0000
  Fe  Fe45      1.0  0.08908  0.88031  0.31925  1.0000
  S   S91       1.0  0.06474  0.88078  0.28637  1.0000
  Fe  Fe46      1.0  0.02794  0.84793  0.30587  1.0000
  C   C317      1.0  0.16039  0.68438  0.47586  1.0000
  Fe  Fe47      1.0  0.07209  0.84542  0.27426  1.0000
  S   S92       1.0  0.04355  0.62487  0.48221  1.0000
  S   S93       1.0  0.05154  0.84980  0.34016  1.0000
  S   S94       1.0  0.09967  0.84739  0.30562  1.0000
  S   S95       1.0  0.04673  0.53176  0.37296  1.0000
  Fe  Fe48      1.0  0.03657  0.68878  0.45792  1.0000
  C   C318      1.0  0.04591  0.98040  0.38242  1.0000
  S   S96       1.0  0.02877  0.72454  0.44401  1.0000
  Fe  Fe49      1.0  0.06495  0.65244  0.45097  1.0000
  H   H533      1.0  0.00190  0.63188  0.38543  1.0000
  S   S97       1.0  0.09626  0.64402  0.43106  1.0000
  C   C319      1.0  0.15790  0.71103  0.48180  1.0000
  H   H534      1.0  0.12339  0.64456  0.30349  1.0000
  C   C320      1.0  0.20789  0.93949  0.24067  1.0000
  S   S98       1.0  0.02558  0.65105  0.43549  1.0000
  S   S99       1.0  0.07818  0.69235  0.47102  1.0000
  C   C321      1.0  0.05992  0.56361  0.38803  1.0000
  C   C322      1.0  0.08749  0.57534  0.39680  1.0000
  C   C323      1.0  0.09859  0.60042  0.40935  1.0000
  C   C324      1.0  0.08188  0.61343  0.41404  1.0000
  C   C325      1.0  0.05426  0.60184  0.40519  1.0000
  C   C326      1.0  0.04344  0.57717  0.39174  1.0000
  H   H535      1.0  0.10034  0.56501  0.39387  1.0000
  H   H536      1.0  0.12004  0.60945  0.41577  1.0000
  H   H537      1.0  0.04140  0.61202  0.40849  1.0000
  H   H538      1.0  0.02227  0.56839  0.38468  1.0000
  C   C327      1.0  0.08480  0.57571  0.28846  1.0000
  H   H539      1.0  0.04299  0.96056  0.39109  1.0000
  H   H540      1.0  0.18249  0.69123  0.47038  1.0000
  H   H541      1.0  0.05915  0.70863  0.26260  1.0000
  H   H542      1.0  0.02024  0.84434  0.25147  1.0000
  C   C328      1.0  0.16599  0.90766  0.28033  1.0000
  H   H543      1.0  0.09734  0.64363  0.33433  1.0000
  H   H544      1.0  0.14052  0.88783  0.24934  1.0000
  C   C329      1.0  0.08878  0.62240  0.34236  1.0000
  H   H545      1.0  0.07312  0.93537  0.31414  1.0000
  H   H546      1.0  0.10465  0.62055  0.35429  1.0000
  C   C330      1.0  0.05150  0.76283  0.36811  1.0000
  C   C331      1.0  0.04140  0.77461  0.38511  1.0000
  C   C332      1.0  0.03463  0.76271  0.40830  1.0000
  C   C333      1.0  0.03811  0.73912  0.41479  1.0000
  C   C334      1.0  0.04817  0.72731  0.39778  1.0000
  C   C335      1.0  0.05471  0.73906  0.37455  1.0000
  H   H547      1.0  0.03876  0.79283  0.38039  1.0000
  H   H548      1.0  0.02677  0.77191  0.42131  1.0000
  H   H549      1.0  0.05093  0.70916  0.40252  1.0000
  H   H550      1.0  0.06252  0.72983  0.36152  1.0000
  H   H551      1.0  0.11390  0.93435  0.28627  1.0000
  H   H552      1.0  0.02057  0.97266  0.29372  1.0000
  H   H553      1.0  0.07427  0.58164  0.27366  1.0000
  C   C336      1.0  0.06192  0.54766  0.29822  1.0000
  H   H554      1.0  0.13618  0.61752  0.32869  1.0000
  H   H555      1.0  0.03544  0.92204  0.31756  1.0000
  C   C337      1.0  0.12318  0.59810  0.31857  1.0000
  H   H556      1.0  0.10956  0.64947  0.48254  1.0000
  H   H557      1.0  0.06678  0.57938  0.33343  1.0000
  H   H558      1.0  0.13331  0.57901  0.34952  1.0000
  H   H559      1.0  0.04435  0.74255  0.25043  1.0000
  H   H560      1.0  0.08941  0.99265  0.37475  1.0000
  H   H561      1.0  0.04422  0.95789  0.29413  1.0000
  H   H562      1.0  0.09710  0.56639  0.34561  1.0000
  C   C338      1.0  0.11661  0.57300  0.33551  1.0000
  C   C339      1.0  0.12783  0.95323  0.29542  1.0000
  C   C340      1.0  0.16335  0.90046  0.25345  1.0000
  H   H563      1.0  0.13806  0.59751  0.30528  1.0000
  C   C341      1.0  0.07077  0.99192  0.36491  1.0000
  H   H564      1.0  0.05551  0.53183  0.28388  1.0000
  H   H565      1.0  0.06010  0.60122  0.31332  1.0000
  H   H566      1.0  0.13884  0.79223  0.25605  1.0000
  C   C342      1.0  0.13534  0.95200  0.31941  1.0000
  H   H567      1.0  0.15171  0.91645  0.28519  1.0000
  H   H568      1.0  0.13233  0.97991  0.26475  1.0000
  H   H569      1.0  0.13506  0.65008  0.26162  1.0000
  H   H570      1.0  0.14044  0.93216  0.24099  1.0000
  S   S100      1.0  0.12173  0.92025  0.33572  1.0000
  H   H571      1.0  0.02601  0.97751  0.37369  1.0000
  H   H572      1.0  0.07795  0.94710  0.35905  1.0000
  H   H573      1.0  0.12144  0.61662  0.46477  1.0000
  H   H574      1.0  0.06051  0.74659  0.28857  1.0000
  H   H575      1.0  0.01686  0.58720  0.28460  1.0000
  H   H576      1.0  0.09247  0.63095  0.28559  1.0000
  H   H577      1.0  0.06889  0.53941  0.31383  1.0000
  H   H578      1.0  0.11566  0.55494  0.32555  1.0000
  C   C343      1.0  0.15949  0.64015  0.48700  1.0000
  Fe  Fe50      1.0  0.00568  0.51888  0.35380  1.0000
  H   H579      1.0  0.07119  0.62000  0.35396  1.0000
  H   H580      1.0  0.99902  0.91489  0.26097  1.0000
  H   H581      1.0  0.04127  0.93641  0.35905  1.0000
  H   H582      1.0  0.14905  0.60728  0.46087  1.0000
  C   C344      1.0  0.12838  0.80300  0.24621  1.0000
  H   H583      1.0  0.04277  0.54939  0.30289  1.0000
  H   H584      1.0  0.02131  0.95953  0.33470  1.0000
  H   H585      1.0  0.10075  0.57131  0.27957  1.0000
  H   H586      1.0  0.14736  0.67597  0.45941  1.0000
  C   C345      1.0  0.03600  0.54957  0.45650  1.0000
  C   C346      1.0  0.10990  0.62662  0.29197  1.0000
  C   C347      1.0  0.12753  0.62887  0.26969  1.0000
  N   N25       1.0  0.06602  0.97646  0.34165  1.0000
  H   H587      1.0  0.15965  0.97589  0.34952  1.0000
  N   N26       1.0  0.09866  0.59939  0.30597  1.0000
  C   C348      1.0  0.07739  0.59936  0.32332  1.0000
  H   H588      1.0  0.16990  0.95339  0.25915  1.0000
  H   H589      1.0  0.14634  0.62612  0.27415  1.0000
  C   C349      1.0  0.09289  0.99026  0.32778  1.0000
  C   C350      1.0  0.02616  0.58864  0.26729  1.0000
  H   H590      1.0  0.15234  0.63909  0.44790  1.0000
  H   H591      1.0  0.18777  0.92210  0.28584  1.0000
  H   H592      1.0  0.15948  0.88822  0.29117  1.0000
  C   C351      1.0  0.04556  0.61483  0.25799  1.0000
  C   C352      1.0  0.05561  0.92732  0.32692  1.0000
  C   C353      1.0  0.15367  0.97670  0.33099  1.0000
  H   H593      1.0  0.09650  0.76959  0.28164  1.0000
  Fe  Fe51      1.0  0.00466  0.62660  0.46864  1.0000
  C   C354      1.0  0.04137  0.97693  0.32837  1.0000
  C   C355      1.0  0.13838  0.97904  0.28322  1.0000
  C   C356      1.0  0.14453  0.62514  0.46383  1.0000
  H   H594      1.0  0.05410  0.90737  0.33420  1.0000
  H   H595      1.0  0.05109  0.63342  0.26833  1.0000
  C   C357      1.0  0.01876  0.56441  0.25410  1.0000
  H   H596      1.0  0.99512  0.56456  0.42805  1.0000
  C   C358      1.0  0.06034  0.94701  0.34796  1.0000
  H   H597      1.0  0.10970  0.98736  0.33750  1.0000
  H   H598      1.0  0.04381  0.53389  0.45923  1.0000
  C   C359      1.0  0.07462  0.76504  0.27769  1.0000
  C   C360      1.0  0.01385  0.91962  0.24591  1.0000
  H   H599      1.0  0.03633  0.55473  0.43724  1.0000
  H   H600      1.0  0.07209  0.78288  0.28474  1.0000
  H   H601      1.0  0.17269  0.88593  0.25158  1.0000
  H   H602      1.0  0.05109  0.56899  0.46555  1.0000
  C   C361      1.0  0.00669  0.53972  0.46727  1.0000
  H   H603      1.0  0.11494  0.61408  0.25547  1.0000
  H   H604      1.0  0.11081  0.74759  0.25887  1.0000
  C   C362      1.0  0.04119  0.97546  0.30075  1.0000
  C   C363      1.0  0.06550  0.76097  0.25093  1.0000
  H   H605      1.0  0.21536  0.92378  0.24532  1.0000
  H   H606      1.0  0.00877  0.53582  0.48669  1.0000
  H   H607      1.0  0.21315  0.95333  0.25652  1.0000
  H   H608      1.0  0.16073  0.72359  0.46511  1.0000
  H   H609      1.0  0.99895  0.51987  0.41940  1.0000
  H   H610      1.0  0.06183  0.77897  0.24531  1.0000
  H   H611      1.0  0.11753  0.81048  0.25871  1.0000
  H   H612      1.0  0.01565  0.88257  0.25690  1.0000
  C   C364      1.0  0.07523  0.70883  0.25033  1.0000
  H   H613      1.0  0.09094  0.98047  0.31011  1.0000
  H   H614      1.0  0.05732  0.99511  0.29284  1.0000
  H   H615      1.0  0.03457  0.93651  0.25152  1.0000
  C   C365      1.0  0.16378  0.94416  0.24100  1.0000
  H   H616      1.0  0.00181  0.55768  0.46680  1.0000
  S   S101      1.0  0.99614  0.55053  0.33475  1.0000
  H   H617      1.0  0.99157  0.66654  0.38487  1.0000
  H   H618      1.0  0.00194  0.86838  0.34819  1.0000
  H   H619      1.0  0.18252  0.64938  0.48392  1.0000
  H   H620      1.0  0.08624  0.69825  0.25978  1.0000
  S   S102      1.0  0.99521  0.53078  0.26539  1.0000
  C   C366      1.0  0.01727  0.89364  0.23954  1.0000
  H   H621      1.0  0.99202  0.90123  0.37213  1.0000
  H   H622      1.0  0.05050  0.99563  0.39704  1.0000
  C   C367      1.0  0.09690  0.73869  0.24314  1.0000
  H   H623      1.0  0.03960  0.99624  0.33237  1.0000
  H   H624      1.0  0.31910  0.83279  0.72210  1.0000
  Fe  Fe52      1.0  0.20819  0.71957  0.61886  1.0000
  S   S103      1.0  0.22875  0.75432  0.64549  1.0000
  S   S104      1.0  0.19275  0.72914  0.58311  1.0000
  Fe  Fe53      1.0  0.21427  0.67789  0.65270  1.0000
  S   S105      1.0  0.23336  0.70854  0.68233  1.0000
  S   S106      1.0  0.20685  0.63366  0.65795  1.0000
  Fe  Fe54      1.0  0.20139  0.72266  0.67235  1.0000
  S   S107      1.0  0.18383  0.73653  0.70257  1.0000
  Fe  Fe55      1.0  0.25953  0.73749  0.65349  1.0000
  S   S108      1.0  0.30634  0.76481  0.65983  1.0000
  S   S109      1.0  0.17907  0.68876  0.64552  1.0000
  S   S110      1.0  0.24207  0.70596  0.62392  1.0000
  H   H625      1.0  0.43552  0.74452  0.68490  1.0000
  C   C368      1.0  0.12097  0.65122  0.49981  1.0000
  H   H626      1.0  0.34881  0.57520  0.73858  1.0000
  H   H627      1.0  0.36229  0.73591  0.69689  1.0000
  C   C369      1.0  0.29167  0.50272  0.69574  1.0000
  C   C370      1.0  0.43409  0.55111  0.70432  1.0000
  C   C371      1.0  0.40896  0.53433  0.69224  1.0000
  H   H628      1.0  0.04631  0.70186  0.60270  1.0000
  C   C372      1.0  0.45676  0.54507  0.70291  1.0000
  H   H629      1.0  0.39142  0.53901  0.69303  1.0000
  H   H630      1.0  0.36125  0.70684  0.65700  1.0000
  H   H631      1.0  0.19194  0.68648  0.51319  1.0000
  S   S111      1.0  0.01298  0.66412  0.49050  1.0000
  C   C373      1.0  0.48245  0.69520  0.70714  1.0000
  H   H632      1.0  0.23238  0.53159  0.69663  1.0000
  C   C374      1.0  0.30919  0.74688  0.70631  1.0000
  C   C375      1.0  0.32340  0.76502  0.68742  1.0000
  C   C376      1.0  0.35180  0.78427  0.69067  1.0000
  C   C377      1.0  0.36573  0.78567  0.71269  1.0000
  H   H633      1.0  0.16621  0.74907  0.64417  1.0000
  H   H634      1.0  0.28755  0.73165  0.70403  1.0000
  H   H635      1.0  0.36301  0.79836  0.67615  1.0000
  H   H636      1.0  0.38750  0.80080  0.71506  1.0000
  C   C378      1.0  0.15027  0.71176  0.71138  1.0000
  S   S112      1.0  0.06831  0.66444  0.54053  1.0000
  H   H637      1.0  0.27426  0.80298  0.66887  1.0000
  C   C379      1.0  0.16915  0.67589  0.51747  1.0000
  C   C380      1.0  0.13428  0.68915  0.69673  1.0000
  H   H638      1.0  0.38227  0.73209  0.73304  1.0000
  H   H639      1.0  0.29504  0.51707  0.68088  1.0000
  H   H640      1.0  0.14266  0.68663  0.68016  1.0000
  C   C381      1.0  0.23052  0.63106  0.67881  1.0000
  C   C382      1.0  0.22508  0.60495  0.68847  1.0000
  H   H641      1.0  0.10168  0.67921  0.65333  1.0000
  C   C383      1.0  0.42899  0.50525  0.67766  1.0000
  C   C384      1.0  0.27060  0.65291  0.70576  1.0000
  C   C385      1.0  0.25386  0.65494  0.68698  1.0000
  H   H642      1.0  0.20731  0.58636  0.68196  1.0000
  H   H643      1.0  0.40803  0.69882  0.70419  1.0000
  H   H644      1.0  0.25908  0.67498  0.67883  1.0000
  C   C386      1.0  0.10299  0.68292  0.55209  1.0000
  C   C387      1.0  0.12228  0.70856  0.54238  1.0000
  C   C388      1.0  0.14946  0.72280  0.55247  1.0000
  C   C389      1.0  0.15774  0.71144  0.57213  1.0000
  C   C390      1.0  0.13838  0.68588  0.58190  1.0000
  C   C391      1.0  0.11110  0.67182  0.57202  1.0000
  H   H645      1.0  0.11618  0.71755  0.52727  1.0000
  H   H646      1.0  0.16427  0.74260  0.54480  1.0000
  H   H647      1.0  0.14457  0.67671  0.59682  1.0000
  H   H648      1.0  0.09632  0.65200  0.57965  1.0000
  H   H649      1.0  0.16424  0.69248  0.52382  1.0000
  H   H650      1.0  0.09195  0.62378  0.52671  1.0000
  C   C392      1.0  0.35123  0.76795  0.73172  1.0000
  H   H651      1.0  0.28498  0.83162  0.68856  1.0000
  N   N27       1.0  0.27851  0.79841  0.73187  1.0000
  H   H652      1.0  0.48460  0.62781  0.67089  1.0000
  C   C393      1.0  0.10548  0.62240  0.51249  1.0000
  H   H653      1.0  0.43787  0.66521  0.71361  1.0000
  H   H654      1.0  0.18007  0.67003  0.55396  1.0000
  H   H655      1.0  0.38672  0.49829  0.67006  1.0000
  H   H656      1.0  0.44621  0.64404  0.67960  1.0000
  H   H657      1.0  0.11891  0.61427  0.52122  1.0000
  H   H658      1.0  0.37401  0.65326  0.68254  1.0000
  N   N28       1.0  0.15196  0.66226  0.49541  1.0000
  H   H659      1.0  0.42724  0.67389  0.67356  1.0000
  H   H660      1.0  0.33146  0.70624  0.70342  1.0000
  H   H661      1.0  0.18445  0.67002  0.71744  1.0000
  H   H662      1.0  0.06236  0.68086  0.59187  1.0000
  H   H663      1.0  0.45224  0.69493  0.73278  1.0000
  H   H664      1.0  0.32455  0.68765  0.66522  1.0000
  C   C394      1.0  0.41568  0.74046  0.69389  1.0000
  S   S113      1.0  0.06033  0.65130  0.73041  1.0000
  C   C395      1.0  0.13907  0.71501  0.73286  1.0000
  C   C396      1.0  0.26893  0.78987  0.70633  1.0000
  C   C397      1.0  0.46249  0.66378  0.67148  1.0000
  C   C398      1.0  0.16550  0.65708  0.53960  1.0000
  C   C399      1.0  0.28299  0.50781  0.71799  1.0000
  H   H665      1.0  0.47186  0.64103  0.71206  1.0000
  H   H666      1.0  0.28773  0.67156  0.71274  1.0000
  C   C400      1.0  0.35180  0.71298  0.69442  1.0000
  N   N29       1.0  0.48697  0.67761  0.68869  1.0000
  C   C401      1.0  0.17924  0.64748  0.71804  1.0000
  H   H667      1.0  0.39406  0.70158  0.67592  1.0000
  H   H668      1.0  0.40626  0.75182  0.68338  1.0000
  C   C402      1.0  0.45438  0.52251  0.68917  1.0000
  C   C403      1.0  0.09548  0.67367  0.72426  1.0000
  H   H669      1.0  0.37520  0.54796  0.73297  1.0000
  H   H670      1.0  0.13210  0.62345  0.71586  1.0000
  H   H671      1.0  0.27973  0.52601  0.72023  1.0000
  H   H672      1.0  0.42172  0.74946  0.71204  1.0000
  H   H673      1.0  0.35488  0.49854  0.72226  1.0000
  C   C404      1.0  0.28476  0.81126  0.68633  1.0000
  H   H674      1.0  0.14416  0.64887  0.54705  1.0000
  H   H675      1.0  0.06756  0.71197  0.57679  1.0000
  H   H676      1.0  0.10647  0.68073  0.62223  1.0000
  C   C405      1.0  0.10691  0.67019  0.70308  1.0000
  H   H677      1.0  0.06468  0.64263  0.61895  1.0000
  H   H678      1.0  0.23351  0.74035  0.72696  1.0000
  H   H679      1.0  0.14879  0.64526  0.69084  1.0000
  C   C406      1.0  0.40627  0.51121  0.67923  1.0000
  C   C407      1.0  0.17339  0.58872  0.73271  1.0000
  C   C408      1.0  0.32296  0.74855  0.72840  1.0000
  C   C409      1.0  0.34434  0.70729  0.66765  1.0000
  H   H680      1.0  0.09098  0.60663  0.49970  1.0000
  H   H681      1.0  0.17702  0.59527  0.71367  1.0000
  H   H682      1.0  0.47211  0.51819  0.68776  1.0000
  H   H683      1.0  0.09443  0.65286  0.69154  1.0000
  C   C410      1.0  0.15096  0.63122  0.70460  1.0000
  H   H684      1.0  0.04585  0.66034  0.62871  1.0000
  H   H685      1.0  0.04986  0.70261  0.68403  1.0000
  C   C411      1.0  0.27406  0.84467  0.73084  1.0000
  S   S114      1.0  0.43673  0.57942  0.72120  1.0000
  N   N30       1.0  0.36818  0.69956  0.70626  1.0000
  H   H686      1.0  0.14834  0.71785  0.62736  1.0000
  H   H687      1.0  0.27101  0.77087  0.70183  1.0000
  H   H688      1.0  0.08696  0.71684  0.68651  1.0000
  H   H689      1.0  0.23760  0.58273  0.71436  1.0000
  C   C412      1.0  0.35309  0.65255  0.68398  1.0000
  H   H690      1.0  0.15017  0.75034  0.61619  1.0000
  H   H691      1.0  0.34120  0.72478  0.65973  1.0000
  H   H692      1.0  0.17098  0.64001  0.53626  1.0000
  H   H693      1.0  0.06577  0.68086  0.67793  1.0000
  C   C413      1.0  0.37372  0.70902  0.73201  1.0000
  C   C414      1.0  0.39628  0.70869  0.69468  1.0000
  H   H694      1.0  0.34777  0.66023  0.66714  1.0000
  C   C415      1.0  0.26454  0.62691  0.71605  1.0000
  H   H695      1.0  0.05841  0.64325  0.65005  1.0000
  C   C416      1.0  0.24204  0.60290  0.70706  1.0000
  N   N31       1.0  0.09330  0.71042  0.63511  1.0000
  C   C417      1.0  0.12074  0.73143  0.64613  1.0000
  C   C418      1.0  0.07015  0.71154  0.64926  1.0000
  C   C419      1.0  0.09224  0.71964  0.60955  1.0000
  C   C420      1.0  0.09259  0.68209  0.63607  1.0000
  C   C421      1.0  0.14765  0.73722  0.63245  1.0000
  C   C422      1.0  0.06849  0.70242  0.67584  1.0000
  C   C423      1.0  0.06532  0.70228  0.59492  1.0000
  C   C424      1.0  0.06365  0.65611  0.63332  1.0000
  H   H696      1.0  0.12085  0.75200  0.64830  1.0000
  H   H697      1.0  0.12371  0.72476  0.66450  1.0000
  H   H698      1.0  0.04914  0.69867  0.64137  1.0000
  H   H699      1.0  0.07227  0.73311  0.64880  1.0000
  H   H700      1.0  0.09568  0.74167  0.60903  1.0000
  H   H701      1.0  0.10941  0.71932  0.59889  1.0000
  H   H702      1.0  0.30656  0.81424  0.68461  1.0000
  C   C425      1.0  0.31015  0.81353  0.73325  1.0000
  H   H703      1.0  0.15663  0.56677  0.73339  1.0000
  H   H704      1.0  0.33757  0.63017  0.68585  1.0000
  H   H705      1.0  0.26047  0.84367  0.71522  1.0000
  H   H706      1.0  0.17455  0.72447  0.49456  1.0000
  S   S115      1.0  0.48293  0.76109  0.72544  1.0000
  H   H707      1.0  0.24619  0.78390  0.70400  1.0000
  H   H708      1.0  0.15101  0.61396  0.69410  1.0000
  H   H709      1.0  0.23015  0.68772  0.73296  1.0000
  H   H710      1.0  0.29629  0.85584  0.72564  1.0000
  H   H711      1.0  0.31900  0.80042  0.72554  1.0000
  H   H712      1.0  0.46933  0.65741  0.65498  1.0000
  H   H713      1.0  0.47628  0.55795  0.71210  1.0000
  H   H714      1.0  0.19508  0.64549  0.70675  1.0000
  H   H715      1.0  0.45937  0.70369  0.66444  1.0000
  H   H716      1.0  0.35835  0.65875  0.72152  1.0000
  H   H717      1.0  0.11714  0.66637  0.51032  1.0000
  H   H718      1.0  0.15535  0.62366  0.50068  1.0000
  C   C426      1.0  0.35152  0.66810  0.70635  1.0000
  H   H719      1.0  0.21962  0.63576  0.73601  1.0000
  H   H720      1.0  0.44032  0.67607  0.64439  1.0000
  Fe  Fe56      1.0  0.05399  0.66457  0.50166  1.0000
  H   H721      1.0  0.46175  0.66754  0.73775  1.0000
  C   C427      1.0  0.44697  0.68079  0.66345  1.0000
  H   H722      1.0  0.48029  0.71297  0.69893  1.0000
  H   H723      1.0  0.32895  0.66169  0.70940  1.0000
  C   C428      1.0  0.45698  0.67952  0.72357  1.0000
  C   C429      1.0  0.22346  0.51101  0.68769  1.0000
  H   H724      1.0  0.20882  0.51144  0.67356  1.0000
  H   H725      1.0  0.24128  0.50948  0.67940  1.0000
  H   H726      1.0  0.13703  0.70631  0.48886  1.0000
  H   H727      1.0  0.07738  0.54989  0.83591  1.0000
  H   H728      1.0  0.02576  0.53450  0.76909  1.0000
  S   S116      1.0  0.23470  0.62200  0.93647  1.0000
  H   H729      1.0  0.42692  0.84040  0.91227  1.0000
  S   S117      1.0  0.42069  0.56474  0.96623  1.0000
  C   C430      1.0  0.47137  0.57037  0.85747  1.0000
  C   C431      1.0  0.26517  0.81532  0.74169  1.0000
  H   H730      1.0  0.38368  0.80295  0.96480  1.0000
  Fe  Fe57      1.0  0.47167  0.59336  0.74852  1.0000
  C   C432      1.0  0.32911  0.52237  0.79832  1.0000
  H   H731      1.0  0.27261  0.59684  0.93621  1.0000
  S   S118      1.0  0.42864  0.75430  0.77387  1.0000
  Fe  Fe58      1.0  0.45373  0.78170  0.80407  1.0000
  S   S119      1.0  0.45345  0.75933  0.83883  1.0000
  H   H732      1.0  0.28982  0.57920  0.90282  1.0000
  S   S120      1.0  0.43675  0.81251  0.79835  1.0000
  C   C433      1.0  0.44605  0.77469  0.93725  1.0000
  S   S121      1.0  0.28711  0.56904  0.78490  1.0000
  S   S122      1.0  0.23787  0.58799  0.79492  1.0000
  Fe  Fe59      1.0  0.05330  0.63666  0.76874  1.0000
  S   S123      1.0  0.08098  0.65690  0.80036  1.0000
  C   C434      1.0  0.26445  0.58623  0.87572  1.0000
  Fe  Fe60      1.0  0.07629  0.61420  0.80922  1.0000
  S   S124      1.0  0.11495  0.61075  0.82212  1.0000
  H   H733      1.0  0.46312  0.84999  0.90536  1.0000
  H   H734      1.0  0.38075  0.69934  0.89311  1.0000
  H   H735      1.0  0.03497  0.72221  0.86749  1.0000
  C   C435      1.0  0.14732  0.55288  0.79090  1.0000
  C   C436      1.0  0.16203  0.57139  0.80925  1.0000
  C   C437      1.0  0.15173  0.58887  0.81865  1.0000
  C   C438      1.0  0.12683  0.58826  0.80966  1.0000
  C   C439      1.0  0.11213  0.56986  0.79121  1.0000
  H   H736      1.0  0.18123  0.57207  0.81639  1.0000
  H   H737      1.0  0.16314  0.60292  0.83302  1.0000
  H   H738      1.0  0.09317  0.56955  0.78392  1.0000
  H   H739      1.0  0.45672  0.68132  0.78238  1.0000
  H   H740      1.0  0.48170  0.59298  0.92794  1.0000
  C   C440      1.0  0.10741  0.70310  0.90091  1.0000
  Fe  Fe61      1.0  0.26293  0.58677  0.76365  1.0000
  H   H741      1.0  0.08816  0.68326  0.90420  1.0000
  H   H742      1.0  0.13726  0.74022  0.91903  1.0000
  N   N32       1.0  0.02693  0.50141  0.81099  1.0000
  C   C441      1.0  0.43798  0.58124  0.87739  1.0000
  H   H743      1.0  0.48280  0.66471  0.95577  1.0000
  H   H744      1.0  0.44550  0.76763  0.95605  1.0000
  H   H745      1.0  0.42826  0.75250  0.90316  1.0000
  H   H746      1.0  0.18449  0.67607  0.75918  1.0000
  Fe  Fe62      1.0  0.25308  0.52735  0.77374  1.0000
  Fe  Fe63      1.0  0.20697  0.54500  0.78311  1.0000
  C   C442      1.0  0.14120  0.64741  0.75958  1.0000
  C   C443      1.0  0.24547  0.60696  0.91360  1.0000
  C   C444      1.0  0.23491  0.60588  0.89020  1.0000
  C   C445      1.0  0.24431  0.59551  0.87130  1.0000
  H   H747      1.0  0.21965  0.61345  0.88661  1.0000
  H   H748      1.0  0.23635  0.59518  0.85328  1.0000
  H   H749      1.0  0.04916  0.66402  0.95159  1.0000
  H   H750      1.0  0.30668  0.55480  0.96065  1.0000
  H   H751      1.0  0.06575  0.51606  0.79157  1.0000
  Fe  Fe64      1.0  0.47345  0.83417  0.77354  1.0000
  N   N33       1.0  0.43801  0.79807  0.93544  1.0000
  C   C446      1.0  0.05503  0.54061  0.84118  1.0000
  H   H752      1.0  0.40981  0.52329  0.79977  1.0000
  H   H753      1.0  0.06711  0.50324  0.82057  1.0000
  C   C447      1.0  0.40983  0.78806  0.94706  1.0000
  C   C448      1.0  0.01941  0.51207  0.76666  1.0000
  C   C449      1.0  0.10825  0.74905  0.95440  1.0000
  H   H754      1.0  0.46992  0.62821  0.91048  1.0000
  H   H755      1.0  0.38478  0.56393  0.79080  1.0000
  C   C450      1.0  0.21142  0.64537  0.74917  1.0000
  H   H756      1.0  0.48785  0.81901  0.84492  1.0000
  C   C451      1.0  0.46081  0.82284  0.94804  1.0000
  C   C452      1.0  0.17204  0.65305  0.76118  1.0000
  H   H757      1.0  0.47309  0.74244  0.88107  1.0000
  C   C453      1.0  0.35977  0.54200  0.74777  1.0000
  H   H758      1.0  0.48137  0.82908  0.93924  1.0000
  H   H759      1.0  0.14166  0.59971  0.74364  1.0000
  C   C454      1.0  0.39840  0.80940  0.94949  1.0000
  C   C455      1.0  0.05308  0.49939  0.80459  1.0000
  H   H760      1.0  0.37985  0.58654  0.75667  1.0000
  H   H761      1.0  0.40931  0.77855  0.96505  1.0000
  H   H762      1.0  0.11095  0.53800  0.76763  1.0000
  H   H763      1.0  0.30568  0.67384  0.93519  1.0000
  H   H764      1.0  0.41511  0.55334  0.81601  1.0000
  C   C456      1.0  0.34174  0.50840  0.78195  1.0000
  H   H765      1.0  0.45306  0.80224  0.89903  1.0000
  C   C457      1.0  0.31266  0.55793  0.97942  1.0000
  H   H766      1.0  0.17581  0.64774  0.77991  1.0000
  C   C458      1.0  0.45422  0.55055  0.89703  1.0000
  H   H767      1.0  0.48250  0.53150  0.80920  1.0000
  H   H768      1.0  0.05115  0.52386  0.85452  1.0000
  H   H769      1.0  0.40493  0.71070  0.96829  1.0000
  H   H770      1.0  0.06491  0.68983  0.97449  1.0000
  N   N34       1.0  0.33540  0.67831  0.89048  1.0000
  C   C459      1.0  0.36394  0.69142  0.87913  1.0000
  C   C460      1.0  0.33218  0.65330  0.90523  1.0000
  C   C461      1.0  0.31225  0.66865  0.87177  1.0000
  C   C462      1.0  0.37020  0.71650  0.86216  1.0000
  C   C463      1.0  0.35315  0.65904  0.92626  1.0000
  C   C464      1.0  0.31526  0.65186  0.85084  1.0000
  H   H771      1.0  0.36752  0.67569  0.86914  1.0000
  H   H772      1.0  0.33388  0.63740  0.89396  1.0000
  H   H773      1.0  0.29153  0.65533  0.88011  1.0000
  H   H774      1.0  0.31060  0.68690  0.86366  1.0000
  H   H775      1.0  0.35457  0.71149  0.84742  1.0000
  H   H776      1.0  0.37183  0.73484  0.87204  1.0000
  H   H777      1.0  0.34723  0.63921  0.93642  1.0000
  H   H778      1.0  0.35252  0.67408  0.93913  1.0000
  H   H779      1.0  0.37487  0.66613  0.92000  1.0000
  H   H780      1.0  0.29396  0.63708  0.84427  1.0000
  H   H781      1.0  0.32600  0.63912  0.85567  1.0000
  H   H782      1.0  0.32542  0.66562  0.83521  1.0000
  S   S125      1.0  0.23074  0.54520  0.75027  1.0000
  C   C465      1.0  0.43737  0.56413  0.89694  1.0000
  H   H783      1.0  0.45747  0.84162  0.94652  1.0000
  C   C466      1.0  0.11701  0.72167  0.92335  1.0000
  C   C467      1.0  0.09203  0.74848  0.91306  1.0000
  H   H784      1.0  0.12336  0.77075  0.94893  1.0000
  Fe  Fe65      1.0  0.25968  0.63636  0.97115  1.0000
  C   C468      1.0  0.44091  0.83430  0.90248  1.0000
  H   H785      1.0  0.08580  0.68016  0.95519  1.0000
  C   C469      1.0  0.47810  0.77894  0.86092  1.0000
  S   S126      1.0  0.05203  0.59511  0.77578  1.0000
  C   C470      1.0  0.39944  0.53594  0.80519  1.0000
  H   H786      1.0  0.00280  0.50486  0.75249  1.0000
  H   H787      1.0  0.26779  0.81737  0.76151  1.0000
  C   C471      1.0  0.48801  0.66238  0.97424  1.0000
  H   H788      1.0  0.30621  0.70677  0.93087  1.0000
  S   S127      1.0  0.46790  0.56683  0.78088  1.0000
  H   H789      1.0  0.99816  0.50380  0.85463  1.0000
  H   H790      1.0  0.11218  0.71879  0.97995  1.0000
  C   C472      1.0  0.02448  0.67861  0.87057  1.0000
  H   H791      1.0  0.04702  0.54596  0.80446  1.0000
  H   H792      1.0  0.47228  0.73026  0.80380  1.0000
  H   H793      1.0  0.43634  0.73308  0.92545  1.0000
  H   H794      1.0  0.01699  0.53457  0.82174  1.0000
  H   H795      1.0  0.13676  0.65564  0.74257  1.0000
  S   S128      1.0  0.45663  0.53183  0.92250  1.0000
  C   C473      1.0  0.44827  0.68605  0.79865  1.0000
  H   H796      1.0  0.41462  0.83060  0.95401  1.0000
  H   H797      1.0  0.10407  0.71401  0.88506  1.0000
  C   C474      1.0  0.07670  0.76541  0.92041  1.0000
  N   N35       1.0  0.18120  0.63816  0.74344  1.0000
  C   C475      1.0  0.03545  0.53079  0.81890  1.0000
  S   S129      1.0  0.33906  0.52585  0.97155  1.0000
  C   C476      1.0  0.23794  0.75058  0.74464  1.0000
  H   H798      1.0  0.03715  0.50932  0.75964  1.0000
  H   H799      1.0  0.21327  0.63654  0.76700  1.0000
  C   C477      1.0  0.06749  0.68428  0.95597  1.0000
  S   S130      1.0  0.22613  0.52287  0.80567  1.0000
  H   H800      1.0  0.12260  0.70987  0.93708  1.0000
  H   H801      1.0  0.40580  0.73771  0.92898  1.0000
  H   H802      1.0  0.43896  0.66705  0.81025  1.0000
  S   S131      1.0  0.30251  0.63976  0.97727  1.0000
  S   S132      1.0  0.45707  0.60774  0.83428  1.0000
  H   H803      1.0  0.38684  0.81019  0.93299  1.0000
  C   C478      1.0  0.48745  0.51457  0.80616  1.0000
  H   H804      1.0  0.31418  0.52774  0.78823  1.0000
  N   N36       1.0  0.09640  0.73093  0.93260  1.0000
  H   H805      1.0  0.40218  0.64414  0.97660  1.0000
  H   H806      1.0  0.31162  0.73470  0.74300  1.0000
  C   C479      1.0  0.46490  0.81871  0.97502  1.0000
  C   C480      1.0  0.48342  0.76501  0.88029  1.0000
  H   H807      1.0  0.07979  0.73532  0.89776  1.0000
  S   S133      1.0  0.36706  0.76984  0.76016  1.0000
  C   C481      1.0  0.45521  0.58466  0.85776  1.0000
  H   H808      1.0  0.35136  0.70977  0.91820  1.0000
  H   H809      1.0  0.10282  0.69864  0.75575  1.0000
  H   H810      1.0  0.47308  0.80341  0.97826  1.0000
  H   H811      1.0  0.48850  0.62006  0.94792  1.0000
  C   C482      1.0  0.00032  0.65573  0.90725  1.0000
  H   H812      1.0  0.46813  0.78218  0.93171  1.0000
  S   S134      1.0  0.09663  0.80348  0.98437  1.0000
  C   C483      1.0  0.23237  0.67670  0.74919  1.0000
  H   H813      1.0  0.34557  0.56694  0.76980  1.0000
  C   C484      1.0  0.37893  0.50951  0.75662  1.0000
  H   H814      1.0  0.39090  0.72297  0.85370  1.0000
  C   C485      1.0  0.00184  0.68090  0.91550  1.0000
  H   H815      1.0  0.33914  0.52774  0.73955  1.0000
  C   C486      1.0  0.12218  0.55197  0.78207  1.0000
  H   H816      1.0  0.28667  0.67946  0.91031  1.0000
  Fe  Fe66      1.0  0.04087  0.64391  0.82074  1.0000
  S   S135      1.0  0.04051  0.67906  0.84291  1.0000
  C   C487      1.0  0.02545  0.70361  0.87863  1.0000
  Fe  Fe67      1.0  0.25885  0.56609  0.81527  1.0000
  Fe  Fe68      1.0  0.00241  0.71977  0.96816  1.0000
  H   H817      1.0  0.16561  0.60200  0.76647  1.0000
  H   H818      1.0  0.22331  0.75948  0.74758  1.0000
  H   H819      1.0  0.44542  0.81249  0.98532  1.0000
  H   H820      1.0  0.38356  0.49699  0.77043  1.0000
  H   H821      1.0  0.43637  0.83507  0.88303  1.0000
  S   S136      1.0  0.27924  0.57609  0.85218  1.0000
  C   C488      1.0  0.27445  0.58662  0.89923  1.0000
  C   C489      1.0  0.26478  0.59666  0.91816  1.0000
  C   C490      1.0  0.01419  0.70478  0.90093  1.0000
  H   H822      1.0  0.31089  0.64250  0.91285  1.0000
  H   H823      1.0  0.39337  0.77046  0.93688  1.0000
  H   H824      1.0  0.48403  0.54301  0.87703  1.0000
  C   C491      1.0  0.16431  0.60715  0.74729  1.0000
  H   H825      1.0  0.34118  0.67401  0.75269  1.0000
  H   H826      1.0  0.40940  0.56083  0.77251  1.0000
  H   H827      1.0  0.41622  0.78965  0.90102  1.0000
  C   C492      1.0  0.43661  0.80470  0.90914  1.0000
  Fe  Fe69      1.0  0.01389  0.58633  0.79715  1.0000
  H   H828      1.0  0.12614  0.62513  0.76226  1.0000
  S   S137      1.0  0.16051  0.53175  0.77789  1.0000
  Fe  Fe70      1.0  0.41410  0.78672  0.76619  1.0000
  Fe  Fe71      1.0  0.46539  0.78071  0.75100  1.0000
  Fe  Fe72      1.0  0.43377  0.53236  0.95609  1.0000
  C   C493      1.0  0.33291  0.69969  0.90593  1.0000
  C   C494      1.0  0.30623  0.68894  0.92123  1.0000
  C   C495      1.0  0.47090  0.55339  0.87710  1.0000
  S   S138      1.0  0.03804  0.60224  0.83190  1.0000
  N   N37       1.0  0.36737  0.52732  0.76785  1.0000
  C   C496      1.0  0.06830  0.70655  0.93782  1.0000
  H   H829      1.0  0.45551  0.62013  0.97753  1.0000
  C   C497      1.0  0.39042  0.54826  0.78344  1.0000
  H   H830      1.0  0.42527  0.59207  0.87762  1.0000
  S   S139      1.0  0.01339  0.62682  0.78781  1.0000
  H   H831      1.0  0.42426  0.56188  0.91213  1.0000
  H   H832      1.0  0.33299  0.71702  0.89473  1.0000
  H   H833      1.0  0.23018  0.68684  0.76555  1.0000
  S   S140      1.0  0.01685  0.76524  0.95890  1.0000
  H   H834      1.0  0.05775  0.69560  0.92111  1.0000
  H   H835      1.0  0.35450  0.70728  0.76641  1.0000
  S   S141      1.0  0.35450  0.71600  0.97230  1.0000
  C   C498      1.0  0.42777  0.74821  0.92271  1.0000
  H   H836      1.0  0.05358  0.71383  0.94483  1.0000
  H   H837      1.0  0.09009  0.78322  0.93202  1.0000
  H   H838      1.0  0.39930  0.52289  0.74771  1.0000
  H   H839      1.0  0.12407  0.69735  0.89605  1.0000
  H   H840      1.0  0.05670  0.75248  0.92959  1.0000
  H   H841      1.0  0.29164  0.58302  0.98547  1.0000
  H   H842      1.0  0.13721  0.65882  0.77418  1.0000
  H   H843      1.0  0.05152  0.55658  0.85074  1.0000
  H   H844      1.0  0.31520  0.83493  0.76774  1.0000
  H   H845      1.0  0.11249  0.76384  0.90544  1.0000
  H   H846      1.0  0.27278  0.77737  0.76652  1.0000
  H   H847      1.0  0.46191  0.71054  0.83061  1.0000
  H   H848      1.0  0.07158  0.77436  0.90405  1.0000
  H   H849      1.0  0.09129  0.75099  0.96409  1.0000
  H   H850      1.0  0.48169  0.66636  0.81404  1.0000
  H   H851      1.0  0.34480  0.54106  0.80760  1.0000
  C   C499      1.0  0.01170  0.65459  0.88494  1.0000
  H   H852      1.0  0.43095  0.69090  0.79306  1.0000
  H   H853      1.0  0.01481  0.72406  0.90675  1.0000
  S   S142      1.0  0.27299  0.68095  0.98048  1.0000
  Fe  Fe73      1.0  0.48028  0.60581  0.80178  1.0000
  C   C500      1.0  0.40713  0.72358  0.98358  1.0000
  S   S143      1.0  0.47975  0.63108  0.76968  1.0000
  Fe  Fe74      1.0  0.38144  0.52872  0.97979  1.0000
  H   H854      1.0  0.25408  0.67904  0.74946  1.0000
  H   H855      1.0  0.34619  0.83456  0.75691  1.0000
  H   H856      1.0  0.01072  0.63520  0.87894  1.0000
  H   H857      1.0  0.38443  0.60720  0.97361  1.0000
  C   C501      1.0  0.26907  0.77224  0.74713  1.0000
  H   H858      1.0  0.15136  0.73252  0.74428  1.0000
  C   C502      1.0  0.35844  0.56913  0.75395  1.0000
  C   C503      1.0  0.47074  0.71098  0.81260  1.0000
  H   H859      1.0  0.48467  0.57281  0.84235  1.0000
  H   H860      1.0  0.48210  0.67953  0.84302  1.0000
  H   H861      1.0  0.48090  0.83877  0.98249  1.0000
  H   H862      1.0  0.31742  0.50757  0.81298  1.0000
  C   C504      1.0  0.34823  0.69651  0.74891  1.0000
  H   H863      1.0  0.46763  0.51069  0.75498  1.0000
  H   H864      1.0  0.39000  0.70409  0.74040  1.0000
  H   H865      1.0  0.23312  0.73387  0.75837  1.0000
  H   H866      1.0  0.06080  0.82998  0.98465  1.0000
  C   C505      1.0  0.32309  0.82193  0.75854  1.0000
  C   C506      1.0  0.12442  0.74029  0.97307  1.0000
  H   H867      1.0  0.31974  0.80344  0.76975  1.0000
  C   C507      1.0  0.38776  0.62453  0.98581  1.0000
  S   S144      1.0  0.28509  0.62506  0.74027  1.0000
  H   H868      1.0  0.48691  0.72377  0.76511  1.0000
  H   H869      1.0  0.38168  0.52353  0.81721  1.0000
  H   H870      1.0  0.14468  0.74298  0.96589  1.0000
  H   H871      1.0  0.99242  0.57646  0.74832  1.0000
  C   C508      1.0  0.47271  0.63699  0.98647  1.0000
  Fe  Fe75      1.0  0.05094  0.77266  0.98617  1.0000
  S   S145      1.0  0.44909  0.81114  0.74080  1.0000
  H   H872      1.0  0.36676  0.62340  0.98817  1.0000
  H   H873      1.0  0.27176  0.85807  0.74460  1.0000
  H   H874      1.0  0.28153  0.76109  0.74313  1.0000
  C   C509      1.0  0.11170  0.69581  0.73941  1.0000
  H   H875      1.0  0.33024  0.69940  0.74205  1.0000
  H   H876      1.0  0.19253  0.58863  0.74062  1.0000
  H   H877      1.0  0.12964  0.75432  0.98872  1.0000
  H   H878      1.0  0.24200  0.80407  0.73916  1.0000
  C   C510      1.0  0.71374  0.05042  0.12934  1.0000
  H   H879      1.0  0.91289  0.41066  0.23167  1.0000
  S   S146      1.0  0.88854  0.02971  0.02673  1.0000
  H   H880      1.0  0.49975  0.31495  0.14575  1.0000
  H   H881      1.0  0.65760  0.02018  0.21093  1.0000
  H   H882      1.0  0.93122  0.01340  0.05541  1.0000
  Fe  Fe76      1.0  0.86110  0.05044  0.02035  1.0000
  S   S147      1.0  0.84883  0.06378  0.05419  1.0000
  H   H883      1.0  0.67714  0.01530  0.11430  1.0000
  C   C511      1.0  0.97212  0.09093  0.04545  1.0000
  H   H884      1.0  0.95105  0.08879  0.04534  1.0000
  H   H885      1.0  0.49185  0.27457  0.99356  1.0000
  H   H886      1.0  0.92877  0.02423  0.12646  1.0000
  Fe  Fe77      1.0  0.86256  0.00091  0.99787  1.0000
  Fe  Fe78      1.0  0.91486  0.05690  0.99713  1.0000
  H   H887      1.0  0.49811  0.41232  0.21931  1.0000
  H   H888      1.0  0.77822  0.02229  0.11614  1.0000
  H   H889      1.0  0.95891  0.41351  0.21128  1.0000
  C   C512      1.0  0.96723  0.00202  0.12052  1.0000
  S   S148      1.0  0.83249  0.01925  0.99375  1.0000
  C   C513      1.0  0.79157  0.03354  0.04779  1.0000
  C   C514      1.0  0.81422  0.04397  0.06398  1.0000
  C   C515      1.0  0.80921  0.03988  0.08862  1.0000
  H   H890      1.0  0.94801  0.43968  0.20700  1.0000
  H   H891      1.0  0.79532  0.03694  0.02874  1.0000
  H   H892      1.0  0.82668  0.04797  0.10118  1.0000
  C   C516      1.0  0.98904  0.09993  0.06629  1.0000
  S   S149      1.0  0.72451  0.99876  0.09179  1.0000
  H   H893      1.0  0.74643  0.01240  0.04385  1.0000
  H   H894      1.0  0.53471  0.35284  0.16343  1.0000
  C   C517      1.0  0.76394  0.01982  0.05635  1.0000
  H   H895      1.0  0.72363  0.02290  0.17149  1.0000
  C   C518      1.0  0.91672  0.00318  0.07047  1.0000
  H   H896      1.0  0.76986  0.06302  0.18972  1.0000
  H   H897      1.0  0.49212  0.30766  0.21665  1.0000
  H   H898      1.0  0.79452  0.10656  0.12384  1.0000
  C   C519      1.0  0.78174  0.02530  0.09711  1.0000
  H   H899      1.0  0.97664  0.44503  0.22736  1.0000
  H   H900      1.0  0.97094  0.00277  0.05621  1.0000
  H   H901      1.0  0.98074  0.10459  0.08212  1.0000
  N   N38       1.0  0.73174  0.06087  0.15167  1.0000
  H   H902      1.0  0.95218  0.00840  0.15533  1.0000
  C   C520      1.0  0.75649  0.08834  0.14535  1.0000
  C   C521      1.0  0.71429  0.06569  0.17015  1.0000
  C   C522      1.0  0.74033  0.03909  0.16027  1.0000
  H   H903      1.0  0.71421  0.08227  0.20520  1.0000
  C   C523      1.0  0.77376  0.08774  0.12373  1.0000
  C   C524      1.0  0.72859  0.07738  0.19441  1.0000
  C   C525      1.0  0.76814  0.04933  0.17468  1.0000
  C   C526      1.0  0.67421  0.01772  0.22029  1.0000
  N   N39       1.0  0.95584  0.01596  0.10281  1.0000
  H   H904      1.0  0.77134  0.09678  0.16068  1.0000
  H   H905      1.0  0.74942  0.10449  0.14124  1.0000
  H   H906      1.0  0.70624  0.08010  0.16282  1.0000
  H   H907      1.0  0.69544  0.04592  0.17470  1.0000
  H   H908      1.0  0.53637  0.32753  0.18319  1.0000
  H   H909      1.0  0.74248  0.02747  0.14484  1.0000
  H   H910      1.0  0.76953  0.03094  0.18266  1.0000
  H   H911      1.0  0.70853  0.06673  0.12157  1.0000
  H   H912      1.0  0.72525  0.04588  0.11511  1.0000
  H   H913      1.0  0.77747  0.06914  0.12399  1.0000
  H   H914      1.0  0.76317  0.08822  0.10653  1.0000
  H   H915      1.0  0.97128  0.04485  0.07281  1.0000
  H   H916      1.0  0.74837  0.09699  0.19274  1.0000
  H   H917      1.0  0.73190  0.06148  0.20499  1.0000
  C   C527      1.0  0.75902  0.01565  0.08105  1.0000
  C   C528      1.0  0.98269  0.08516  0.02474  1.0000
  H   H918      1.0  0.98015  0.07899  0.11911  1.0000
  H   H919      1.0  0.78662  0.06014  0.16299  1.0000
  H   H920      1.0  0.90825  0.01705  0.07702  1.0000
  S   S150      1.0  0.88933  0.08029  0.99254  1.0000
  C   C529      1.0  0.95574  0.42969  0.22087  1.0000
  C   C530      1.0  0.68590  0.02341  0.13234  1.0000
  S   S151      1.0  0.96252  0.07474  0.99784  1.0000
  C   C531      1.0  0.52245  0.33662  0.17697  1.0000
  C   C532      1.0  0.97079  0.05919  0.12967  1.0000
  H   H921      1.0  0.94029  0.04660  0.10144  1.0000
  H   H922      1.0  0.50039  0.35944  0.13933  1.0000
  C   C533      1.0  0.68432  0.99995  0.21092  1.0000
  H   H923      1.0  0.66995  0.02734  0.14159  1.0000
  H   H924      1.0  0.92000  0.45770  0.22727  1.0000
  H   H925      1.0  0.51909  0.34678  0.19268  1.0000
  H   H926      1.0  0.96179  0.06273  0.14624  1.0000
  C   C534      1.0  0.94745  0.03567  0.11494  1.0000
  H   H927      1.0  0.68887  0.00672  0.14188  1.0000
  H   H928      1.0  0.49428  0.29289  0.17124  1.0000
  C   C535      1.0  0.97823  0.03258  0.08493  1.0000
  C   C536      1.0  0.98777  0.01570  0.06893  1.0000
  C   C537      1.0  0.49565  0.31335  0.16537  1.0000
  H   H929      1.0  0.93999  0.49261  0.23785  1.0000
  H   H930      1.0  0.98943  0.01603  0.12558  1.0000
  H   H931      1.0  0.98813  0.05467  0.13546  1.0000
  Fe  Fe79      1.0  0.67704  0.07022  0.29090  1.0000
  S   S152      1.0  0.63731  0.05619  0.31180  1.0000
  S   S153      1.0  0.57044  0.20915  0.40836  1.0000
  Fe  Fe80      1.0  0.71220  0.10285  0.33332  1.0000
  S   S154      1.0  0.67572  0.08980  0.35793  1.0000
  S   S155      1.0  0.75502  0.13218  0.34707  1.0000
  Fe  Fe81      1.0  0.66110  0.04781  0.34164  1.0000
  H   H932      1.0  0.68413  0.41187  0.32925  1.0000
  Fe  Fe82      1.0  0.65519  0.09964  0.32640  1.0000
  S   S156      1.0  0.62914  0.12285  0.33046  1.0000
  S   S157      1.0  0.69996  0.05954  0.32020  1.0000
  S   S158      1.0  0.69263  0.11494  0.30232  1.0000
  H   H933      1.0  0.87304  0.38352  0.28918  1.0000
  Fe  Fe83      1.0  0.60064  0.25252  0.41939  1.0000
  S   S159      1.0  0.62526  0.28789  0.39400  1.0000
  C   C538      1.0  0.73190  0.40545  0.37917  1.0000
  S   S160      1.0  0.62489  0.23854  0.44419  1.0000
  Fe  Fe84      1.0  0.95099  0.46893  0.33863  1.0000
  H   H934      1.0  0.98946  0.42662  0.25851  1.0000
  S   S161      1.0  0.92187  0.42207  0.34015  1.0000
  H   H935      1.0  0.86034  0.15421  0.40018  1.0000
  H   H936      1.0  0.86345  0.10460  0.42358  1.0000
  H   H937      1.0  0.71604  0.04048  0.26981  1.0000
  C   C539      1.0  0.87507  0.00963  0.41514  1.0000
  Fe  Fe85      1.0  0.79004  0.25483  0.42392  1.0000
  S   S162      1.0  0.83514  0.26417  0.41907  1.0000
  S   S163      1.0  0.75469  0.23647  0.39695  1.0000
  H   H938      1.0  0.57972  0.43628  0.27549  1.0000
  H   H939      1.0  0.53042  0.27275  0.41710  1.0000
  Fe  Fe86      1.0  0.84513  0.30271  0.44047  1.0000
  S   S164      1.0  0.88040  0.34729  0.43563  1.0000
  Fe  Fe87      1.0  0.82941  0.24157  0.45461  1.0000
  S   S165      1.0  0.84415  0.20923  0.46444  1.0000
  S   S166      1.0  0.80017  0.29473  0.44282  1.0000
  S   S167      1.0  0.78386  0.22997  0.45778  1.0000
  Fe  Fe88      1.0  0.54738  0.34723  0.32344  1.0000
  S   S168      1.0  0.56711  0.37303  0.35587  1.0000
  S   S169      1.0  0.54272  0.30376  0.32039  1.0000
  Fe  Fe89      1.0  0.53538  0.39133  0.29894  1.0000
  S   S170      1.0  0.55467  0.42138  0.32954  1.0000
  H   H940      1.0  0.70038  0.18494  0.46340  1.0000
  Fe  Fe90      1.0  0.58909  0.40846  0.33020  1.0000
  S   S171      1.0  0.63573  0.43883  0.33340  1.0000
  Fe  Fe91      1.0  0.53156  0.38391  0.35328  1.0000
  S   S172      1.0  0.57203  0.38170  0.29750  1.0000
  H   H941      1.0  0.95603  0.43615  0.29838  1.0000
  C   C540      1.0  0.49147  0.28726  0.37497  1.0000
  C   C541      1.0  0.65308  0.44525  0.36173  1.0000
  C   C542      1.0  0.68203  0.46341  0.36328  1.0000
  S   S173      1.0  0.50949  0.35482  0.32289  1.0000
  H   H942      1.0  0.71230  0.40406  0.33407  1.0000
  C   C543      1.0  0.82081  0.17331  0.46152  1.0000
  H   H943      1.0  0.89260  0.37529  0.26795  1.0000
  C   C544      1.0  0.52287  0.27495  0.39883  1.0000
  C   C545      1.0  0.78311  0.11572  0.45976  1.0000
  C   C546      1.0  0.77531  0.13564  0.45054  1.0000
  C   C547      1.0  0.79410  0.16428  0.45127  1.0000
  C   C548      1.0  0.62168  0.45123  0.26267  1.0000
  C   C549      1.0  0.89456  0.38936  0.28286  1.0000
  H   H944      1.0  0.69408  0.03213  0.37970  1.0000
  H   H945      1.0  0.78783  0.17934  0.44398  1.0000
  C   C550      1.0  0.91013  0.40186  0.36701  1.0000
  C   C551      1.0  0.92246  0.41219  0.38935  1.0000
  C   C552      1.0  0.91334  0.39505  0.41005  1.0000
  C   C553      1.0  0.89148  0.36758  0.40878  1.0000
  C   C554      1.0  0.87885  0.35740  0.38653  1.0000
  C   C555      1.0  0.88828  0.37439  0.36576  1.0000
  H   H946      1.0  0.93941  0.43316  0.39058  1.0000
  H   H947      1.0  0.92332  0.40309  0.42715  1.0000
  H   H948      1.0  0.86205  0.33632  0.38525  1.0000
  H   H949      1.0  0.87864  0.36613  0.34859  1.0000
  H   H950      1.0  0.85357  0.11154  0.38408  1.0000
  S   S174      1.0  0.72608  0.00368  0.47670  1.0000
  C   C556      1.0  0.96520  0.46097  0.45375  1.0000
  H   H951      1.0  0.85532  0.44464  0.37205  1.0000
  N   N40       1.0  0.59842  0.48138  0.27654  1.0000
  C   C557      1.0  0.60295  0.29176  0.37248  1.0000
  C   C558      1.0  0.60817  0.31852  0.36486  1.0000
  C   C559      1.0  0.59036  0.32220  0.34810  1.0000
  C   C560      1.0  0.56695  0.29908  0.33906  1.0000
  C   C561      1.0  0.56220  0.27216  0.34599  1.0000
  C   C562      1.0  0.58003  0.26849  0.36291  1.0000
  H   H952      1.0  0.62541  0.33647  0.37250  1.0000
  H   H953      1.0  0.59482  0.34296  0.34212  1.0000
  H   H954      1.0  0.54434  0.25419  0.33873  1.0000
  H   H955      1.0  0.57603  0.24770  0.36845  1.0000
  C   C563      1.0  0.62494  0.13513  0.35852  1.0000
  C   C564      1.0  0.60483  0.14480  0.36079  1.0000
  C   C565      1.0  0.60070  0.15436  0.38294  1.0000
  C   C566      1.0  0.61643  0.15396  0.40311  1.0000
  C   C567      1.0  0.63684  0.14469  0.40077  1.0000
  C   C568      1.0  0.64136  0.13571  0.37850  1.0000
  H   H956      1.0  0.59222  0.14470  0.34537  1.0000
  H   H957      1.0  0.58496  0.16151  0.38451  1.0000
  H   H958      1.0  0.64947  0.14478  0.41616  1.0000
  H   H959      1.0  0.65774  0.12952  0.37675  1.0000
  H   H960      1.0  0.76424  0.44862  0.37738  1.0000
  C   C569      1.0  0.75468  0.16099  0.36097  1.0000
  C   C570      1.0  0.73024  0.16426  0.36110  1.0000
  C   C571      1.0  0.73021  0.18722  0.37250  1.0000
  C   C572      1.0  0.75464  0.20717  0.38356  1.0000
  C   C573      1.0  0.77896  0.20374  0.38359  1.0000
  C   C574      1.0  0.77905  0.18084  0.37219  1.0000
  H   H961      1.0  0.71139  0.14926  0.35229  1.0000
  H   H962      1.0  0.71117  0.18927  0.37302  1.0000
  H   H963      1.0  0.79792  0.21895  0.39198  1.0000
  H   H964      1.0  0.79814  0.17875  0.37188  1.0000
  H   H965      1.0  0.89301  0.42265  0.26277  1.0000
  H   H966      1.0  0.63555  0.49168  0.29886  1.0000
  H   H967      1.0  0.69542  0.27657  0.33919  1.0000
  S   S175      1.0  0.51623  0.38674  0.38985  1.0000
  H   H968      1.0  0.55838  0.06621  0.38567  1.0000
  N   N41       1.0  0.83959  0.39642  0.44904  1.0000
  C   C575      1.0  0.85871  0.41600  0.43015  1.0000
  C   C576      1.0  0.82122  0.36922  0.43680  1.0000
  H   H969      1.0  0.89176  0.01930  0.42825  1.0000
  C   C577      1.0  0.88104  0.44477  0.43889  1.0000
  C   C578      1.0  0.80120  0.37038  0.41704  1.0000
  H   H970      1.0  0.89515  0.44301  0.45284  1.0000
  H   H971      1.0  0.86991  0.40611  0.42076  1.0000
  H   H972      1.0  0.84659  0.42047  0.41593  1.0000
  H   H973      1.0  0.80787  0.35282  0.44965  1.0000
  H   H974      1.0  0.83442  0.36072  0.42856  1.0000
  C   C579      1.0  0.84433  0.36532  0.48355  1.0000
  C   C580      1.0  0.82294  0.40970  0.45947  1.0000
  S   S176      1.0  0.84377  0.28098  0.47590  1.0000
  H   H975      1.0  0.58564  0.45243  0.24674  1.0000
  H   H976      1.0  0.89436  0.45633  0.42344  1.0000
  H   H977      1.0  0.78734  0.37889  0.42363  1.0000
  H   H978      1.0  0.81271  0.38243  0.40105  1.0000
  H   H979      1.0  0.78746  0.34882  0.41087  1.0000
  C   C581      1.0  0.65249  0.19534  0.48409  1.0000
  S   S177      1.0  0.69910  0.45940  0.43469  1.0000
  C   C582      1.0  0.69800  0.99870  0.39886  1.0000
  Fe  Fe92      1.0  0.77442  0.45174  0.48175  1.0000
  H   H980      1.0  0.52125  0.31446  0.44553  1.0000
  H   H981      1.0  0.86639  0.41006  0.48075  1.0000
  H   H982      1.0  0.59206  0.08842  0.39656  1.0000
  H   H983      1.0  0.81250  0.06538  0.35171  1.0000
  H   H984      1.0  0.54214  0.28792  0.38836  1.0000
  S   S178      1.0  0.84063  0.01258  0.44973  1.0000
  N   N42       1.0  0.58482  0.04580  0.39148  1.0000
  C   C583      1.0  0.57626  0.04873  0.34585  1.0000
  H   H985      1.0  0.53934  0.32913  0.39256  1.0000
  H   H986      1.0  0.93256  0.39459  0.24461  1.0000
  H   H987      1.0  0.90992  0.43294  0.29110  1.0000
  H   H988      1.0  0.82981  0.07636  0.38822  1.0000
  H   H989      1.0  0.74398  0.40063  0.39342  1.0000
  H   H990      1.0  0.57733  0.06313  0.43787  1.0000
  H   H991      1.0  0.94888  0.40418  0.28454  1.0000
  H   H992      1.0  0.79262  0.11093  0.35344  1.0000
  H   H993      1.0  0.61326  0.07578  0.36605  1.0000
  H   H994      1.0  0.91015  0.46903  0.25432  1.0000
  Fe  Fe93      1.0  0.76473  0.04197  0.46507  1.0000
  S   S179      1.0  0.49840  0.19550  0.43334  1.0000
  H   H995      1.0  0.62420  0.08813  0.42475  1.0000
  C   C584      1.0  0.56266  0.06317  0.42363  1.0000
  C   C585      1.0  0.57490  0.06673  0.39829  1.0000
  S   S180      1.0  0.78470  0.49646  0.42325  1.0000
  Fe  Fe94      1.0  0.59570  0.23766  0.47266  1.0000
  C   C586      1.0  0.53675  0.32381  0.43100  1.0000
  H   H996      1.0  0.78794  0.36962  0.47240  1.0000
  H   H997      1.0  0.55582  0.45954  0.28948  1.0000
  H   H998      1.0  0.83702  0.42877  0.46951  1.0000
  C   C587      1.0  0.55374  0.47908  0.25584  1.0000
  C   C588      1.0  0.70681  0.02891  0.25365  1.0000
  C   C589      1.0  0.71684  0.01108  0.24435  1.0000
  C   C590      1.0  0.69851  0.20194  0.45351  1.0000
  H   H999      1.0  0.71586  0.21059  0.44038  1.0000
  H   H1000     1.0  0.95646  0.45972  0.43538  1.0000
  H   H1001     1.0  0.55842  0.08111  0.42715  1.0000
  N   N43       1.0  0.67752  0.23483  0.35428  1.0000
  C   C591      1.0  0.69553  0.22728  0.33844  1.0000
  C   C592      1.0  0.69229  0.26610  0.35709  1.0000
  C   C593      1.0  0.64939  0.22576  0.34187  1.0000
  C   C594      1.0  0.67423  0.21962  0.37787  1.0000
  C   C595      1.0  0.68211  0.19687  0.32952  1.0000
  C   C596      1.0  0.72108  0.27805  0.37005  1.0000
  C   C597      1.0  0.63163  0.24022  0.34912  1.0000
  C   C598      1.0  0.65935  0.22660  0.39801  1.0000
  H   H1002     1.0  0.70200  0.24096  0.32214  1.0000
  H   H1003     1.0  0.71537  0.23072  0.34782  1.0000
  H   H1004     1.0  0.67952  0.27372  0.36704  1.0000
  H   H1005     1.0  0.65217  0.22935  0.32213  1.0000
  H   H1006     1.0  0.63597  0.20287  0.34430  1.0000
  H   H1007     1.0  0.66206  0.19678  0.37532  1.0000
  H   H1008     1.0  0.69470  0.22201  0.38513  1.0000
  H   H1009     1.0  0.67574  0.18147  0.34441  1.0000
  H   H1010     1.0  0.66385  0.19197  0.31738  1.0000
  H   H1011     1.0  0.69785  0.19369  0.31912  1.0000
  H   H1012     1.0  0.72953  0.30100  0.37162  1.0000
  H   H1013     1.0  0.71943  0.26951  0.38853  1.0000
  H   H1014     1.0  0.87652  0.39204  0.45992  1.0000
  H   H1015     1.0  0.64099  0.26222  0.34264  1.0000
  H   H1016     1.0  0.62812  0.23955  0.36858  1.0000
  H   H1017     1.0  0.61057  0.22936  0.34048  1.0000
  H   H1018     1.0  0.63629  0.21357  0.39674  1.0000
  H   H1019     1.0  0.66425  0.24882  0.39870  1.0000
  H   H1020     1.0  0.66667  0.22222  0.41558  1.0000
  N   N44       1.0  0.70082  0.38661  0.38180  1.0000
  C   C599      1.0  0.69328  0.38974  0.40712  1.0000
  C   C600      1.0  0.69411  0.35637  0.37872  1.0000
  C   C601      1.0  0.68341  0.39466  0.36488  1.0000
  C   C602      1.0  0.66250  0.37114  0.41435  1.0000
  C   C603      1.0  0.70973  0.34969  0.35896  1.0000
  C   C604      1.0  0.68984  0.39638  0.33796  1.0000
  H   H1021     1.0  0.70672  0.38541  0.42031  1.0000
  H   H1022     1.0  0.69727  0.41145  0.41047  1.0000
  H   H1023     1.0  0.69857  0.34761  0.39561  1.0000
  H   H1024     1.0  0.67132  0.34335  0.37514  1.0000
  H   H1025     1.0  0.66082  0.37981  0.36636  1.0000
  H   H1026     1.0  0.68406  0.41465  0.37014  1.0000
  H   H1027     1.0  0.64776  0.37678  0.40424  1.0000
  H   H1028     1.0  0.65607  0.34857  0.41250  1.0000
  H   H1029     1.0  0.66021  0.37469  0.43355  1.0000
  H   H1030     1.0  0.73671  0.44384  0.39704  1.0000
  H   H1031     1.0  0.73200  0.35650  0.36418  1.0000
  H   H1032     1.0  0.70863  0.35888  0.34136  1.0000
  H   H1033     1.0  0.69986  0.32673  0.35668  1.0000
  H   H1034     1.0  0.67728  0.37585  0.32936  1.0000
  C   C605      1.0  0.84480  0.47136  0.39336  1.0000
  C   C606      1.0  0.74116  0.43710  0.37975  1.0000
  C   C607      1.0  0.85782  0.39225  0.46812  1.0000
  C   C608      1.0  0.94736  0.46209  0.25887  1.0000
  H   H1035     1.0  0.74008  0.40209  0.36213  1.0000
  S   S181      1.0  0.81215  0.44443  0.40217  1.0000
  Fe  Fe95      1.0  0.96410  0.01291  0.31039  1.0000
  H   H1036     1.0  0.73677  0.27447  0.36002  1.0000
  Fe  Fe96      1.0  0.59288  0.19500  0.43548  1.0000
  S   S182      1.0  0.57402  0.25581  0.44847  1.0000
  H   H1037     1.0  0.75455  0.12892  0.44285  1.0000
  H   H1038     1.0  0.75707  0.10274  0.39822  1.0000
  C   C609      1.0  0.81007  0.12462  0.46944  1.0000
  H   H1039     1.0  0.54820  0.34664  0.43420  1.0000
  S   S183      1.0  0.81672  0.47559  0.46523  1.0000
  H   H1040     1.0  0.73159  0.44391  0.36488  1.0000
  S   S184      1.0  0.61100  0.16443  0.43154  1.0000
  H   H1041     1.0  0.73875  0.06584  0.40139  1.0000
  S   S185      1.0  0.75294  0.43280  0.44714  1.0000
  C   C610      1.0  0.69656  0.46794  0.38544  1.0000
  C   C611      1.0  0.63872  0.43212  0.38260  1.0000
  H   H1042     1.0  0.61643  0.41836  0.38178  1.0000
  C   C612      1.0  0.75636  0.08306  0.39186  1.0000
  C   C613      1.0  0.95616  0.42677  0.28082  1.0000
  C   C614      1.0  0.63123  0.07504  0.41461  1.0000
  H   H1043     1.0  0.95111  0.47307  0.27625  1.0000
  H   H1044     1.0  0.51115  0.33173  0.40533  1.0000
  H   H1045     1.0  0.77628  0.05921  0.35276  1.0000
  C   C615      1.0  0.56942  0.47897  0.27933  1.0000
  H   H1046     1.0  0.50643  0.24618  0.36832  1.0000
  Fe  Fe97      1.0  0.79413  0.46045  0.43021  1.0000
  C   C616      1.0  0.84339  0.15618  0.38993  1.0000
  Fe  Fe98      1.0  0.54512  0.21105  0.43956  1.0000
  H   H1047     1.0  0.53265  0.47666  0.26037  1.0000
  H   H1048     1.0  0.75123  0.08069  0.37244  1.0000
  Fe  Fe99      1.0  0.79770  0.00881  0.45837  1.0000
  H   H1049     1.0  0.55251  0.31586  0.43214  1.0000
  C   C617      1.0  0.81439  0.13156  0.39505  1.0000
  C   C618      1.0  0.82884  0.15335  0.47030  1.0000
  C   C619      1.0  0.59731  0.05348  0.36682  1.0000
  C   C620      1.0  0.84760  0.00422  0.42087  1.0000
  H   H1050     1.0  0.84342  0.17577  0.39587  1.0000
  S   S186      1.0  0.56497  0.19285  0.46597  1.0000
  H   H1051     1.0  0.64503  0.00643  0.29092  1.0000
  H   H1052     1.0  0.94825  0.45493  0.46705  1.0000
  C   C621      1.0  0.88795  0.48721  0.37098  1.0000
  C   C622      1.0  0.50974  0.24550  0.38796  1.0000
  C   C623      1.0  0.60696  0.04611  0.40881  1.0000
  S   S187      1.0  0.77243  0.02162  0.43319  1.0000
  H   H1053     1.0  0.78042  0.06002  0.39326  1.0000
  H   H1054     1.0  0.83732  0.11442  0.43053  1.0000
  C   C624      1.0  0.68214  0.45461  0.40628  1.0000
  C   C625      1.0  0.65314  0.43695  0.40474  1.0000
  H   H1055     1.0  0.81379  0.41788  0.44525  1.0000
  C   C626      1.0  0.78368  0.08125  0.39791  1.0000
  H   H1056     1.0  0.82783  0.11746  0.35152  1.0000
  H   H1057     1.0  0.64172  0.42682  0.42079  1.0000
  C   C627      1.0  0.79794  0.07437  0.34778  1.0000
  C   C628      1.0  0.79938  0.39190  0.47702  1.0000
  S   S188      1.0  0.52108  0.40434  0.26415  1.0000
  H   H1058     1.0  0.72306  0.23716  0.47578  1.0000
  H   H1059     1.0  0.63695  0.46697  0.25032  1.0000
  C   C629      1.0  0.98709  0.43831  0.27366  1.0000
  H   H1060     1.0  0.79866  0.13719  0.38662  1.0000
  H   H1061     1.0  0.78585  0.08208  0.41774  1.0000
  H   H1062     1.0  0.60900  0.04160  0.36273  1.0000
  H   H1063     1.0  0.87133  0.45767  0.44530  1.0000
  S   S189      1.0  0.67256  0.05502  0.25238  1.0000
  H   H1064     1.0  0.61695  0.03363  0.40180  1.0000
  C   C630      1.0  0.84082  0.09859  0.42094  1.0000
  H   H1065     1.0  0.71963  0.01147  0.40411  1.0000
  H   H1066     1.0  0.81063  0.13133  0.41456  1.0000
  C   C631      1.0  0.68528  0.03217  0.24175  1.0000
  H   H1067     1.0  0.64206  0.08634  0.39825  1.0000
  H   H1068     1.0  0.84065  0.34674  0.47293  1.0000
  C   C632      1.0  0.90850  0.42039  0.27500  1.0000
  C   C633      1.0  0.86203  0.46566  0.37827  1.0000
  H   H1069     1.0  0.54237  0.04398  0.42513  1.0000
  H   H1070     1.0  0.63190  0.45161  0.28023  1.0000
  C   C634      1.0  0.59481  0.45474  0.26509  1.0000
  S   S190      1.0  0.76371  0.48729  0.47889  1.0000
  C   C635      1.0  0.68359  0.01037  0.38505  1.0000
  H   H1071     1.0  0.82822  0.07792  0.42963  1.0000
  N   N45       1.0  0.93679  0.43122  0.26323  1.0000
  N   N46       1.0  0.80990  0.10337  0.38665  1.0000
  H   H1072     1.0  0.79771  0.07727  0.32802  1.0000
  Fe  Fe100     1.0  0.79829  0.27055  0.47656  1.0000
  Fe  Fe101     1.0  0.74464  0.46991  0.44283  1.0000
  H   H1073     1.0  0.55562  0.04665  0.35107  1.0000
  C   C636      1.0  0.80743  0.10296  0.35968  1.0000
  H   H1074     1.0  0.84814  0.15866  0.37054  1.0000
  H   H1075     1.0  0.78313  0.39929  0.47636  1.0000
  H   H1076     1.0  0.60513  0.46240  0.30900  1.0000
  H   H1077     1.0  0.97294  0.44506  0.45507  1.0000
  H   H1078     1.0  0.69332  0.47380  0.34727  1.0000
  H   H1079     1.0  0.64706  0.07230  0.42600  1.0000
  C   C637      1.0  0.83404  0.09763  0.39381  1.0000
  N   N47       1.0  0.50405  0.28895  0.39968  1.0000
  H   H1080     1.0  0.58526  0.06669  0.33312  1.0000
  C   C638      1.0  0.56033  0.01694  0.39190  1.0000
  H   H1081     1.0  0.64396  0.20293  0.46892  1.0000
  H   H1082     1.0  0.59756  0.03587  0.42615  1.0000
  H   H1083     1.0  0.57329  0.03031  0.33529  1.0000
  C   C639      1.0  0.52250  0.31903  0.40608  1.0000
  H   H1084     1.0  0.54207  0.01627  0.38160  1.0000
  C   C640      1.0  0.92799  0.47041  0.24361  1.0000
  H   H1085     1.0  0.90100  0.48262  0.35923  1.0000
  S   S191      1.0  0.92069  0.99935  0.29515  1.0000
  H   H1086     1.0  0.52445  0.23638  0.39078  1.0000
  S   S192      1.0  0.75778  0.08031  0.46006  1.0000
  H   H1087     1.0  0.84954  0.16019  0.47813  1.0000
  S   S193      1.0  0.94938  0.99908  0.34801  1.0000
  H   H1088     1.0  0.50814  0.29358  0.36123  1.0000
  H   H1089     1.0  0.90255  0.00822  0.38785  1.0000
  C   C641      1.0  0.88123  0.00324  0.39231  1.0000
  H   H1090     1.0  0.67865  0.19316  0.44289  1.0000
  H   H1091     1.0  0.90572  0.38547  0.29829  1.0000
  H   H1092     1.0  0.69704  0.24039  0.45767  1.0000
  H   H1093     1.0  0.71913  0.01267  0.33082  1.0000
  H   H1094     1.0  0.81625  0.10944  0.47665  1.0000
  H   H1095     1.0  0.65291  0.17648  0.47704  1.0000
  H   H1096     1.0  0.71880  0.48198  0.38645  1.0000
  C   C642      1.0  0.93339  0.41526  0.24045  1.0000
  S   S194      1.0  0.63649  0.00715  0.36127  1.0000
  C   C643      1.0  0.61245  0.48346  0.30073  1.0000
  H   H1097     1.0  0.96807  0.47192  0.25016  1.0000
  C   C644      1.0  0.49204  0.22701  0.46887  1.0000
  H   H1098     1.0  0.58602  0.49023  0.32685  1.0000
  H   H1099     1.0  0.93777  0.49219  0.45834  1.0000
  H   H1100     1.0  0.71999  0.27674  0.48805  1.0000
  H   H1101     1.0  0.55004  0.46139  0.24409  1.0000
  H   H1102     1.0  0.51270  0.23088  0.47521  1.0000
  H   H1103     1.0  0.68712  0.00304  0.29790  1.0000
  H   H1104     1.0  0.55259  0.01072  0.41050  1.0000
  S   S195      1.0  0.96385  0.49554  0.37114  1.0000
  H   H1105     1.0  0.73348  0.00868  0.25371  1.0000
  H   H1106     1.0  0.61582  0.43043  0.25492  1.0000
  C   C645      1.0  0.70070  0.22567  0.46984  1.0000
  H   H1107     1.0  0.67008  0.99841  0.32576  1.0000
  C   C646      1.0  0.98980  0.48998  0.45898  1.0000
  H   H1108     1.0  0.66677  0.24861  0.48373  1.0000
  H   H1109     1.0  0.57287  0.99659  0.36367  1.0000
  H   H1110     1.0  0.56957  0.49601  0.29018  1.0000
  S   S196      1.0  0.86919  0.45594  0.58496  1.0000
  S   S197      1.0  0.90045  0.44884  0.64468  1.0000
  Fe  Fe102     1.0  0.83264  0.44344  0.67128  1.0000
  S   S198      1.0  0.83141  0.41278  0.64395  1.0000
  S   S199      1.0  0.79497  0.44243  0.68928  1.0000
  Fe  Fe103     1.0  0.86750  0.41332  0.66534  1.0000
  S   S200      1.0  0.87277  0.37438  0.66821  1.0000
  Fe  Fe104     1.0  0.86428  0.45038  0.62514  1.0000
  S   S201      1.0  0.86597  0.44058  0.69462  1.0000
  Fe  Fe105     1.0  0.64247  0.35058  0.64544  1.0000
  S   S202      1.0  0.62963  0.33955  0.68385  1.0000
  S   S203      1.0  0.68361  0.37923  0.62811  1.0000
  Fe  Fe106     1.0  0.58683  0.30588  0.62546  1.0000
  S   S204      1.0  0.56895  0.29082  0.66213  1.0000
  S   S205      1.0  0.56240  0.29003  0.59070  1.0000
  Fe  Fe107     1.0  0.58769  0.33620  0.67189  1.0000
  S   S206      1.0  0.56138  0.35485  0.68825  1.0000
  Fe  Fe108     1.0  0.61179  0.29509  0.67136  1.0000
  S   S207      1.0  0.61959  0.26356  0.69319  1.0000
  S   S208      1.0  0.60227  0.35095  0.63418  1.0000
  S   S209      1.0  0.62801  0.30655  0.63405  1.0000
  Fe  Fe109     1.0  0.75589  0.23150  0.68386  1.0000
  S   S210      1.0  0.74672  0.23939  0.64597  1.0000
  S   S211      1.0  0.76959  0.26726  0.70920  1.0000
  Fe  Fe110     1.0  0.73709  0.16970  0.67644  1.0000
  S   S212      1.0  0.72668  0.17273  0.63748  1.0000
  S   S213      1.0  0.72924  0.12639  0.68941  1.0000
  Fe  Fe111     1.0  0.76682  0.21265  0.63636  1.0000
  S   S214      1.0  0.79816  0.22458  0.60635  1.0000
  Fe  Fe112     1.0  0.70749  0.19918  0.65038  1.0000
  S   S215      1.0  0.66709  0.19552  0.63460  1.0000
  S   S216      1.0  0.77929  0.20765  0.67425  1.0000
  S   S217      1.0  0.71476  0.19335  0.68927  1.0000
  S   S218      1.0  0.61798  0.25351  0.50814  1.0000
  C   C647      1.0  0.79348  0.43243  0.53499  1.0000
  C   C648      1.0  0.79115  0.23803  0.57950  1.0000
  C   C649      1.0  0.80998  0.24482  0.56050  1.0000
  C   C650      1.0  0.80476  0.25513  0.53867  1.0000
  C   C651      1.0  0.78088  0.25912  0.53582  1.0000
  C   C652      1.0  0.76218  0.25263  0.55491  1.0000
  C   C653      1.0  0.76714  0.24183  0.57662  1.0000
  H   H1111     1.0  0.82861  0.24197  0.56264  1.0000
  H   H1112     1.0  0.81937  0.26016  0.52413  1.0000
  H   H1113     1.0  0.74370  0.25574  0.55291  1.0000
  H   H1114     1.0  0.75242  0.23648  0.59115  1.0000
  C   C654      1.0  0.71902  0.11244  0.71860  1.0000
  H   H1115     1.0  0.66519  0.23870  0.51440  1.0000
  H   H1116     1.0  0.81792  0.49280  0.57909  1.0000
  H   H1117     1.0  0.67273  0.34546  0.58756  1.0000
  H   H1118     1.0  0.76558  0.31095  0.58089  1.0000
  C   C655      1.0  0.57736  0.27890  0.56800  1.0000
  C   C656      1.0  0.56610  0.27514  0.54464  1.0000
  C   C657      1.0  0.57788  0.26665  0.52617  1.0000
  C   C658      1.0  0.60128  0.26226  0.53096  1.0000
  C   C659      1.0  0.61259  0.26613  0.55426  1.0000
  C   C660      1.0  0.60054  0.27418  0.57275  1.0000
  H   H1119     1.0  0.54843  0.27910  0.54073  1.0000
  H   H1120     1.0  0.56915  0.26391  0.50820  1.0000
  H   H1121     1.0  0.63062  0.26267  0.55810  1.0000
  H   H1122     1.0  0.60911  0.27651  0.59069  1.0000
  C   C661      1.0  0.63044  0.24272  0.67680  1.0000
  C   C662      1.0  0.64324  0.22845  0.68891  1.0000
  C   C663      1.0  0.65479  0.21416  0.67603  1.0000
  C   C664      1.0  0.65252  0.21308  0.65103  1.0000
  C   C665      1.0  0.63832  0.22601  0.63900  1.0000
  C   C666      1.0  0.62752  0.24101  0.65184  1.0000
  H   H1123     1.0  0.64498  0.22918  0.70825  1.0000
  H   H1124     1.0  0.66532  0.20389  0.68544  1.0000
  H   H1125     1.0  0.63601  0.22477  0.61969  1.0000
  H   H1126     1.0  0.61658  0.25084  0.64242  1.0000
  H   H1127     1.0  0.66428  0.38073  0.51996  1.0000
  H   H1128     1.0  0.86670  0.02273  0.53468  1.0000
  H   H1129     1.0  0.68873  0.28111  0.66649  1.0000
  C   C667      1.0  0.71412  0.39707  0.64551  1.0000
  C   C668      1.0  0.71288  0.40194  0.66986  1.0000
  C   C669      1.0  0.73781  0.41668  0.68309  1.0000
  C   C670      1.0  0.76395  0.42595  0.67213  1.0000
  C   C671      1.0  0.76510  0.42102  0.64780  1.0000
  C   C672      1.0  0.74023  0.40684  0.63447  1.0000
  H   H1130     1.0  0.69276  0.39471  0.67839  1.0000
  H   H1131     1.0  0.73685  0.42050  0.70193  1.0000
  H   H1132     1.0  0.78515  0.42845  0.63915  1.0000
  H   H1133     1.0  0.74129  0.40332  0.61559  1.0000
  C   C673      1.0  0.84405  0.34491  0.67982  1.0000
  C   C674      1.0  0.83929  0.31833  0.67264  1.0000
  C   C675      1.0  0.81610  0.29445  0.68125  1.0000
  C   C676      1.0  0.79845  0.29702  0.69803  1.0000
  C   C677      1.0  0.80366  0.32357  0.70572  1.0000
  C   C678      1.0  0.82599  0.34757  0.69613  1.0000
  H   H1134     1.0  0.85344  0.31619  0.66028  1.0000
  H   H1135     1.0  0.81234  0.27401  0.67540  1.0000
  H   H1136     1.0  0.79046  0.32554  0.71916  1.0000
  H   H1137     1.0  0.82983  0.36805  0.70196  1.0000
  H   H1138     1.0  0.88030  0.37195  0.58323  1.0000
  H   H1139     1.0  0.88680  0.39333  0.60887  1.0000
  H   H1140     1.0  0.77168  0.35708  0.70706  1.0000
  H   H1141     1.0  0.70294  0.42120  0.53158  1.0000
  H   H1142     1.0  0.66620  0.19204  0.73269  1.0000
  H   H1143     1.0  0.71570  0.22507  0.51556  1.0000
  H   H1144     1.0  0.71854  0.38744  0.55149  1.0000
  C   C679      1.0  0.72694  0.30584  0.70273  1.0000
  H   H1145     1.0  0.82557  0.49310  0.53903  1.0000
  H   H1146     1.0  0.52075  0.29953  0.56800  1.0000
  H   H1147     1.0  0.80759  0.39399  0.49569  1.0000
  H   H1148     1.0  0.85916  0.36657  0.49822  1.0000
  H   H1149     1.0  0.82946  0.14729  0.52662  1.0000
  H   H1150     1.0  0.67576  0.30952  0.68655  1.0000
  H   H1151     1.0  0.79533  0.20547  0.50788  1.0000
  H   H1152     1.0  0.74451  0.30166  0.69746  1.0000
  H   H1153     1.0  0.68919  0.36767  0.51979  1.0000
  C   C680      1.0  0.76358  0.36620  0.69288  1.0000
  H   H1154     1.0  0.70695  0.39308  0.57953  1.0000
  H   H1155     1.0  0.78240  0.38270  0.68404  1.0000
  C   C681      1.0  0.82055  0.44313  0.52584  1.0000
  H   H1156     1.0  0.72380  0.29088  0.65825  1.0000
  C   C682      1.0  0.70557  0.26961  0.50349  1.0000
  C   C683      1.0  0.70340  0.31099  0.63778  1.0000
  C   C684      1.0  0.78124  0.32759  0.56943  1.0000
  H   H1157     1.0  0.69570  0.42912  0.56146  1.0000
  H   H1158     1.0  0.91984  0.48083  0.72798  1.0000
  H   H1159     1.0  0.59334  0.10465  0.68455  1.0000
  C   C685      1.0  0.69679  0.32795  0.68836  1.0000
  C   C686      1.0  0.69350  0.33322  0.56107  1.0000
  H   H1160     1.0  0.84518  0.33587  0.56366  1.0000
  H   H1161     1.0  0.69642  0.34360  0.67524  1.0000
  H   H1162     1.0  0.86443  0.45796  0.53420  1.0000
  H   H1163     1.0  0.51022  0.32549  0.57271  1.0000
  H   H1164     1.0  0.84738  0.49420  0.70831  1.0000
  H   H1165     1.0  0.76301  0.20672  0.50992  1.0000
  C   C687      1.0  0.65445  0.11264  0.68477  1.0000
  H   H1166     1.0  0.84006  0.14171  0.72238  1.0000
  H   H1167     1.0  0.51460  0.30450  0.61060  1.0000
  H   H1168     1.0  0.51277  0.27399  0.69324  1.0000
  C   C688      1.0  0.70757  0.42083  0.55100  1.0000
  H   H1169     1.0  0.67609  0.16441  0.50217  1.0000
  H   H1170     1.0  0.65206  0.39421  0.55499  1.0000
  C   C689      1.0  0.50267  0.32993  0.52542  1.0000
  H   H1171     1.0  0.67869  0.15396  0.72673  1.0000
  H   H1172     1.0  0.71426  0.34719  0.56910  1.0000
  C   C690      1.0  0.70321  0.27795  0.71152  1.0000
  H   H1173     1.0  0.58034  0.12522  0.70020  1.0000
  S   S219      1.0  0.86242  0.48120  0.65058  1.0000
  C   C691      1.0  0.49559  0.28013  0.69270  1.0000
  H   H1174     1.0  0.72669  0.10467  0.52519  1.0000
  H   H1175     1.0  0.73014  0.43552  0.55371  1.0000
  C   C692      1.0  0.69470  0.18112  0.51088  1.0000
  H   H1176     1.0  0.63929  0.11744  0.67459  1.0000
  H   H1177     1.0  0.75824  0.05382  0.69106  1.0000
  H   H1178     1.0  0.71806  0.34788  0.72317  1.0000
  H   H1179     1.0  0.68147  0.32286  0.72520  1.0000
  H   H1180     1.0  0.81025  0.48726  0.72775  1.0000
  H   H1181     1.0  0.53080  0.37936  0.71086  1.0000
  C   C693      1.0  0.71067  0.08392  0.72261  1.0000
  H   H1182     1.0  0.70011  0.26101  0.69904  1.0000
  H   H1183     1.0  0.65699  0.15657  0.70376  1.0000
  C   C694      1.0  0.82118  0.12171  0.71851  1.0000
  H   H1184     1.0  0.65061  0.32407  0.56509  1.0000
  N   N48       1.0  0.82331  0.33382  0.59654  1.0000
  C   C695      1.0  0.81880  0.09981  0.73798  1.0000
  C   C696      1.0  0.84712  0.35570  0.61079  1.0000
  C   C697      1.0  0.80433  0.31128  0.61360  1.0000
  C   C698      1.0  0.83405  0.32081  0.57838  1.0000
  C   C699      1.0  0.78774  0.31981  0.63110  1.0000
  C   C700      1.0  0.85369  0.30909  0.58826  1.0000
  H   H1185     1.0  0.80166  0.33742  0.64259  1.0000
  C   C701      1.0  0.66916  0.36440  0.52813  1.0000
  H   H1186     1.0  0.85751  0.34607  0.62243  1.0000
  H   H1187     1.0  0.83919  0.36606  0.62336  1.0000
  H   H1188     1.0  0.78899  0.29261  0.60376  1.0000
  H   H1189     1.0  0.81657  0.30344  0.62496  1.0000
  H   H1190     1.0  0.81629  0.30307  0.56948  1.0000
  H   H1191     1.0  0.74039  0.35713  0.65997  1.0000
  C   C702      1.0  0.87012  0.37956  0.59622  1.0000
  H   H1192     1.0  0.61890  0.33566  0.57744  1.0000
  H   H1193     1.0  0.83473  0.45708  0.73129  1.0000
  H   H1194     1.0  0.75238  0.37681  0.70080  1.0000
  H   H1195     1.0  0.87364  0.32567  0.59551  1.0000
  H   H1196     1.0  0.85928  0.29924  0.57338  1.0000
  H   H1197     1.0  0.84346  0.29266  0.60214  1.0000
  N   N49       1.0  0.77721  0.15518  0.53728  1.0000
  C   C703      1.0  0.76519  0.17541  0.53379  1.0000
  C   C704      1.0  0.76487  0.13812  0.55969  1.0000
  C   C705      1.0  0.76999  0.13573  0.51641  1.0000
  C   C706      1.0  0.80870  0.17157  0.53908  1.0000
  H   H1198     1.0  0.50673  0.30054  0.72678  1.0000
  C   C707      1.0  0.77467  0.15391  0.58350  1.0000
  C   C708      1.0  0.73844  0.11900  0.51036  1.0000
  C   C709      1.0  0.82482  0.15439  0.54378  1.0000
  H   H1199     1.0  0.74194  0.16467  0.53530  1.0000
  H   H1200     1.0  0.77250  0.19097  0.54835  1.0000
  H   H1201     1.0  0.76872  0.11953  0.56085  1.0000
  H   H1202     1.0  0.74160  0.12925  0.55934  1.0000
  H   H1203     1.0  0.61511  0.14128  0.69049  1.0000
  H   H1204     1.0  0.77802  0.12016  0.51953  1.0000
  H   H1205     1.0  0.81744  0.18312  0.52203  1.0000
  H   H1206     1.0  0.81545  0.18852  0.55252  1.0000
  C   C710      1.0  0.71956  0.12891  0.73785  1.0000
  H   H1207     1.0  0.63632  0.33893  0.50274  1.0000
  H   H1208     1.0  0.76864  0.17095  0.58451  1.0000
  H   H1209     1.0  0.76414  0.13930  0.59861  1.0000
  H   H1210     1.0  0.79758  0.16230  0.58663  1.0000
  H   H1211     1.0  0.80338  0.12666  0.71713  1.0000
  H   H1212     1.0  0.73490  0.31921  0.71867  1.0000
  Fe  Fe113     1.0  0.89596  0.47636  0.67205  1.0000
  H   H1213     1.0  0.68730  0.31193  0.56849  1.0000
  H   H1214     1.0  0.81365  0.13601  0.55558  1.0000
  H   H1215     1.0  0.84489  0.16758  0.55324  1.0000
  H   H1216     1.0  0.84407  0.03839  0.52990  1.0000
  H   H1217     1.0  0.49252  0.45466  0.58027  1.0000
  H   H1218     1.0  0.70028  0.28674  0.50752  1.0000
  H   H1219     1.0  0.60928  0.36293  0.57568  1.0000
  H   H1220     1.0  0.68965  0.32109  0.63988  1.0000
  H   H1221     1.0  0.65864  0.38404  0.58396  1.0000
  C   C711      1.0  0.77272  0.05532  0.70612  1.0000
  H   H1222     1.0  0.77225  0.32493  0.62171  1.0000
  H   H1223     1.0  0.62967  0.32363  0.53179  1.0000
  H   H1224     1.0  0.96689  0.49180  0.50089  1.0000
  H   H1225     1.0  0.50307  0.25211  0.57001  1.0000
  C   C712      1.0  0.62153  0.35404  0.56650  1.0000
  H   H1226     1.0  0.76493  0.08832  0.71901  1.0000
  C   C713      1.0  0.69761  0.33926  0.71378  1.0000
  H   H1227     1.0  0.61089  0.16740  0.49707  1.0000
  S   S220      1.0  0.77410  0.27235  0.50870  1.0000
  H   H1228     1.0  0.82485  0.11533  0.70065  1.0000
  C   C714      1.0  0.64662  0.33571  0.51914  1.0000
  H   H1229     1.0  0.68304  0.20914  0.52930  1.0000
  C   C715      1.0  0.67122  0.34238  0.56783  1.0000
  C   C716      1.0  0.77246  0.19221  0.51000  1.0000
  H   H1230     1.0  0.76848  0.41908  0.56694  1.0000
  H   H1231     1.0  0.76765  0.03355  0.71140  1.0000
  N   N50       1.0  0.67315  0.36809  0.55495  1.0000
  C   C717      1.0  0.55258  0.35498  0.71874  1.0000
  H   H1232     1.0  0.70995  0.07098  0.70778  1.0000
  C   C718      1.0  0.78937  0.42738  0.55973  1.0000
  C   C719      1.0  0.83952  0.44530  0.56615  1.0000
  H   H1233     1.0  0.67530  0.13128  0.68483  1.0000
  C   C720      1.0  0.65232  0.37645  0.56531  1.0000
  C   C721      1.0  0.69363  0.20914  0.51232  1.0000
  S   S221      1.0  0.76470  0.42564  0.51582  1.0000
  H   H1234     1.0  0.69249  0.29335  0.62527  1.0000
  C   C722      1.0  0.84735  0.02018  0.52515  1.0000
  H   H1235     1.0  0.72325  0.32587  0.62917  1.0000
  H   H1236     1.0  0.71391  0.18379  0.50169  1.0000
  H   H1237     1.0  0.80199  0.35972  0.59601  1.0000
  H   H1238     1.0  0.61186  0.34794  0.54849  1.0000
  H   H1239     1.0  0.73590  0.10575  0.49461  1.0000
  H   H1240     1.0  0.69544  0.33239  0.54141  1.0000
  C   C723      1.0  0.74561  0.34500  0.67381  1.0000
  H   H1241     1.0  0.86207  0.39292  0.58699  1.0000
  H   H1242     1.0  0.80924  0.43090  0.59448  1.0000
  H   H1243     1.0  0.82163  0.36303  0.57009  1.0000
  H   H1244     1.0  0.68327  0.27906  0.71389  1.0000
  H   H1245     1.0  0.82389  0.44684  0.50685  1.0000
  N   N51       1.0  0.68129  0.21762  0.49108  1.0000
  C   C724      1.0  0.70215  0.39150  0.55992  1.0000
  C   C725      1.0  0.55986  0.34103  0.73682  1.0000
  C   C726      1.0  0.70889  0.29951  0.66181  1.0000
  H   H1246     1.0  0.78458  0.49530  0.53286  1.0000
  H   H1247     1.0  0.63726  0.17733  0.52008  1.0000
  N   N52       1.0  0.71946  0.31994  0.68224  1.0000
  H   H1248     1.0  0.77099  0.33984  0.56172  1.0000
  C   C727      1.0  0.81240  0.43401  0.57535  1.0000
  H   H1249     1.0  0.62754  0.08024  0.70902  1.0000
  H   H1250     1.0  0.78641  0.31800  0.55413  1.0000
  H   H1251     1.0  0.75988  0.33813  0.66511  1.0000
  H   H1252     1.0  0.77582  0.30197  0.64341  1.0000
  H   H1253     1.0  0.70933  0.27219  0.72910  1.0000
  C   C728      1.0  0.84347  0.44934  0.54136  1.0000
  C   C729      1.0  0.80783  0.34746  0.58348  1.0000
  H   H1254     1.0  0.65647  0.32261  0.51348  1.0000
  H   H1255     1.0  0.72876  0.13266  0.50531  1.0000
  H   H1256     1.0  0.62435  0.20136  0.50916  1.0000
  C   C730      1.0  0.50235  0.30246  0.57309  1.0000
  C   C731      1.0  0.49539  0.29304  0.59945  1.0000
  H   H1257     1.0  0.65708  0.09641  0.67475  1.0000
  C   C732      1.0  0.64504  0.10181  0.71050  1.0000
  H   H1258     1.0  0.85061  0.02152  0.50551  1.0000
  H   H1259     1.0  0.82871  0.08760  0.73024  1.0000
  H   H1260     1.0  0.52539  0.34054  0.53013  1.0000
  H   H1261     1.0  0.78079  0.14735  0.50003  1.0000
  H   H1262     1.0  0.79439  0.06614  0.69928  1.0000
  C   C733      1.0  0.53625  0.36822  0.72465  1.0000
  H   H1263     1.0  0.69487  0.17314  0.52937  1.0000
  H   H1264     1.0  0.66291  0.09935  0.71863  1.0000
  C   C734      1.0  0.63035  0.18507  0.50403  1.0000
  C   C735      1.0  0.67813  0.24298  0.49805  1.0000
  C   C736      1.0  0.59884  0.12141  0.69792  1.0000
  H   H1265     1.0  0.69152  0.35638  0.71250  1.0000
  H   H1266     1.0  0.71659  0.26684  0.51955  1.0000
  H   H1267     1.0  0.50389  0.30031  0.68272  1.0000
  H   H1268     1.0  0.82455  0.36197  0.49195  1.0000
  C   C737      1.0  0.76778  0.07082  0.72699  1.0000
  H   H1269     1.0  0.93237  0.48811  0.49955  1.0000
  S   S222      1.0  0.79313  0.03247  0.48954  1.0000
  H   H1270     1.0  0.72613  0.15095  0.73503  1.0000
  H   H1271     1.0  0.76388  0.17871  0.49414  1.0000
  C   C738      1.0  0.65670  0.14989  0.72268  1.0000
  H   H1272     1.0  0.49815  0.24976  0.53782  1.0000
  H   H1273     1.0  0.57255  0.33088  0.73259  1.0000
  H   H1274     1.0  0.50711  0.29263  0.52691  1.0000
  H   H1275     1.0  0.74682  0.05645  0.73444  1.0000
  N   N53       1.0  0.63698  0.11934  0.72638  1.0000
  C   C739      1.0  0.60671  0.11277  0.72234  1.0000
  H   H1276     1.0  0.62964  0.16856  0.73359  1.0000
  H   H1277     1.0  0.49994  0.33346  0.50606  1.0000
  H   H1278     1.0  0.59906  0.12157  0.73669  1.0000
  H   H1279     1.0  0.59294  0.08992  0.72406  1.0000
  C   C740      1.0  0.65074  0.17035  0.73757  1.0000
  H   H1280     1.0  0.49212  0.34016  0.53503  1.0000
  H   H1281     1.0  0.49836  0.49546  0.86277  1.0000
  Fe  Fe114     1.0  0.69438  0.03191  0.80274  1.0000
  H   H1282     1.0  0.63165  0.12203  0.76466  1.0000
  H   H1283     1.0  0.88251  0.48673  0.75180  1.0000
  H   H1284     1.0  0.79666  0.04373  0.74347  1.0000
  H   H1285     1.0  0.83966  0.44567  0.76022  1.0000
  H   H1286     1.0  0.55560  0.32860  0.77421  1.0000
  C   C741      1.0  0.91878  0.12518  0.93091  1.0000
  S   S223      1.0  0.51941  0.34812  0.79548  1.0000
  C   C742      1.0  0.83761  0.46282  0.75043  1.0000
  C   C743      1.0  0.77262  0.00189  0.90904  1.0000
  S   S224      1.0  0.73495  0.02912  0.80383  1.0000
  Fe  Fe115     1.0  0.86258  0.04713  0.96594  1.0000
  C   C744      1.0  0.96404  0.13245  0.91258  1.0000
  S   S225      1.0  0.85102  0.06041  0.92984  1.0000
  S   S226      1.0  0.89067  0.02625  0.96818  1.0000
  H   H1287     1.0  0.66298  0.12069  0.75718  1.0000
  C   C745      1.0  0.76815  0.01272  0.88712  1.0000
  N   N54       1.0  0.94133  0.11582  0.93023  1.0000
  C   C746      1.0  0.79777  0.01619  0.92230  1.0000
  C   C747      1.0  0.81886  0.04160  0.91380  1.0000
  C   C748      1.0  0.81444  0.05246  0.89185  1.0000
  C   C749      1.0  0.78924  0.03813  0.87856  1.0000
  H   H1288     1.0  0.98093  0.12591  0.91361  1.0000
  C   C750      1.0  0.64036  0.11218  0.75220  1.0000
  H   H1289     1.0  0.83055  0.07211  0.88511  1.0000
  H   H1290     1.0  0.78611  0.04677  0.86179  1.0000
  C   C751      1.0  0.92740  0.08573  0.92237  1.0000
  H   H1291     1.0  0.69743  0.05008  0.74853  1.0000
  C   C752      1.0  0.53288  0.35202  0.76604  1.0000
  H   H1292     1.0  0.76807  0.12029  0.74414  1.0000
  C   C753      1.0  0.71232  0.11693  0.76099  1.0000
  H   H1293     1.0  0.51324  0.37639  0.75218  1.0000
  C   C754      1.0  0.90497  0.12602  0.90658  1.0000
  H   H1294     1.0  0.77170  0.12724  0.77531  1.0000
  H   H1295     1.0  0.95623  0.12774  0.89374  1.0000
  H   H1296     1.0  0.79456  0.09766  0.78232  1.0000
  H   H1297     1.0  0.89327  0.10502  0.89867  1.0000
  H   H1298     1.0  0.93869  0.14070  0.97697  1.0000
  H   H1299     1.0  0.96404  0.07998  0.91173  1.0000
  H   H1300     1.0  0.86418  0.49344  0.77494  1.0000
  S   S227      1.0  0.67882  0.00651  0.83696  1.0000
  Fe  Fe116     1.0  0.71773  0.00056  0.83589  1.0000
  C   C755      1.0  0.50042  0.47035  0.79953  1.0000
  H   H1301     1.0  0.83117  0.07490  0.77618  1.0000
  C   C756      1.0  0.70452  0.08850  0.76504  1.0000
  C   C757      1.0  0.79009  0.05428  0.75710  1.0000
  C   C758      1.0  0.62654  0.08080  0.75894  1.0000
  H   H1302     1.0  0.96548  0.17321  0.92171  1.0000
  C   C759      1.0  0.94571  0.07039  0.92369  1.0000
  H   H1303     1.0  0.71319  0.12984  0.77590  1.0000
  H   H1304     1.0  0.92653  0.14626  0.93852  1.0000
  C   C760      1.0  0.95356  0.11674  0.95501  1.0000
  C   C761      1.0  0.98906  0.48459  0.84373  1.0000
  S   S228      1.0  0.69592  0.07412  0.79433  1.0000
  H   H1305     1.0  0.50420  0.48297  0.89106  1.0000
  H   H1306     1.0  0.83254  0.11130  0.75336  1.0000
  H   H1307     1.0  0.80263  0.13832  0.75798  1.0000
  C   C762      1.0  0.55013  0.33968  0.76038  1.0000
  H   H1308     1.0  0.93283  0.04859  0.91764  1.0000
  H   H1309     1.0  0.62976  0.07861  0.77847  1.0000
  H   H1310     1.0  0.97008  0.14046  0.98752  1.0000
  H   H1311     1.0  0.97308  0.48525  0.83118  1.0000
  H   H1312     1.0  0.90176  0.11140  0.94326  1.0000
  H   H1313     1.0  0.93930  0.09808  0.96556  1.0000
  H   H1314     1.0  0.97180  0.16213  0.96239  1.0000
  H   H1315     1.0  0.95271  0.06887  0.94228  1.0000
  H   H1316     1.0  0.97376  0.11560  0.95416  1.0000
  C   C763      1.0  0.52619  0.36651  0.74805  1.0000
  H   H1317     1.0  0.65339  0.16786  0.75707  1.0000
  H   H1318     1.0  0.50504  0.26068  0.97123  1.0000
  H   H1319     1.0  0.90859  0.07319  0.93343  1.0000
  H   H1320     1.0  0.49547  0.28743  0.96289  1.0000
  H   H1321     1.0  0.88922  0.13364  0.90949  1.0000
  H   H1322     1.0  0.91953  0.08376  0.90357  1.0000
  C   C764      1.0  0.97914  0.16441  0.91545  1.0000
  C   C765      1.0  0.80950  0.05829  0.77907  1.0000
  H   H1323     1.0  0.97800  0.46677  0.85630  1.0000
  C   C766      1.0  0.95876  0.14172  0.97097  1.0000
  H   H1324     1.0  0.93645  0.49255  0.77026  1.0000
  H   H1325     1.0  0.92041  0.14054  0.89364  1.0000
  H   H1326     1.0  0.80083  0.00753  0.93911  1.0000
  H   H1327     1.0  0.50555  0.45337  0.79698  1.0000
  H   H1328     1.0  0.63647  0.06955  0.74978  1.0000
  C   C767      1.0  0.78095  0.12135  0.76013  1.0000
  H   H1329     1.0  0.75919  0.07868  0.77229  1.0000
  C   C768      1.0  0.70360  0.07203  0.74570  1.0000
  N   N55       1.0  0.78975  0.08024  0.74670  1.0000
  H   H1330     1.0  0.76862  0.03872  0.76237  1.0000
  H   H1331     1.0  0.60362  0.07038  0.75547  1.0000
  H   H1332     1.0  0.81860  0.46321  0.75744  1.0000
  H   H1333     1.0  0.98658  0.17442  0.89764  1.0000
  C   C769      1.0  0.86409  0.49040  0.75529  1.0000
  H   H1334     1.0  0.81077  0.03852  0.78258  1.0000
  C   C770      1.0  0.78076  0.09331  0.76623  1.0000
  H   H1335     1.0  0.80083  0.06235  0.79558  1.0000
  C   C771      1.0  0.51810  0.78373  0.08014  1.0000
  H   H1336     1.0  0.82850  0.87699  0.19772  1.0000
  H   H1337     1.0  0.73602  0.95502  0.06383  1.0000
  H   H1338     1.0  0.98923  0.96552  0.21100  1.0000
  C   C772      1.0  0.74979  0.92404  0.05272  1.0000
  Fe  Fe117     1.0  0.68818  0.90927  0.13804  1.0000
  S   S229      1.0  0.71688  0.91522  0.17018  1.0000
  S   S230      1.0  0.65162  0.86775  0.12767  1.0000
  Fe  Fe118     1.0  0.72057  0.96898  0.12189  1.0000
  H   H1339     1.0  0.93494  0.74670  0.08001  1.0000
  Fe  Fe119     1.0  0.75193  0.93952  0.14463  1.0000
  S   S231      1.0  0.79718  0.94792  0.14270  1.0000
  Fe  Fe120     1.0  0.71426  0.95542  0.17547  1.0000
  H   H1340     1.0  0.81178  0.97289  0.02811  1.0000
  S   S232      1.0  0.72366  0.93043  0.11248  1.0000
  S   S233      1.0  0.68286  0.94756  0.14541  1.0000
  N   N56       1.0  0.83470  0.94239  0.21329  1.0000
  H   H1341     1.0  0.90065  0.75023  0.02235  1.0000
  H   H1342     1.0  0.83061  0.96338  0.08350  1.0000
  H   H1343     1.0  0.98680  0.78433  0.04183  1.0000
  H   H1344     1.0  0.82205  0.90248  0.23120  1.0000
  Fe  Fe121     1.0  0.88872  0.87642  0.11526  1.0000
  S   S234      1.0  0.91923  0.92197  0.11610  1.0000
  S   S235      1.0  0.84247  0.86042  0.12294  1.0000
  Fe  Fe122     1.0  0.93413  0.85922  0.10336  1.0000
  S   S236      1.0  0.96794  0.90362  0.10375  1.0000
  S   S237      1.0  0.94742  0.82536  0.09768  1.0000
  Fe  Fe123     1.0  0.94731  0.90847  0.13654  1.0000
  S   S238      1.0  0.97402  0.93457  0.16715  1.0000
  Fe  Fe124     1.0  0.93675  0.91285  0.08335  1.0000
  S   S239      1.0  0.95114  0.94336  0.05261  1.0000
  S   S240      1.0  0.91579  0.86323  0.13825  1.0000
  S   S241      1.0  0.90420  0.86816  0.08048  1.0000
  C   C773      1.0  0.96019  0.79852  0.02311  1.0000
  C   C774      1.0  0.94291  0.81152  0.02571  1.0000
  C   C775      1.0  0.93901  0.82019  0.04840  1.0000
  C   C776      1.0  0.95237  0.81587  0.06869  1.0000
  H   H1345     1.0  0.78740  0.93168  0.00159  1.0000
  C   C777      1.0  0.94919  0.87396  0.22946  1.0000
  H   H1346     1.0  0.93224  0.81462  0.01014  1.0000
  H   H1347     1.0  0.92532  0.82981  0.05024  1.0000
  C   C778      1.0  0.51715  0.68138  0.00942  1.0000
  H   H1348     1.0  0.93520  0.97728  0.08311  1.0000
  C   C779      1.0  0.92267  0.94599  0.03878  1.0000
  C   C780      1.0  0.79904  0.96227  0.21019  1.0000
  H   H1349     1.0  0.78386  0.91149  0.08930  1.0000
  C   C781      1.0  0.87744  0.95157  0.01760  1.0000
  C   C782      1.0  0.87249  0.92983  0.03399  1.0000
  C   C783      1.0  0.89508  0.92733  0.04487  1.0000
  H   H1350     1.0  0.85409  0.98062  0.19222  1.0000
  H   H1351     1.0  0.95950  0.97940  0.15450  1.0000
  H   H1352     1.0  0.85121  0.91517  0.03859  1.0000
  H   H1353     1.0  0.89105  0.91085  0.05786  1.0000
  H   H1354     1.0  0.51600  0.58433  0.99122  1.0000
  C   C784      1.0  0.85202  0.95912  0.19234  1.0000
  H   H1355     1.0  0.89054  0.65227  0.04202  1.0000
  H   H1356     1.0  0.51674  0.86380  0.08404  1.0000
  H   H1357     1.0  0.73277  0.94864  0.03208  1.0000
  C   C785      1.0  0.80813  0.92287  0.13531  1.0000
  C   C786      1.0  0.79050  0.89421  0.13750  1.0000
  C   C787      1.0  0.80108  0.87513  0.13326  1.0000
  C   C788      1.0  0.82921  0.88463  0.12675  1.0000
  C   C789      1.0  0.84641  0.91328  0.12390  1.0000
  C   C790      1.0  0.83598  0.93229  0.12828  1.0000
  H   H1358     1.0  0.76896  0.88677  0.14292  1.0000
  H   H1359     1.0  0.78758  0.85296  0.13535  1.0000
  H   H1360     1.0  0.86777  0.92086  0.11836  1.0000
  H   H1361     1.0  0.84965  0.95444  0.12639  1.0000
  C   C791      1.0  0.94808  0.71988  0.09946  1.0000
  H   H1362     1.0  0.78933  0.91128  0.03537  1.0000
  H   H1363     1.0  0.92172  0.64985  0.03512  1.0000
  H   H1364     1.0  0.81179  0.97883  0.19715  1.0000
  C   C792      1.0  0.64132  0.86183  0.09708  1.0000
  C   C793      1.0  0.62276  0.83474  0.08953  1.0000
  C   C794      1.0  0.61306  0.82971  0.06556  1.0000
  C   C795      1.0  0.62183  0.85180  0.04896  1.0000
  C   C796      1.0  0.64088  0.87876  0.05641  1.0000
  C   C797      1.0  0.65050  0.88379  0.08034  1.0000
  H   H1365     1.0  0.61595  0.81757  0.10228  1.0000
  H   H1366     1.0  0.64797  0.89595  0.04366  1.0000
  H   H1367     1.0  0.66474  0.90475  0.08590  1.0000
  H   H1368     1.0  0.74303  0.90762  0.03883  1.0000
  H   H1369     1.0  0.89270  0.67453  0.08448  1.0000
  S   S242      1.0  0.71786  0.97296  0.21307  1.0000
  H   H1370     1.0  0.83795  0.90599  0.17779  1.0000
  H   H1371     1.0  0.52785  0.81306  0.05048  1.0000
  H   H1372     1.0  0.95541  0.83856  0.22249  1.0000
  C   C798      1.0  0.96699  0.95157  0.21140  1.0000
  C   C799      1.0  0.95407  0.93400  0.19193  1.0000
  C   C800      1.0  0.92538  0.91582  0.19252  1.0000
  C   C801      1.0  0.90965  0.91510  0.21251  1.0000
  H   H1373     1.0  0.97801  0.90273  0.00491  1.0000
  H   H1374     1.0  0.91528  0.90205  0.17767  1.0000
  H   H1375     1.0  0.88760  0.90046  0.21296  1.0000
  H   H1376     1.0  0.79735  0.92770  0.19084  1.0000
  H   H1377     1.0  0.58410  0.85108  0.11869  1.0000
  C   C802      1.0  0.82561  0.89585  0.19397  1.0000
  H   H1378     1.0  0.94234  0.87444  0.21061  1.0000
  H   H1379     1.0  0.98610  0.91339  0.05352  1.0000
  S   S243      1.0  0.53654  0.82401  0.99266  1.0000
  H   H1380     1.0  0.67527  0.98858  0.19463  1.0000
  H   H1381     1.0  0.78438  0.96133  0.99067  1.0000
  H   H1382     1.0  0.89097  0.72997  0.08692  1.0000
  C   C803      1.0  0.78981  0.96154  0.07329  1.0000
  C   C804      1.0  0.91245  0.66451  0.03597  1.0000
  H   H1383     1.0  0.56772  0.81512  0.10918  1.0000
  H   H1384     1.0  0.53181  0.77598  0.08931  1.0000
  H   H1385     1.0  0.58812  0.88907  0.04563  1.0000
  H   H1386     1.0  0.95154  0.89896  0.02473  1.0000
  C   C805      1.0  0.94063  0.73005  0.07560  1.0000
  H   H1387     1.0  0.55234  0.88246  0.04506  1.0000
  H   H1388     1.0  0.98975  0.86544  0.99714  1.0000
  H   H1389     1.0  0.87417  0.67955  0.05969  1.0000
  C   C806      1.0  0.93046  0.68832  0.05324  1.0000
  C   C807      1.0  0.93032  0.99344  0.09072  1.0000
  H   H1390     1.0  0.53482  0.69824  0.01815  1.0000
  H   H1391     1.0  0.77406  0.88346  0.06872  1.0000
  C   C808      1.0  0.90048  0.74035  0.04007  1.0000
  C   C809      1.0  0.83544  0.91490  0.21606  1.0000
  C   C810      1.0  0.56633  0.87285  0.04923  1.0000
  S   S244      1.0  0.53958  0.76957  0.01779  1.0000
  C   C811      1.0  0.53907  0.83439  0.10955  1.0000
  H   H1392     1.0  0.56765  0.88162  0.08684  1.0000
  C   C812      1.0  0.82167  0.97763  0.07820  1.0000
  C   C813      1.0  0.56454  0.83097  0.11914  1.0000
  H   H1393     1.0  0.55721  0.81490  0.06684  1.0000
  H   H1394     1.0  0.56189  0.85552  0.03684  1.0000
  H   H1395     1.0  0.74410  0.91223  0.07001  1.0000
  H   H1396     1.0  0.56116  0.82410  0.13823  1.0000
  H   H1397     1.0  0.78226  0.97754  0.07151  1.0000
  C   C814      1.0  0.79573  0.92479  0.05141  1.0000
  H   H1398     1.0  0.92815  0.97658  0.14044  1.0000
  C   C815      1.0  0.88086  0.70710  0.08944  1.0000
  C   C816      1.0  0.89125  0.69098  0.07296  1.0000
  C   C817      1.0  0.92226  0.93317  0.23172  1.0000
  H   H1399     1.0  0.96061  0.74114  0.06554  1.0000
  H   H1400     1.0  0.91283  0.67236  0.01738  1.0000
  H   H1401     1.0  0.93431  0.67796  0.06932  1.0000
  H   H1402     1.0  0.95125  0.70025  0.04473  1.0000
  N   N57       1.0  0.78094  0.94275  0.05175  1.0000
  H   H1403     1.0  0.87816  0.72840  0.04520  1.0000
  H   H1404     1.0  0.85804  0.69972  0.08623  1.0000
  C   C818      1.0  0.96698  0.89115  0.02110  1.0000
  C   C819      1.0  0.88208  0.96225  0.19094  1.0000
  H   H1405     1.0  0.58308  0.86002  0.07916  1.0000
  C   C820      1.0  0.98612  0.89588  0.04334  1.0000
  H   H1406     1.0  0.93485  0.73347  0.02836  1.0000
  C   C821      1.0  0.78862  0.96090  0.02950  1.0000
  H   H1407     1.0  0.95500  0.86864  0.01704  1.0000
  C   C822      1.0  0.91440  0.72114  0.03750  1.0000
  H   H1408     1.0  0.91182  0.75760  0.05269  1.0000
  H   H1409     1.0  0.77995  0.94990  0.08999  1.0000
  H   H1410     1.0  0.75480  0.93367  0.00438  1.0000
  H   H1411     1.0  0.52019  0.81630  0.11650  1.0000
  C   C823      1.0  0.77794  0.94561  0.00545  1.0000
  N   N58       1.0  0.53776  0.83783  0.08272  1.0000
  S   S245      1.0  0.60957  0.84709  0.01884  1.0000
  H   H1412     1.0  0.96094  0.70895  0.09650  1.0000
  H   H1413     1.0  0.88299  0.70226  0.10859  1.0000
  H   H1414     1.0  0.59904  0.80873  0.05990  1.0000
  H   H1415     1.0  0.53939  0.85272  0.11873  1.0000
  H   H1416     1.0  0.50135  0.78186  0.09229  1.0000
  Fe  Fe125     1.0  0.57010  0.81172  0.00307  1.0000
  H   H1417     1.0  0.70885  0.92330  0.05237  1.0000
  H   H1418     1.0  0.90078  0.70520  0.02445  1.0000
  H   H1419     1.0  0.88204  0.94209  0.18737  1.0000
  S   S246      1.0  0.75131  0.97979  0.15219  1.0000
  H   H1420     1.0  0.78116  0.97704  0.03045  1.0000
  C   C824      1.0  0.53590  0.81310  0.06905  1.0000
  H   H1421     1.0  0.96118  0.73833  0.11058  1.0000
  Fe  Fe126     1.0  0.50617  0.78083  0.00450  1.0000
  N   N59       1.0  0.91862  0.70774  0.06020  1.0000
  H   H1422     1.0  0.77668  0.95569  0.20537  1.0000
  C   C825      1.0  0.79048  0.90481  0.07309  1.0000
  H   H1423     1.0  0.50753  0.76878  0.06543  1.0000
  C   C826      1.0  0.73115  0.93892  0.05003  1.0000
  C   C827      1.0  0.96968  0.80296  0.06607  1.0000
  C   C828      1.0  0.56436  0.86340  0.07570  1.0000
  C   C829      1.0  0.96774  0.85896  0.23153  1.0000
  H   H1424     1.0  0.92936  0.70626  0.10999  1.0000
  C   C830      1.0  0.90504  0.97051  0.01181  1.0000
  H   H1425     1.0  0.84138  0.95010  0.17513  1.0000
  H   H1426     1.0  0.94885  0.98196  0.01728  1.0000
  S   S247      1.0  0.96410  0.78719  0.99448  1.0000
  H   H1427     1.0  0.51190  0.84593  0.05646  1.0000
  H   H1428     1.0  0.90902  0.98738  0.99920  1.0000
  H   H1429     1.0  0.81017  0.90378  0.07803  1.0000
  S   S248      1.0  0.84914  0.95552  0.00506  1.0000
  H   H1430     1.0  0.96809  0.98377  0.11227  1.0000
  H   H1431     1.0  0.81875  0.93757  0.04918  1.0000
  C   C831      1.0  0.95106  0.95132  0.23123  1.0000
  H   H1432     1.0  0.83317  0.99085  0.06271  1.0000
  H   H1433     1.0  0.80300  0.88851  0.18999  1.0000
  C   C832      1.0  0.50188  0.65587  0.02162  1.0000
  H   H1434     1.0  0.50763  0.65330  0.03986  1.0000
  C   C833      1.0  0.92759  0.96744  0.02208  1.0000
  C   C834      1.0  0.51344  0.84362  0.07623  1.0000
  C   C835      1.0  0.95053  0.99112  0.14391  1.0000
  H   H1435     1.0  0.97466  0.87755  0.05530  1.0000
  C   C836      1.0  0.80470  0.93674  0.20891  1.0000
  C   C837      1.0  0.97360  0.79439  0.04343  1.0000
  H   H1436     1.0  0.95938  0.89534  0.23658  1.0000
  H   H1437     1.0  0.82539  0.99180  0.09353  1.0000
  H   H1438     1.0  0.85682  0.91822  0.22111  1.0000
  H   H1439     1.0  0.79010  0.92045  0.22139  1.0000
  H   H1440     1.0  0.80245  0.97083  0.22853  1.0000
  H   H1441     1.0  0.89487  0.97162  0.20721  1.0000
  H   H1442     1.0  0.89291  0.97630  0.17561  1.0000
  H   H1443     1.0  0.98009  0.79953  0.08165  1.0000
  S   S249      1.0  0.97384  0.71949  0.99751  1.0000
  H   H1444     1.0  0.98202  0.87303  0.18497  1.0000
  H   H1445     1.0  0.91352  0.98200  0.10393  1.0000
  H   H1446     1.0  0.84893  0.98048  0.23409  1.0000
  H   H1447     1.0  0.98823  0.90342  0.20030  1.0000
  H   H1448     1.0  0.89857  0.98460  0.06297  1.0000
  C   C838      1.0  0.84676  0.95897  0.23575  1.0000
  H   H1449     1.0  0.86874  0.96265  0.23877  1.0000
  C   C839      1.0  0.70564  0.99646  0.22300  1.0000
  Fe  Fe127     1.0  0.94794  0.95864  0.33660  1.0000
  H   H1450     1.0  0.68368  0.96906  0.35078  1.0000
  Fe  Fe128     1.0  0.73586  0.98295  0.44653  1.0000
  C   C840      1.0  0.91585  0.90169  0.41239  1.0000
  H   H1451     1.0  0.93419  0.63532  0.42839  1.0000
  H   H1452     1.0  0.80502  0.98771  0.40786  1.0000
  H   H1453     1.0  0.97564  0.60174  0.36951  1.0000
  H   H1454     1.0  0.95691  0.88063  0.28838  1.0000
  H   H1455     1.0  0.88324  0.60299  0.41973  1.0000
  S   S250      1.0  0.96600  0.58462  0.46529  1.0000
  S   S251      1.0  0.90333  0.94032  0.32385  1.0000
  C   C841      1.0  0.65545  0.99383  0.37855  1.0000
  H   H1456     1.0  0.92865  0.60518  0.36402  1.0000
  C   C842      1.0  0.97725  0.54487  0.42205  1.0000
  H   H1457     1.0  0.81571  0.97602  0.36779  1.0000
  S   S252      1.0  0.90111  0.93307  0.25550  1.0000
  C   C843      1.0  0.66326  0.94352  0.26930  1.0000
  C   C844      1.0  0.83157  0.94545  0.25933  1.0000
  H   H1458     1.0  0.63886  0.54475  0.28008  1.0000
  H   H1459     1.0  0.80864  0.93288  0.25708  1.0000
  Fe  Fe129     1.0  0.80486  0.51015  0.45971  1.0000
  S   S253      1.0  0.83673  0.55431  0.46942  1.0000
  N   N60       1.0  0.94983  0.63341  0.39324  1.0000
  H   H1460     1.0  0.90461  0.58582  0.41960  1.0000
  H   H1461     1.0  0.84082  0.50317  0.41328  1.0000
  C   C845      1.0  0.66910  0.98790  0.30855  1.0000
  C   C846      1.0  0.96032  0.64264  0.34756  1.0000
  H   H1462     1.0  0.92981  0.86206  0.23998  1.0000
  C   C847      1.0  0.97364  0.66238  0.39667  1.0000
  S   S254      1.0  0.70196  0.95446  0.42155  1.0000
  Fe  Fe130     1.0  0.98210  0.52017  0.30446  1.0000
  S   S255      1.0  0.96420  0.93467  0.36009  1.0000
  H   H1463     1.0  0.96746  0.66547  0.34702  1.0000
  S   S256      1.0  0.76146  0.96808  0.46950  1.0000
  C   C848      1.0  0.87278  0.56355  0.46682  1.0000
  H   H1464     1.0  0.62483  0.54791  0.25115  1.0000
  C   C849      1.0  0.98325  0.61132  0.38730  1.0000
  C   C850      1.0  0.93046  0.57777  0.46532  1.0000
  H   H1465     1.0  0.62399  0.97602  0.30818  1.0000
  C   C851      1.0  0.88135  0.54436  0.45870  1.0000
  H   H1466     1.0  0.66520  0.96143  0.25792  1.0000
  H   H1467     1.0  0.84027  0.93203  0.26753  1.0000
  Fe  Fe131     1.0  0.95285  0.52448  0.34925  1.0000
  C   C852      1.0  0.92206  0.59734  0.47297  1.0000
  C   C853      1.0  0.90030  0.60153  0.40984  1.0000
  H   H1468     1.0  0.98417  0.82046  0.24410  1.0000
  C   C854      1.0  0.62073  0.53463  0.26754  1.0000
  H   H1469     1.0  0.63702  0.97318  0.27920  1.0000
  H   H1470     1.0  0.62171  0.50260  0.33577  1.0000
  C   C855      1.0  0.85985  0.99100  0.37515  1.0000
  N   N61       1.0  0.67164  0.96145  0.31325  1.0000
  C   C856      1.0  0.95937  0.61225  0.40148  1.0000
  H   H1471     1.0  0.62018  0.95288  0.38057  1.0000
  H   H1472     1.0  0.91604  0.53625  0.45154  1.0000
  C   C857      1.0  0.95626  0.50883  0.46761  1.0000
  H   H1473     1.0  0.93767  0.61775  0.47864  1.0000
  C   C858      1.0  0.98072  0.51889  0.42938  1.0000
  C   C859      1.0  0.65652  0.95390  0.39851  1.0000
  C   C860      1.0  0.68446  0.97035  0.40546  1.0000
  H   H1474     1.0  0.68991  0.93765  0.29603  1.0000
  H   H1475     1.0  0.78753  0.92992  0.48559  1.0000
  H   H1476     1.0  0.64601  0.93202  0.40355  1.0000
  C   C861      1.0  0.64360  0.91043  0.32794  1.0000
  C   C862      1.0  0.99025  0.87841  0.34025  1.0000
  H   H1477     1.0  0.86598  0.52411  0.45275  1.0000
  H   H1478     1.0  0.93513  0.92073  0.40738  1.0000
  C   C863      1.0  0.92640  0.63039  0.40952  1.0000
  C   C864      1.0  0.87951  0.52017  0.39388  1.0000
  H   H1479     1.0  0.94998  0.63444  0.33000  1.0000
  H   H1480     1.0  0.92203  0.63443  0.36471  1.0000
  C   C865      1.0  0.90995  0.55139  0.45803  1.0000
  S   S257      1.0  0.92819  0.54205  0.36833  1.0000
  H   H1481     1.0  0.97889  0.63889  0.34881  1.0000
  C   C866      1.0  0.93888  0.62802  0.36770  1.0000
  H   H1482     1.0  0.96850  0.85372  0.25084  1.0000
  C   C867      1.0  0.98458  0.89694  0.35379  1.0000
  H   H1483     1.0  0.96093  0.96524  0.24601  1.0000
  H   H1484     1.0  0.97634  0.54605  0.40220  1.0000
  H   H1485     1.0  0.94769  0.91386  0.31196  1.0000
  C   C868      1.0  0.96604  0.68656  0.39264  1.0000
  H   H1486     1.0  0.95720  0.54353  0.42829  1.0000
  H   H1487     1.0  0.96595  0.61547  0.42069  1.0000
  S   S258      1.0  0.86610  0.98191  0.34634  1.0000
  C   C869      1.0  0.83238  0.98545  0.38097  1.0000
  H   H1488     1.0  0.88683  0.60526  0.47994  1.0000
  C   C870      1.0  0.64214  0.98521  0.29590  1.0000
  H   H1489     1.0  0.64100  0.93002  0.27347  1.0000
  H   H1490     1.0  0.69735  0.94903  0.33629  1.0000
  H   H1491     1.0  0.63676  0.94538  0.33758  1.0000
  H   H1492     1.0  0.65077  0.90227  0.31290  1.0000
  Fe  Fe132     1.0  0.92147  0.95892  0.28816  1.0000
  H   H1493     1.0  0.81623  0.90868  0.42317  1.0000
  C   C871      1.0  0.56634  0.99341  0.38266  1.0000
  H   H1494     1.0  0.95149  0.68307  0.37726  1.0000
  H   H1495     1.0  0.90899  0.88709  0.39712  1.0000
  H   H1496     1.0  0.54684  0.97330  0.38369  1.0000
  H   H1497     1.0  0.96208  0.50085  0.42179  1.0000
  H   H1498     1.0  0.98544  0.70624  0.38914  1.0000
  H   H1499     1.0  0.66952  0.93030  0.25839  1.0000
  C   C872      1.0  0.89651  0.51462  0.37843  1.0000
  C   C873      1.0  0.64193  0.96571  0.38552  1.0000
  C   C874      1.0  0.61661  0.50547  0.26048  1.0000
  H   H1500     1.0  0.62694  0.93397  0.30806  1.0000
  S   S259      1.0  0.96603  0.97382  0.30027  1.0000
  C   C875      1.0  0.69256  0.96692  0.33355  1.0000
  C   C876      1.0  0.95971  0.90421  0.31991  1.0000
  C   C877      1.0  0.60786  0.50088  0.32013  1.0000
  C   C878      1.0  0.96962  0.91015  0.34353  1.0000
  C   C879      1.0  0.64390  0.93852  0.32152  1.0000
  C   C880      1.0  0.68266  0.95355  0.29155  1.0000
  H   H1501     1.0  0.70208  0.97166  0.28512  1.0000
  H   H1502     1.0  0.62172  0.89476  0.33194  1.0000
  H   H1503     1.0  0.65624  0.91191  0.34434  1.0000
  H   H1504     1.0  0.88608  0.54120  0.39988  1.0000
  N   N62       1.0  0.88115  0.92131  0.40206  1.0000
  C   C881      1.0  0.90437  0.94744  0.39144  1.0000
  C   C882      1.0  0.86756  0.90061  0.38215  1.0000
  C   C883      1.0  0.89240  0.90844  0.42081  1.0000
  C   C884      1.0  0.86049  0.92895  0.41365  1.0000
  H   H1505     1.0  0.89212  0.59393  0.39162  1.0000
  C   C885      1.0  0.84748  0.90621  0.36534  1.0000
  C   C886      1.0  0.89327  0.59020  0.47373  1.0000
  C   C887      1.0  0.83467  0.90453  0.42507  1.0000
  H   H1506     1.0  0.91822  0.94241  0.38008  1.0000
  H   H1507     1.0  0.92178  0.89140  0.42731  1.0000
  H   H1508     1.0  0.85568  0.87893  0.38926  1.0000
  H   H1509     1.0  0.88378  0.89973  0.37050  1.0000
  H   H1510     1.0  0.90030  0.92196  0.43683  1.0000
  H   H1511     1.0  0.87531  0.88847  0.42768  1.0000
  H   H1512     1.0  0.87073  0.94402  0.42835  1.0000
  H   H1513     1.0  0.85320  0.94064  0.40103  1.0000
  H   H1514     1.0  0.95660  0.68992  0.40902  1.0000
  H   H1515     1.0  0.95252  0.52735  0.46564  1.0000
  H   H1516     1.0  0.94194  0.59066  0.40055  1.0000
  H   H1517     1.0  0.84154  0.89187  0.34988  1.0000
  H   H1518     1.0  0.82780  0.90237  0.37443  1.0000
  H   H1519     1.0  0.85746  0.92772  0.35804  1.0000
  H   H1520     1.0  0.83452  0.96210  0.27218  1.0000
  N   N63       1.0  0.98340  0.51437  0.45587  1.0000
  C   C888      1.0  0.92358  0.96965  0.40953  1.0000
  H   H1521     1.0  0.83859  0.90218  0.44440  1.0000
  H   H1522     1.0  0.82853  0.88429  0.41631  1.0000
  H   H1523     1.0  0.63812  0.50737  0.25972  1.0000
  H   H1524     1.0  0.60196  0.53451  0.27546  1.0000
  H   H1525     1.0  0.81758  0.94227  0.46698  1.0000
  C   C889      1.0  0.96490  0.88532  0.30655  1.0000
  H   H1526     1.0  0.93960  0.98773  0.39949  1.0000
  Fe  Fe133     1.0  0.90581  0.98207  0.33217  1.0000
  H   H1527     1.0  0.89559  0.95793  0.37901  1.0000
  H   H1528     1.0  0.91203  0.97793  0.42033  1.0000
  H   H1529     1.0  0.61305  0.52231  0.31409  1.0000
  H   H1530     1.0  0.91839  0.64552  0.40439  1.0000
  H   H1531     1.0  0.98244  0.66466  0.41523  1.0000
  H   H1532     1.0  0.58245  0.99090  0.39376  1.0000
  H   H1533     1.0  0.93533  0.96193  0.42148  1.0000
  C   C890      1.0  0.82626  0.99206  0.40368  1.0000
  C   C891      1.0  0.98051  0.87269  0.31655  1.0000
  S   S260      1.0  0.98728  0.84978  0.29900  1.0000
  C   C892      1.0  0.72120  0.99311  0.33085  1.0000
  H   H1534     1.0  0.73466  0.99412  0.34659  1.0000
  H   H1535     1.0  0.56469  0.49904  0.24575  1.0000
  H   H1536     1.0  0.60919  0.50173  0.24148  1.0000
  H   H1537     1.0  0.73246  0.99243  0.31465  1.0000
  S   S261      1.0  0.93740  0.49670  0.31724  1.0000
  H   H1538     1.0  0.99035  0.59752  0.39705  1.0000
  C   C893      1.0  0.85381  0.49856  0.40148  1.0000
  C   C894      1.0  0.81074  0.93854  0.48597  1.0000
  C   C895      1.0  0.64572  0.92778  0.54917  1.0000
  H   H1539     1.0  0.53537  0.73168  0.65240  1.0000
  H   H1540     1.0  0.53135  0.70552  0.68858  1.0000
  N   N64       1.0  0.66642  0.76575  0.73574  1.0000
  S   S262      1.0  0.74741  0.98006  0.53863  1.0000
  Fe  Fe134     1.0  0.67005  0.85210  0.67774  1.0000
  S   S263      1.0  0.65824  0.87746  0.65170  1.0000
  S   S264      1.0  0.69703  0.86567  0.71094  1.0000
  Fe  Fe135     1.0  0.62771  0.79619  0.65774  1.0000
  S   S265      1.0  0.61267  0.81656  0.62939  1.0000
  S   S266      1.0  0.60888  0.74906  0.66256  1.0000
  Fe  Fe136     1.0  0.65816  0.84763  0.62409  1.0000
  S   S267      1.0  0.67232  0.85983  0.58537  1.0000
  Fe  Fe137     1.0  0.61413  0.84490  0.65863  1.0000
  S   S268      1.0  0.57914  0.85578  0.66466  1.0000
  S   S269      1.0  0.67326  0.82427  0.64980  1.0000
  S   S270      1.0  0.62595  0.82262  0.68721  1.0000
  H   H1541     1.0  0.59034  0.84314  0.56684  1.0000
  C   C896      1.0  0.49842  0.63581  0.68687  1.0000
  C   C897      1.0  0.59122  0.73206  0.68906  1.0000
  C   C898      1.0  0.58660  0.74674  0.70739  1.0000
  H   H1542     1.0  0.63295  0.89813  0.69042  1.0000
  H   H1543     1.0  0.51966  0.68291  0.66362  1.0000
  C   C899      1.0  0.56977  0.68954  0.71374  1.0000
  C   C900      1.0  0.58241  0.70331  0.69222  1.0000
  H   H1544     1.0  0.59272  0.76867  0.70513  1.0000
  C   C901      1.0  0.64858  0.73465  0.73296  1.0000
  H   H1545     1.0  0.81629  0.92264  0.49359  1.0000
  H   H1546     1.0  0.58587  0.69175  0.67813  1.0000
  H   H1547     1.0  0.90697  0.52080  0.52409  1.0000
  C   C902      1.0  0.70621  0.91979  0.70399  1.0000
  H   H1548     1.0  0.71509  0.96282  0.69895  1.0000
  C   C903      1.0  0.51377  0.71894  0.65924  1.0000
  H   H1549     1.0  0.83091  0.51248  0.60581  1.0000
  H   H1550     1.0  0.70286  0.91511  0.68512  1.0000
  H   H1551     1.0  0.58110  0.88625  0.71229  1.0000
  C   C904      1.0  0.79301  0.94266  0.53332  1.0000
  C   C905      1.0  0.72621  0.94648  0.55119  1.0000
  C   C906      1.0  0.71272  0.92277  0.53701  1.0000
  C   C907      1.0  0.69676  0.89639  0.54784  1.0000
  C   C908      1.0  0.69397  0.89340  0.57290  1.0000
  C   C909      1.0  0.70757  0.91711  0.58708  1.0000
  C   C910      1.0  0.72355  0.94348  0.57626  1.0000
  H   H1552     1.0  0.71459  0.92471  0.51771  1.0000
  H   H1553     1.0  0.68630  0.87819  0.53669  1.0000
  H   H1554     1.0  0.70585  0.91513  0.60638  1.0000
  H   H1555     1.0  0.73407  0.96167  0.58740  1.0000
  H   H1556     1.0  0.76582  0.92104  0.56315  1.0000
  C   C911      1.0  0.50924  0.81275  0.70372  1.0000
  C   C912      1.0  0.53034  0.83348  0.68988  1.0000
  C   C913      1.0  0.55184  0.82885  0.68057  1.0000
  C   C914      1.0  0.55176  0.80308  0.68466  1.0000
  C   C915      1.0  0.86733  0.51115  0.71508  1.0000
  C   C916      1.0  0.86595  0.56445  0.53582  1.0000
  H   H1557     1.0  0.53019  0.85330  0.68674  1.0000
  H   H1558     1.0  0.53111  0.76277  0.70212  1.0000
  H   H1559     1.0  0.86187  0.54790  0.70344  1.0000
  H   H1560     1.0  0.80268  0.99439  0.52519  1.0000
  C   C917      1.0  0.66854  0.77920  0.71135  1.0000
  H   H1561     1.0  0.56780  0.79898  0.67701  1.0000
  C   C918      1.0  0.63425  0.92535  0.62749  1.0000
  N   N65       1.0  0.82108  0.96607  0.52617  1.0000
  H   H1562     1.0  0.97551  0.56495  0.70646  1.0000
  H   H1563     1.0  0.79066  0.92205  0.52778  1.0000
  H   H1564     1.0  0.85304  0.50197  0.59036  1.0000
  C   C919      1.0  0.50933  0.78714  0.70808  1.0000
  H   H1565     1.0  0.50133  0.70534  0.71905  1.0000
  H   H1566     1.0  0.86775  0.55239  0.58312  1.0000
  C   C920      1.0  0.85110  0.58219  0.54168  1.0000
  C   C921      1.0  0.94627  0.52217  0.71438  1.0000
  H   H1567     1.0  0.81539  0.97925  0.49038  1.0000
  H   H1568     1.0  0.57903  0.89903  0.62062  1.0000
  H   H1569     1.0  0.64745  0.77610  0.70513  1.0000
  H   H1570     1.0  0.86459  0.93772  0.54807  1.0000
  H   H1571     1.0  0.63443  0.93660  0.73165  1.0000
  C   C922      1.0  0.59556  0.91159  0.58300  1.0000
  H   H1572     1.0  0.81438  0.52147  0.71934  1.0000
  H   H1573     1.0  0.80092  0.52970  0.51950  1.0000
  H   H1574     1.0  0.83504  0.51574  0.51428  1.0000
  C   C923      1.0  0.63314  0.91707  0.69795  1.0000
  C   C924      1.0  0.53064  0.78233  0.69851  1.0000
  C   C925      1.0  0.68046  0.76861  0.69126  1.0000
  H   H1575     1.0  0.59492  0.82170  0.73725  1.0000
  H   H1576     1.0  0.65214  0.94153  0.59375  1.0000
  H   H1577     1.0  0.89694  0.55157  0.69949  1.0000
  H   H1578     1.0  0.86909  0.53011  0.67990  1.0000
  C   C926      1.0  0.63517  0.91735  0.72559  1.0000
  C   C927      1.0  0.56605  0.70454  0.73230  1.0000
  C   C928      1.0  0.84688  0.93674  0.53675  1.0000
  C   C929      1.0  0.64127  0.92035  0.60198  1.0000
  H   H1579     1.0  0.66690  0.93952  0.55738  1.0000
  H   H1580     1.0  0.50796  0.66446  0.71615  1.0000
  H   H1581     1.0  0.65947  0.72544  0.72220  1.0000
  S   S271      1.0  0.93317  0.51601  0.68461  1.0000
  H   H1582     1.0  0.61463  0.91927  0.69130  1.0000
  H   H1583     1.0  0.80205  0.93608  0.57122  1.0000
  H   H1584     1.0  0.55708  0.84403  0.73655  1.0000
  H   H1585     1.0  0.78428  0.95765  0.56728  1.0000
  H   H1586     1.0  0.66585  0.74682  0.68630  1.0000
  C   C930      1.0  0.57316  0.90393  0.60272  1.0000
  Fe  Fe138     1.0  0.75476  0.99225  0.49889  1.0000
  C   C931      1.0  0.84853  0.53722  0.57349  1.0000
  H   H1587     1.0  0.65674  0.92051  0.72992  1.0000
  H   H1588     1.0  0.64925  0.92366  0.53042  1.0000
  H   H1589     1.0  0.88847  0.57760  0.54067  1.0000
  H   H1590     1.0  0.82772  0.91844  0.54314  1.0000
  C   C932      1.0  0.96705  0.54898  0.72029  1.0000
  H   H1591     1.0  0.65195  0.93525  0.69074  1.0000
  H   H1592     1.0  0.84463  0.96805  0.55863  1.0000
  H   H1593     1.0  0.81997  0.99464  0.55271  1.0000
  H   H1594     1.0  0.60620  0.93473  0.58081  1.0000
  H   H1595     1.0  0.64204  0.88901  0.56375  1.0000
  C   C933      1.0  0.62854  0.89965  0.56227  1.0000
  H   H1596     1.0  0.85147  0.93362  0.51813  1.0000
  H   H1597     1.0  0.62218  0.93744  0.62715  1.0000
  C   C934      1.0  0.83014  0.51468  0.53367  1.0000
  H   H1598     1.0  0.68283  0.78141  0.67485  1.0000
  H   H1599     1.0  0.60611  0.85938  0.71308  1.0000
  H   H1600     1.0  0.52076  0.64620  0.68149  1.0000
  H   H1601     1.0  0.55297  0.88634  0.59693  1.0000
  C   C935      1.0  0.70471  0.89929  0.72048  1.0000
  H   H1602     1.0  0.86533  0.56269  0.51602  1.0000
  C   C936      1.0  0.58153  0.84890  0.58238  1.0000
  H   H1603     1.0  0.65724  0.91259  0.60368  1.0000
  N   N66       1.0  0.61703  0.90097  0.58647  1.0000
  H   H1604     1.0  0.82824  0.57121  0.53838  1.0000
  H   H1605     1.0  0.62187  0.86557  0.59997  1.0000
  H   H1606     1.0  0.50815  0.73344  0.66874  1.0000
  H   H1607     1.0  0.85556  0.58977  0.56039  1.0000
  H   H1608     1.0  0.57104  0.82978  0.59373  1.0000
  C   C937      1.0  0.83697  0.50933  0.58763  1.0000
  H   H1609     1.0  0.49992  0.71028  0.64333  1.0000
  C   C938      1.0  0.57431  0.73310  0.72895  1.0000
  H   H1610     1.0  0.65418  0.93817  0.63731  1.0000
  H   H1611     1.0  0.83316  0.54536  0.57573  1.0000
  H   H1612     1.0  0.96154  0.52200  0.50516  1.0000
  H   H1613     1.0  0.89605  0.54094  0.55867  1.0000
  C   C939      1.0  0.78644  0.93962  0.56034  1.0000
  H   H1614     1.0  0.58355  0.90339  0.56599  1.0000
  H   H1615     1.0  0.49537  0.61719  0.69773  1.0000
  C   C940      1.0  0.87810  0.52728  0.54691  1.0000
  H   H1616     1.0  0.85951  0.60100  0.52981  1.0000
  C   C941      1.0  0.84513  0.96427  0.53915  1.0000
  H   H1617     1.0  0.77576  0.94512  0.52381  1.0000
  C   C942      1.0  0.71332  0.94683  0.71181  1.0000
  C   C943      1.0  0.51373  0.69555  0.67554  1.0000
  H   H1618     1.0  0.86558  0.98096  0.53278  1.0000
  H   H1619     1.0  0.68155  0.80219  0.71187  1.0000
  H   H1620     1.0  0.61130  0.88675  0.54965  1.0000
  C   C944      1.0  0.58503  0.88897  0.73192  1.0000
  H   H1621     1.0  0.56857  0.92184  0.60513  1.0000
  C   C945      1.0  0.89030  0.52752  0.52198  1.0000
  H   H1622     1.0  0.62313  0.90585  0.63807  1.0000
  C   C946      1.0  0.60497  0.87195  0.59722  1.0000
  H   H1623     1.0  0.90031  0.54869  0.51372  1.0000
  H   H1624     1.0  0.84720  0.97731  0.49438  1.0000
  C   C947      1.0  0.87415  0.53687  0.69880  1.0000
  N   N67       1.0  0.85497  0.53590  0.54748  1.0000
  H   H1625     1.0  0.56366  0.66754  0.71620  1.0000
  H   H1626     1.0  0.63476  0.94092  0.54838  1.0000
  H   H1627     1.0  0.58366  0.90836  0.73652  1.0000
  H   H1628     1.0  0.87433  0.51267  0.50951  1.0000
  H   H1629     1.0  0.56528  0.85486  0.57610  1.0000
  H   H1630     1.0  0.59660  0.87082  0.61535  1.0000
  H   H1631     1.0  0.70151  0.77066  0.69580  1.0000
  C   C948      1.0  0.81544  0.50822  0.73444  1.0000
  C   C949      1.0  0.61661  0.86664  0.73080  1.0000
  H   H1632     1.0  0.64550  0.80887  0.73404  1.0000
  H   H1633     1.0  0.88317  0.50380  0.71136  1.0000
  C   C950      1.0  0.82460  0.96662  0.49926  1.0000
  C   C951      1.0  0.95445  0.50244  0.49482  1.0000
  C   C952      1.0  0.71807  0.95320  0.73623  1.0000
  H   H1634     1.0  0.63919  0.87245  0.72798  1.0000
  C   C953      1.0  0.80237  0.51662  0.53460  1.0000
  H   H1635     1.0  0.87085  0.50579  0.55421  1.0000
  H   H1636     1.0  0.62899  0.73032  0.72288  1.0000
  H   H1637     1.0  0.79875  0.52435  0.55166  1.0000
  H   H1638     1.0  0.54026  0.86572  0.73793  1.0000
  N   N68       1.0  0.61364  0.89183  0.73854  1.0000
  C   C954      1.0  0.93562  0.50165  0.73241  1.0000
  H   H1639     1.0  0.72170  0.81249  0.73014  1.0000
  H   H1640     1.0  0.70352  0.75959  0.73423  1.0000
  C   C955      1.0  0.82136  0.99319  0.53298  1.0000
  H   H1641     1.0  0.49290  0.81667  0.71089  1.0000
  C   C956      1.0  0.49117  0.65516  0.70219  1.0000
  C   C957      1.0  0.71738  0.80100  0.74750  1.0000
  C   C958      1.0  0.50870  0.73381  0.77220  1.0000
  H   H1642     1.0  0.53727  0.73403  0.83605  1.0000
  H   H1643     1.0  0.51939  0.84584  0.87832  1.0000
  C   C959      1.0  0.97664  0.55556  0.74406  1.0000
  S   S272      1.0  0.52657  0.62002  0.80024  1.0000
  C   C960      1.0  0.71612  0.93258  0.75278  1.0000
  H   H1644     1.0  0.88337  0.54700  0.78457  1.0000
  Fe  Fe139     1.0  0.51421  0.58244  0.77690  1.0000
  Fe  Fe140     1.0  0.52529  0.64248  0.76604  1.0000
  S   S273      1.0  0.57094  0.79571  0.96620  1.0000
  H   H1645     1.0  0.72015  0.93751  0.77160  1.0000
  C   C961      1.0  0.58683  0.91758  0.80901  1.0000
  H   H1646     1.0  0.50700  0.69486  0.78267  1.0000
  H   H1647     1.0  0.60530  0.91323  0.93370  1.0000
  S   S274      1.0  0.97627  0.54386  0.79238  1.0000
  C   C962      1.0  0.62020  0.89440  0.88104  1.0000
  H   H1648     1.0  0.54289  0.63251  0.89986  1.0000
  H   H1649     1.0  0.58093  0.67296  0.96532  1.0000
  C   C963      1.0  0.61884  0.89748  0.76499  1.0000
  C   C964      1.0  0.61932  0.90346  0.93636  1.0000
  S   S275      1.0  0.53406  0.82876  0.92325  1.0000
  C   C965      1.0  0.51164  0.51943  0.79370  1.0000
  C   C966      1.0  0.55468  0.92178  0.77983  1.0000
  H   H1650     1.0  0.58114  0.88236  0.90165  1.0000
  H   H1651     1.0  0.50627  0.73035  0.85014  1.0000
  H   H1652     1.0  0.51353  0.75483  0.77848  1.0000
  C   C967      1.0  0.50177  0.78015  0.89890  1.0000
  C   C968      1.0  0.53584  0.61372  0.91175  1.0000
  Fe  Fe141     1.0  0.53534  0.80518  0.95694  1.0000
  H   H1653     1.0  0.56679  0.60523  0.89401  1.0000
  H   H1654     1.0  0.54456  0.59695  0.95665  1.0000
  H   H1655     1.0  0.49742  0.62788  0.89338  1.0000
  H   H1656     1.0  0.64749  0.90083  0.79438  1.0000
  H   H1657     1.0  0.65453  0.88733  0.76769  1.0000
  C   C969      1.0  0.53393  0.89483  0.78579  1.0000
  C   C970      1.0  0.56600  0.89076  0.81508  1.0000
  C   C971      1.0  0.53965  0.87941  0.80354  1.0000
  H   H1658     1.0  0.57027  0.87857  0.82867  1.0000
  H   H1659     1.0  0.52373  0.85880  0.80848  1.0000
  C   C972      1.0  0.64460  0.91498  0.91938  1.0000
  C   C973      1.0  0.96544  0.53539  0.76223  1.0000
  H   H1660     1.0  0.68708  0.90850  0.89483  1.0000
  H   H1661     1.0  0.69277  0.76118  0.76367  1.0000
  H   H1662     1.0  0.62649  0.72287  0.76780  1.0000
  C   C974      1.0  0.68137  0.91519  0.87756  1.0000
  C   C975      1.0  0.70978  0.90574  0.74486  1.0000
  H   H1663     1.0  0.53234  0.69285  0.84810  1.0000
  C   C976      1.0  0.50963  0.82326  0.87879  1.0000
  H   H1664     1.0  0.83929  0.51958  0.76773  1.0000
  S   S276      1.0  0.50182  0.76310  0.96783  1.0000
  H   H1665     1.0  0.79816  0.50546  0.74657  1.0000
  S   S277      1.0  0.69724  0.96219  0.81306  1.0000
  H   H1666     1.0  0.59704  0.95387  0.78661  1.0000
  H   H1667     1.0  0.55031  0.93384  0.76617  1.0000
  N   N69       1.0  0.52584  0.61879  0.93543  1.0000
  H   H1668     1.0  0.54602  0.66353  0.92932  1.0000
  C   C977      1.0  0.66722  0.93416  0.88114  1.0000
  H   H1669     1.0  0.66399  0.92406  0.77002  1.0000
  H   H1670     1.0  0.62709  0.90841  0.95514  1.0000
  S   S278      1.0  0.53292  0.55249  0.78070  1.0000
  S   S279      1.0  0.61994  0.93015  0.82335  1.0000
  H   H1671     1.0  0.66211  0.93338  0.92792  1.0000
  H   H1672     1.0  0.62445  0.87690  0.88721  1.0000
  N   N70       1.0  0.86672  0.51589  0.74158  1.0000
  H   H1673     1.0  0.68289  0.95256  0.89107  1.0000
  H   H1674     1.0  0.51823  0.59663  0.90189  1.0000
  H   H1675     1.0  0.60650  0.93339  0.89994  1.0000
  H   H1676     1.0  0.62451  0.94597  0.87290  1.0000
  H   H1677     1.0  0.50665  0.76749  0.81883  1.0000
  C   C978      1.0  0.51070  0.68438  0.98547  1.0000
  H   H1678     1.0  0.66505  0.94220  0.86304  1.0000
  H   H1679     1.0  0.51476  0.65847  0.83673  1.0000
  C   C979      1.0  0.51424  0.80932  0.89857  1.0000
  C   C980      1.0  0.49173  0.80811  0.85989  1.0000
  H   H1680     1.0  0.58160  0.89781  0.87246  1.0000
  H   H1681     1.0  0.62868  0.76351  0.75146  1.0000
  Fe  Fe142     1.0  0.65913  0.96931  0.81289  1.0000
  H   H1682     1.0  0.61658  0.91636  0.76948  1.0000
  C   C981      1.0  0.57411  0.65590  0.95204  1.0000
  H   H1683     1.0  0.56032  0.86434  0.76309  1.0000
  H   H1684     1.0  0.63391  0.98280  0.90259  1.0000
  H   H1685     1.0  0.89706  0.55988  0.73999  1.0000
  H   H1686     1.0  0.58981  0.84006  0.76113  1.0000
  H   H1687     1.0  0.54109  0.77178  0.81073  1.0000
  H   H1688     1.0  0.64950  0.96805  0.92320  1.0000
  H   H1689     1.0  0.71205  0.81226  0.76123  1.0000
  H   H1690     1.0  0.50451  0.65562  0.91457  1.0000
  C   C982      1.0  0.64795  0.90254  0.77450  1.0000
  C   C983      1.0  0.54387  0.64822  0.94380  1.0000
  S   S280      1.0  0.55269  0.68903  0.76042  1.0000
  H   H1691     1.0  0.99064  0.63709  0.91832  1.0000
  H   H1692     1.0  0.57141  0.74484  0.74317  1.0000
  H   H1693     1.0  0.53542  0.68630  0.81669  1.0000
  H   H1694     1.0  0.53421  0.77820  0.84043  1.0000
  C   C984      1.0  0.62765  0.94174  0.89207  1.0000
  C   C985      1.0  0.65191  0.77606  0.75301  1.0000
  C   C986      1.0  0.90081  0.54572  0.77527  1.0000
  C   C987      1.0  0.51401  0.59973  0.97881  1.0000
  S   S281      1.0  0.98894  0.68172  0.94438  1.0000
  H   H1695     1.0  0.53664  0.72403  0.79417  1.0000
  H   H1696     1.0  0.53716  0.50099  0.78131  1.0000
  S   S282      1.0  0.50132  0.88073  0.77045  1.0000
  C   C988      1.0  0.65697  0.80655  0.75000  1.0000
  C   C989      1.0  0.51355  0.71534  0.79140  1.0000
  H   H1697     1.0  0.60311  0.88070  0.77622  1.0000
  H   H1698     1.0  0.57802  0.61938  0.92317  1.0000
  C   C990      1.0  0.52415  0.59710  0.95377  1.0000
  H   H1699     1.0  0.52255  0.73671  0.75675  1.0000
  C   C991      1.0  0.55958  0.60509  0.91257  1.0000
  H   H1700     1.0  0.65238  0.89907  0.91998  1.0000
  Fe  Fe143     1.0  0.71077  0.99117  0.78131  1.0000
  C   C992      1.0  0.52105  0.68069  0.83213  1.0000
  H   H1701     1.0  0.57633  0.63889  0.96163  1.0000
  C   C993      1.0  0.94507  0.50832  0.75632  1.0000
  C   C994      1.0  0.51686  0.73412  0.83246  1.0000
  C   C995      1.0  0.52482  0.76440  0.82477  1.0000
  C   C996      1.0  0.64552  0.97023  0.90390  1.0000
  C   C997      1.0  0.58112  0.93314  0.79136  1.0000
  S   S283      1.0  0.53335  0.71329  0.96818  1.0000
  H   H1702     1.0  0.50561  0.76925  0.91387  1.0000
  H   H1703     1.0  0.70883  0.88999  0.75766  1.0000
  H   H1704     1.0  0.66842  0.89677  0.86645  1.0000
  H   H1705     1.0  0.57700  0.86296  0.87516  1.0000
  H   H1706     1.0  0.75651  0.98227  0.91585  1.0000
  H   H1707     1.0  0.62433  0.89659  0.86143  1.0000
  H   H1708     1.0  0.62656  0.69486  0.75167  1.0000
  H   H1709     1.0  0.55186  0.58340  0.91955  1.0000
  C   C998      1.0  0.55963  0.86426  0.74329  1.0000
  H   H1710     1.0  0.73738  0.80127  0.75351  1.0000
  H   H1711     1.0  0.53366  0.65397  0.95834  1.0000
  H   H1712     1.0  0.50983  0.57575  0.94716  1.0000
  H   H1713     1.0  0.58871  0.66343  0.93670  1.0000
  H   H1714     1.0  0.60697  0.88043  0.93485  1.0000
  H   H1715     1.0  0.70132  0.92738  0.86782  1.0000
  C   C999      1.0  0.49238  0.63295  0.91124  1.0000
  H   H1716     1.0  0.90579  0.52985  0.78415  1.0000
  C   C1000     1.0  0.60535  0.84103  0.74801  1.0000
  H   H1717     1.0  0.65729  0.77318  0.77191  1.0000
  N   N71       1.0  0.63937  0.92108  0.89380  1.0000
  S   S284      1.0  0.51724  0.60627  0.74237  1.0000
  C   C1001     1.0  0.58828  0.88411  0.88299  1.0000
  C   C1002     1.0  0.69471  0.77048  0.74541  1.0000
  H   H1718     1.0  0.64867  0.81233  0.76586  1.0000
  C   C1003     1.0  0.49644  0.61514  0.93153  1.0000
  H   H1719     1.0  0.67928  0.82185  0.74846  1.0000
  S   S285      1.0  0.49209  0.80518  0.78180  1.0000
  H   H1720     1.0  0.65793  0.71820  0.76686  1.0000
  N   N72       1.0  0.49903  0.71150  0.81513  1.0000
  H   H1721     1.0  0.91987  0.56606  0.77754  1.0000
  H   H1722     1.0  0.62300  0.83970  0.75765  1.0000
  C   C1004     1.0  0.84373  0.52322  0.74821  1.0000
  H   H1723     1.0  0.66565  0.98251  0.89450  1.0000
  C   C1005     1.0  0.63970  0.71712  0.75638  1.0000
  C   C1006     1.0  0.49441  0.68391  0.82621  1.0000
  C   C1007     1.0  0.89472  0.53997  0.74826  1.0000
  H   H1724     1.0  0.85082  0.54594  0.74505  1.0000
  S   S286      1.0  0.72712  0.98725  0.74544  1.0000
  Fe  Fe144     1.0  0.53735  0.75468  0.98001  1.0000
  S   S287      1.0  0.73583  0.99352  0.87139  1.0000
  H   H1725     1.0  0.98876  0.49816  0.79429  1.0000
  H   H1726     1.0  0.91225  0.53695  0.74102  1.0000
  S   S288      1.0  0.67091  0.99504  0.77898  1.0000
  C   C1008     1.0  0.51837  0.49734  0.79081  1.0000
  H   H1727     1.0  0.52664  0.62062  0.98667  1.0000
  H   H1728     1.0  0.49151  0.59462  0.97851  1.0000
