data_image0
_chemical_formula_structural       FeS3HCFeSFeHSCFeS2FeS2FeHFeS3HS4FeSFeCS2HC6H4FeC6H4C6FeH3CHSC4H4C2H5CH7CHCHCH3C2HCHNC5HC2H13CH9CH6CH5SCHCH3NC6H10CH3C3HCHSH2CNHCHSH2CNHCH5C2H2SH3CNFeH7CHC2HSFeS2FeS2FeSFeS3H3FeS2C6H5C4HCH2FeCFeHC2HC6H5CHNH2SHC2H6S2HCFeH2CH3CHCH7NC5HC2H12SH4CH2NC6HCH4CH5CH3SHCH5C2H4NH4FeSFeSH2S2CH3CSH2CH2C7H4C4FeCH9CSCH4FeNH2CH2SH2CH2NC2SC3HCH6CHNHCHCH2CH4C2HCHCH2CHCFeCH4CHCHCH5FeSHFeS2FeSFeS3FeS2FeSHFeSFeS3FeS2FeS3H2SC2H2CHCH2C2HC3H3C8H4C6H4SHNC6H17NC7H18CHNC8H21CH7FeCH2FeHCHCHC2NSHCH3CH3CHC6HCHCHCH3C2NHCHCH3FeHCH7CH3SHSCH2C2H2CHCHC2SFeS2FeS2FeSFeS3FeS2CHSC2SH2C6H5CHC3H3FeHC2H2CH2C6H2CH2C2H3C2H2C3H2C2NHCH7CHSHFeH2CH5C2H3NHCH4CH8N2C8H19C3H2C2H2CH3CHFeSFeSC2S3NC2H4CHS2HC6H4C6NHFeH2CH2FeH2CHCH4CH2C4H2CH3CHCH2CHCHCH2SHCHCH6C2SH4CHNHCSHCH5CH2SH4NH2CH2CHCH2CH12CH2FeC2SH2FeSFeSH5CSH2SHSH4C9H2C6H3CNCHCHCH3CH3CH2CH3CHCHCHCHFeH2CHC2HCH2CHCHSHCH2NHSCH5FeH2CH7CHC2HNHC2H2CH2C3H4CSH2CH3SH3CHCNCH5CHFeSH2FeS2FeS2FeSFeS3HCHS3HCHC6H4CHC2H5C6H5CH2NHC2HCHCH4CH3C2H2C2H3CH4CH3CHCH2C3HCH6NC2HCHCH2C2H3C2H3NH2C2HCH5CHCH4CFeHCHCH2CH3CHCH2CHSHFe2S2FeCFeS3FeS2FeS2FeSFeHS2FeSFeS2HFeS3H2S2HFeC2H2CNC6H5C6H4C6HCH2FeCHCHCHC3HC2HNHC3H4CHC2H2C3HCHSCH2NH6CH3CH2CHCHC2H4C2HSCH2CHCH11CH6NC2H3SCH2C3HC2HCH4CH8CH4CH4CHCH3NH7SH2CH3C2HC2H2C3HCH4SNH2CFeSFeSH2S2CHSH3NCH5CFeH7FeH3C6H4C6HCH3C3HCH3C2H4CH4CHC4HNHSHCH5SC2H2C2H2SHCHC2H5CSFeH3FeSFeS2FeS2FeSFeS3FeS2HC2H3CHCH2C6H5FeHC3H2CHC6HCHCHCHCH3CHSHC3HC2H4NHSH8CH2NC8H20C2H3CHCHCH2CH7SCH4NH4C2H3CNCHSH6FeS2CSFeSFeS3FeS2FeSCFeSFeS3FeSH2SFeSFeS2H6CHCH2C2H2CHFeHC2H2C3H2C2H3CNC6H4C6H5CNC8H13CH6C4H2C2H2CH3NC8H20NC6H17CHCH3C2HCSCSCHCH2CH7SCH4CHSHCH2CH
_chemical_formula_sum              "Fe96 S192 H1152 C672 N48"
_cell_length_a       30.8408
_cell_length_b       47.5608
_cell_length_c       62.5945
_cell_angle_alpha    88.9058
_cell_angle_beta     102.026
_cell_angle_gamma    91.4688

_space_group_name_H-M_alt    "P 1"
_space_group_IT_number       1

loop_
  _space_group_symop_operation_xyz
  'x, y, z'

loop_
  _atom_site_type_symbol
  _atom_site_label
  _atom_site_symmetry_multiplicity
  _atom_site_fract_x
  _atom_site_fract_y
  _atom_site_fract_z
  _atom_site_occupancy
  Fe  Fe1       1.0  0.44376  0.26235  0.27782  1.0000
  S   S1        1.0  0.43064  0.30743  0.26812  1.0000
  S   S2        1.0  0.40015  0.22527  0.26437  1.0000
  S   S3        1.0  0.53068  0.32190  0.29749  1.0000
  H   H1        1.0  0.42836  0.46976  0.26713  1.0000
  C   C1        1.0  0.30637  0.25322  0.19858  1.0000
  Fe  Fe2       1.0  0.46123  0.31670  0.30333  1.0000
  S   S4        1.0  0.42728  0.34989  0.31922  1.0000
  Fe  Fe3       1.0  0.50037  0.30894  0.26304  1.0000
  H   H2        1.0  0.15759  0.20686  0.30668  1.0000
  S   S5        1.0  0.46849  0.27123  0.31341  1.0000
  C   C2        1.0  0.41411  0.53117  0.12006  1.0000
  Fe  Fe4       1.0  0.36307  0.37663  0.07353  1.0000
  S   S6        1.0  0.42400  0.36603  0.09877  1.0000
  S   S7        1.0  0.32733  0.34160  0.05234  1.0000
  Fe  Fe5       1.0  0.37074  0.43897  0.08486  1.0000
  S   S8        1.0  0.43144  0.43298  0.11125  1.0000
  S   S9        1.0  0.34278  0.48137  0.07311  1.0000
  Fe  Fe6       1.0  0.45382  0.40566  0.08677  1.0000
  H   H3        1.0  0.42867  0.44846  0.29101  1.0000
  Fe  Fe7       1.0  0.39607  0.39418  0.12077  1.0000
  S   S10       1.0  0.38375  0.38319  0.15460  1.0000
  S   S11       1.0  0.39505  0.41383  0.05992  1.0000
  S   S12       1.0  0.33308  0.40244  0.09604  1.0000
  H   H4        1.0  0.17576  0.19222  0.28410  1.0000
  S   S13       1.0  0.08570  0.26968  0.02932  1.0000
  S   S14       1.0  0.52417  0.40978  0.08084  1.0000
  S   S15       1.0  0.18461  0.16980  0.19770  1.0000
  S   S16       1.0  0.12609  0.16246  0.23562  1.0000
  Fe  Fe8       1.0  0.15569  0.19806  0.21912  1.0000
  S   S17       1.0  0.19131  0.23486  0.23818  1.0000
  Fe  Fe9       1.0  0.14903  0.13461  0.21191  1.0000
  C   C3        1.0  0.45009  0.45837  0.28078  1.0000
  S   S18       1.0  0.17607  0.09349  0.22689  1.0000
  S   S19       1.0  0.51178  0.26299  0.27023  1.0000
  H   H5        1.0  0.38513  0.30782  0.15855  1.0000
  C   C4        1.0  0.17635  0.34849  0.03203  1.0000
  C   C5        1.0  0.20248  0.37153  0.04125  1.0000
  C   C6        1.0  0.24877  0.36962  0.04735  1.0000
  C   C7        1.0  0.26935  0.34467  0.04414  1.0000
  C   C8        1.0  0.24337  0.32177  0.03447  1.0000
  C   C9        1.0  0.19691  0.32366  0.02842  1.0000
  H   H6        1.0  0.18676  0.39085  0.04396  1.0000
  H   H7        1.0  0.26848  0.38750  0.05451  1.0000
  H   H8        1.0  0.30985  0.20801  0.19134  1.0000
  H   H9        1.0  0.25913  0.30244  0.03185  1.0000
  Fe  Fe10      1.0  0.11973  0.17541  0.17378  1.0000
  C   C10       1.0  0.34203  0.22779  0.25895  1.0000
  C   C11       1.0  0.31609  0.20495  0.24928  1.0000
  C   C12       1.0  0.26978  0.20679  0.24329  1.0000
  C   C13       1.0  0.24908  0.23156  0.24686  1.0000
  C   C14       1.0  0.27491  0.25427  0.25694  1.0000
  C   C15       1.0  0.32134  0.25240  0.26302  1.0000
  H   H10       1.0  0.33189  0.18582  0.24620  1.0000
  H   H11       1.0  0.25019  0.18904  0.23585  1.0000
  H   H12       1.0  0.25904  0.27345  0.25984  1.0000
  H   H13       1.0  0.34112  0.27005  0.27061  1.0000
  C   C16       1.0  0.48264  0.34306  0.21134  1.0000
  C   C17       1.0  0.49542  0.34923  0.19147  1.0000
  C   C18       1.0  0.46554  0.36150  0.17385  1.0000
  C   C19       1.0  0.42281  0.36801  0.17614  1.0000
  C   C20       1.0  0.41022  0.36210  0.19611  1.0000
  C   C21       1.0  0.43990  0.34953  0.21360  1.0000
  Fe  Fe11      1.0  0.06549  0.16769  0.20932  1.0000
  H   H14       1.0  0.47561  0.36602  0.15856  1.0000
  H   H15       1.0  0.37732  0.36732  0.19800  1.0000
  H   H16       1.0  0.42986  0.34506  0.22886  1.0000
  C   C22       1.0  0.08879  0.20289  0.11980  1.0000
  H   H17       1.0  0.43119  0.48325  0.05970  1.0000
  S   S20       1.0  0.08659  0.13766  0.18632  1.0000
  C   C23       1.0  0.15910  0.06296  0.21181  1.0000
  C   C24       1.0  0.07596  0.32538  0.09093  1.0000
  C   C25       1.0  0.39232  0.50776  0.10900  1.0000
  C   C26       1.0  0.37064  0.51035  0.08715  1.0000
  H   H18       1.0  0.46188  0.36480  0.05806  1.0000
  H   H19       1.0  0.39162  0.48782  0.11753  1.0000
  H   H20       1.0  0.07119  0.07473  0.20784  1.0000
  H   H21       1.0  0.54028  0.49970  0.04465  1.0000
  C   C27       1.0  0.51643  0.48927  0.11946  1.0000
  C   C28       1.0  0.06628  0.22208  0.08277  1.0000
  H   H22       1.0  0.39568  0.38882  0.34669  1.0000
  H   H23       1.0  0.41300  0.32427  0.04405  1.0000
  H   H24       1.0  0.05455  0.10900  0.23358  1.0000
  H   H25       1.0  0.09689  0.30896  0.27021  1.0000
  H   H26       1.0  0.47919  0.52511  0.05675  1.0000
  C   C29       1.0  0.07986  0.23237  0.30294  1.0000
  H   H27       1.0  0.52854  0.34440  0.18964  1.0000
  H   H28       1.0  0.12754  0.03952  0.15968  1.0000
  H   H29       1.0  0.07977  0.32341  0.10887  1.0000
  H   H30       1.0  0.05498  0.21729  0.23406  1.0000
  H   H31       1.0  0.17700  0.30584  0.02121  1.0000
  H   H32       1.0  0.43301  0.38304  0.02625  1.0000
  H   H33       1.0  0.38059  0.36611  0.02448  1.0000
  C   C30       1.0  0.44263  0.32819  0.03669  1.0000
  H   H34       1.0  0.45796  0.30736  0.03626  1.0000
  C   C31       1.0  0.46734  0.48301  0.06676  1.0000
  H   H35       1.0  0.46048  0.52264  0.08146  1.0000
  C   C32       1.0  0.53222  0.51666  0.10977  1.0000
  H   H36       1.0  0.04933  0.07798  0.16639  1.0000
  H   H37       1.0  0.18161  0.22908  0.28795  1.0000
  H   H38       1.0  0.40782  0.39270  0.23835  1.0000
  C   C33       1.0  0.53381  0.41234  0.05392  1.0000
  C   C34       1.0  0.05625  0.21867  0.12631  1.0000
  H   H39       1.0  0.50711  0.35100  0.04727  1.0000
  C   C35       1.0  0.49642  0.39059  0.26138  1.0000
  H   H40       1.0  0.49441  0.43791  0.31915  1.0000
  N   N1        1.0  0.15636  0.30930  0.09375  1.0000
  C   C36       1.0  0.17065  0.33970  0.09155  1.0000
  C   C37       1.0  0.10839  0.30681  0.08211  1.0000
  C   C38       1.0  0.18404  0.29160  0.08220  1.0000
  C   C39       1.0  0.16372  0.30161  0.11775  1.0000
  C   C40       1.0  0.22051  0.34673  0.09960  1.0000
  H   H41       1.0  0.21780  0.52539  0.05122  1.0000
  C   C41       1.0  0.17482  0.25965  0.08192  1.0000
  C   C42       1.0  0.13638  0.27627  0.12423  1.0000
  H   H42       1.0  0.16144  0.34701  0.07424  1.0000
  H   H43       1.0  0.15289  0.35370  0.10073  1.0000
  H   H44       1.0  0.09516  0.28500  0.08207  1.0000
  H   H45       1.0  0.10502  0.31240  0.06447  1.0000
  H   H46       1.0  0.18016  0.29877  0.06490  1.0000
  H   H47       1.0  0.21990  0.29400  0.08965  1.0000
  H   H48       1.0  0.19940  0.29737  0.12434  1.0000
  H   H49       1.0  0.15579  0.31976  0.12715  1.0000
  H   H50       1.0  0.24058  0.33882  0.08827  1.0000
  H   H51       1.0  0.22552  0.36996  0.09977  1.0000
  H   H52       1.0  0.23353  0.33876  0.11640  1.0000
  H   H53       1.0  0.43053  0.52908  0.13705  1.0000
  H   H54       1.0  0.45050  0.41158  0.31913  1.0000
  C   C43       1.0  0.48598  0.41512  0.31887  1.0000
  H   H55       1.0  0.18437  0.25006  0.09847  1.0000
  H   H56       1.0  0.19568  0.24978  0.07177  1.0000
  H   H57       1.0  0.14013  0.25399  0.07435  1.0000
  H   H58       1.0  0.15760  0.26373  0.13735  1.0000
  H   H59       1.0  0.12317  0.26148  0.11104  1.0000
  H   H60       1.0  0.10859  0.28351  0.13138  1.0000
  H   H61       1.0  0.48326  0.47416  0.05417  1.0000
  H   H62       1.0  0.07006  0.22308  0.06597  1.0000
  H   H63       1.0  0.05794  0.25547  0.23521  1.0000
  C   C44       1.0  0.50070  0.40040  0.29991  1.0000
  H   H64       1.0  0.05702  0.14983  0.25722  1.0000
  H   H65       1.0  0.11950  0.26576  0.26095  1.0000
  H   H66       1.0  0.11965  0.21660  0.25750  1.0000
  H   H67       1.0  0.42723  0.37347  0.27648  1.0000
  H   H68       1.0  0.45240  0.22714  0.21306  1.0000
  H   H69       1.0  0.48676  0.33286  0.06851  1.0000
  C   C45       1.0  0.39796  0.40364  0.25197  1.0000
  H   H70       1.0  0.28753  0.04046  0.22331  1.0000
  H   H71       1.0  0.49895  0.37736  0.30313  1.0000
  H   H72       1.0  0.46878  0.42683  0.03932  1.0000
  H   H73       1.0  0.41194  0.40452  0.28695  1.0000
  H   H74       1.0  0.25548  0.22157  0.18661  1.0000
  S   S21       1.0  0.52115  0.32791  0.23314  1.0000
  C   C46       1.0  0.29010  0.22672  0.18507  1.0000
  H   H75       1.0  0.48066  0.39558  0.24412  1.0000
  C   C47       1.0  0.47654  0.34550  0.05326  1.0000
  H   H76       1.0  0.10943  0.24084  0.31458  1.0000
  H   H77       1.0  0.49055  0.36756  0.26349  1.0000
  H   H78       1.0  0.11854  0.19234  0.09282  1.0000
  N   N2        1.0  0.35258  0.26415  0.19794  1.0000
  C   C48       1.0  0.36477  0.28595  0.21548  1.0000
  C   C49       1.0  0.38385  0.23980  0.20285  1.0000
  C   C50       1.0  0.35156  0.27623  0.17538  1.0000
  C   C51       1.0  0.33378  0.31122  0.21354  1.0000
  C   C52       1.0  0.43345  0.24687  0.21164  1.0000
  C   C53       1.0  0.39418  0.29102  0.17119  1.0000
  H   H79       1.0  0.28121  0.26954  0.19278  1.0000
  H   H80       1.0  0.39869  0.29476  0.21652  1.0000
  H   H81       1.0  0.36583  0.27596  0.23181  1.0000
  H   H82       1.0  0.37417  0.22560  0.21556  1.0000
  H   H83       1.0  0.32371  0.29097  0.17025  1.0000
  H   H84       1.0  0.34814  0.32662  0.22636  1.0000
  H   H85       1.0  0.33048  0.32227  0.19756  1.0000
  H   H86       1.0  0.30065  0.30490  0.21653  1.0000
  H   H87       1.0  0.43913  0.25553  0.22837  1.0000
  H   H88       1.0  0.44794  0.26142  0.20094  1.0000
  C   C54       1.0  0.37101  0.53644  0.07634  1.0000
  H   H89       1.0  0.41569  0.27590  0.16524  1.0000
  H   H90       1.0  0.41381  0.30209  0.18541  1.0000
  H   H91       1.0  0.30365  0.24812  0.21565  1.0000
  C   C55       1.0  0.50060  0.42094  0.03645  1.0000
  C   C56       1.0  0.11332  0.21370  0.27423  1.0000
  C   C57       1.0  0.14802  0.06378  0.18899  1.0000
  H   H92       1.0  0.14994  0.08352  0.18029  1.0000
  C   C58       1.0  0.48415  0.51333  0.07260  1.0000
  H   H93       1.0  0.52288  0.49101  0.13752  1.0000
  S   S22       1.0  0.09285  0.20598  0.19437  1.0000
  H   H94       1.0  0.48012  0.48638  0.11406  1.0000
  H   H95       1.0  0.34384  0.25937  0.16302  1.0000
  C   C59       1.0  0.08375  0.29161  0.27937  1.0000
  N   N3        1.0  0.47597  0.40718  0.27702  1.0000
  H   H96       1.0  0.09589  0.19299  0.27435  1.0000
  C   C60       1.0  0.09359  0.20462  0.09798  1.0000
  H   H97       1.0  0.39638  0.42651  0.24838  1.0000
  S   S23       1.0  0.12488  0.18136  0.13839  1.0000
  H   H98       1.0  0.28948  0.22994  0.16744  1.0000
  H   H99       1.0  0.07961  0.34777  0.08615  1.0000
  C   C61       1.0  0.42847  0.39676  0.27421  1.0000
  N   N4        1.0  0.08493  0.23687  0.27957  1.0000
  H   H100      1.0  0.14009  0.26613  0.28904  1.0000
  C   C62       1.0  0.15947  0.21069  0.28938  1.0000
  H   H101      1.0  0.50457  0.40609  0.33453  1.0000
  H   H102      1.0  0.38162  0.22663  0.18813  1.0000
  H   H103      1.0  0.08901  0.29753  0.29682  1.0000
  H   H104      1.0  0.05224  0.21743  0.14306  1.0000
  H   H105      1.0  0.36373  0.39608  0.25235  1.0000
  C   C63       1.0  0.10836  0.26449  0.27680  1.0000
  C   C64       1.0  0.43915  0.35376  0.34791  1.0000
  H   H106      1.0  0.47086  0.47468  0.29088  1.0000
  H   H107      1.0  0.47215  0.46851  0.08098  1.0000
  S   S24       1.0  0.11818  0.35130  0.02650  1.0000
  H   H108      1.0  0.05065  0.15336  0.29577  1.0000
  H   H109      1.0  0.26291  0.52582  0.07407  1.0000
  H   H110      1.0  0.47348  0.44153  0.25363  1.0000
  C   C65       1.0  0.48018  0.43807  0.27169  1.0000
  N   N5        1.0  0.53109  0.51705  0.08553  1.0000
  Fe  Fe12      1.0  0.53611  0.27552  0.30505  1.0000
  H   H111      1.0  0.35467  0.53837  0.05933  1.0000
  H   H112      1.0  0.51078  0.53319  0.11413  1.0000
  H   H113      1.0  0.53384  0.47039  0.11587  1.0000
  H   H114      1.0  0.07799  0.20943  0.30690  1.0000
  H   H115      1.0  0.51500  0.44566  0.27756  1.0000
  H   H116      1.0  0.05006  0.07449  0.24436  1.0000
  H   H117      1.0  0.53650  0.40601  0.30199  1.0000
  C   C66       1.0  0.24460  0.53909  0.06056  1.0000
  H   H118      1.0  0.04792  0.29059  0.27215  1.0000
  C   C67       1.0  0.45243  0.52113  0.49180  1.0000
  C   C68       1.0  0.31975  0.12654  0.63885  1.0000
  H   H119      1.0  0.31969  0.15918  0.60032  1.0000
  S   S25       1.0  0.21631  0.23258  0.64736  1.0000
  Fe  Fe13      1.0  0.41729  0.45837  0.44693  1.0000
  S   S26       1.0  0.38772  0.44840  0.47617  1.0000
  S   S27       1.0  0.43189  0.50208  0.43478  1.0000
  Fe  Fe14      1.0  0.43689  0.39684  0.44016  1.0000
  S   S28       1.0  0.40959  0.38212  0.46923  1.0000
  S   S29       1.0  0.46711  0.36366  0.42243  1.0000
  Fe  Fe15      1.0  0.35423  0.41169  0.45671  1.0000
  S   S30       1.0  0.28137  0.39889  0.45202  1.0000
  Fe  Fe16      1.0  0.44564  0.41968  0.48628  1.0000
  S   S31       1.0  0.48177  0.41827  0.52174  1.0000
  S   S32       1.0  0.37912  0.42403  0.42632  1.0000
  S   S33       1.0  0.47753  0.43206  0.45839  1.0000
  H   H120      1.0  0.32652  0.10405  0.64311  1.0000
  H   H121      1.0  0.34295  0.13269  0.62825  1.0000
  H   H122      1.0  0.06902  0.20992  0.60232  1.0000
  Fe  Fe17      1.0  0.13248  0.31485  0.51852  1.0000
  S   S34       1.0  0.20422  0.33028  0.52451  1.0000
  S   S35       1.0  0.11220  0.26998  0.51032  1.0000
  C   C69       1.0  0.26120  0.37876  0.47203  1.0000
  C   C70       1.0  0.21720  0.36842  0.46727  1.0000
  C   C71       1.0  0.19959  0.35305  0.48306  1.0000
  C   C72       1.0  0.22585  0.34799  0.50378  1.0000
  C   C73       1.0  0.27003  0.35799  0.50842  1.0000
  C   C74       1.0  0.28774  0.37324  0.49260  1.0000
  H   H123      1.0  0.19657  0.37249  0.45135  1.0000
  H   H124      1.0  0.16566  0.34523  0.47922  1.0000
  H   H125      1.0  0.29058  0.35413  0.52440  1.0000
  H   H126      1.0  0.32169  0.38107  0.49644  1.0000
  H   H127      1.0  0.32777  0.13871  0.65421  1.0000
  C   C75       1.0  0.27038  0.12927  0.62787  1.0000
  C   C76       1.0  0.42728  0.37868  0.37996  1.0000
  C   C77       1.0  0.45663  0.36091  0.39366  1.0000
  C   C78       1.0  0.47722  0.33964  0.38437  1.0000
  H   H128      1.0  0.25292  0.17891  0.63967  1.0000
  C   C79       1.0  0.53792  0.40871  0.52769  1.0000
  H   H129      1.0  0.41125  0.39514  0.38693  1.0000
  H   H130      1.0  0.33615  0.18124  0.63738  1.0000
  Fe  Fe18      1.0  0.21948  0.20139  0.67557  1.0000
  C   C80       1.0  0.41024  0.29454  0.42297  1.0000
  Fe  Fe19      1.0  0.05305  0.28833  0.48743  1.0000
  H   H131      1.0  0.42602  0.50577  0.48456  1.0000
  C   C81       1.0  0.09731  0.31192  0.64656  1.0000
  C   C82       1.0  0.17657  0.14990  0.61666  1.0000
  H   H132      1.0  0.35302  0.29977  0.38509  1.0000
  C   C83       1.0  0.17486  0.23242  0.62321  1.0000
  C   C84       1.0  0.18285  0.24739  0.60480  1.0000
  C   C85       1.0  0.14979  0.24914  0.58560  1.0000
  C   C86       1.0  0.10840  0.23600  0.58477  1.0000
  C   C87       1.0  0.10090  0.22028  0.60294  1.0000
  C   C88       1.0  0.13391  0.21862  0.62216  1.0000
  H   H133      1.0  0.21447  0.25813  0.60550  1.0000
  H   H134      1.0  0.15595  0.26122  0.57166  1.0000
  H   H135      1.0  0.16099  0.29107  0.64684  1.0000
  H   H136      1.0  0.12743  0.20708  0.63628  1.0000
  H   H137      1.0  0.30947  0.21351  0.63946  1.0000
  C   C89       1.0  0.10157  0.30253  0.60817  1.0000
  H   H138      1.0  0.12070  0.28324  0.61287  1.0000
  N   N6        1.0  0.25810  0.15341  0.61199  1.0000
  H   H139      1.0  0.34673  0.50568  0.44780  1.0000
  H   H140      1.0  0.27239  0.17165  0.58225  1.0000
  S   S36       1.0  0.06458  0.24023  0.56190  1.0000
  H   H141      1.0  0.31916  0.20383  0.61357  1.0000
  C   C90       1.0  0.41853  0.37506  0.35717  1.0000
  C   C91       1.0  0.28246  0.12695  0.58089  1.0000
  H   H142      1.0  0.05715  0.41087  0.47336  1.0000
  H   H143      1.0  0.42014  0.30938  0.41096  1.0000
  H   H144      1.0  0.53852  0.48364  0.52644  1.0000
  H   H145      1.0  0.25271  0.13079  0.64158  1.0000
  H   H146      1.0  0.29484  0.30502  0.37408  1.0000
  H   H147      1.0  0.18025  0.16896  0.62678  1.0000
  S   S37       1.0  0.18190  0.16041  0.67604  1.0000
  S   S38       1.0  0.09609  0.31668  0.54614  1.0000
  H   H148      1.0  0.29562  0.37586  0.41008  1.0000
  C   C92       1.0  0.28408  0.15420  0.59405  1.0000
  Fe  Fe20      1.0  0.07139  0.27320  0.53606  1.0000
  H   H149      1.0  0.13488  0.49183  0.52456  1.0000
  H   H150      1.0  0.24913  0.12271  0.57063  1.0000
  C   C93       1.0  0.31007  0.19524  0.62870  1.0000
  H   H151      1.0  0.17941  0.13089  0.62737  1.0000
  H   H152      1.0  0.30557  0.12945  0.56950  1.0000
  H   H153      1.0  0.30268  0.04504  0.67941  1.0000
  C   C94       1.0  0.26353  0.18112  0.62378  1.0000
  H   H154      1.0  0.20327  0.12947  0.59249  1.0000
  C   C95       1.0  0.20967  0.14976  0.60123  1.0000
  H   H155      1.0  0.25810  0.10869  0.62047  1.0000
  H   H156      1.0  0.32180  0.37775  0.38729  1.0000
  H   H157      1.0  0.49989  0.32577  0.39486  1.0000
  H   H158      1.0  0.24158  0.19715  0.61414  1.0000
  H   H159      1.0  0.15810  0.37038  0.55557  1.0000
  H   H160      1.0  0.14223  0.14976  0.60670  1.0000
  H   H161      1.0  0.19951  0.16659  0.58862  1.0000
  N   N7        1.0  0.33770  0.32052  0.42403  1.0000
  C   C96       1.0  0.31263  0.33099  0.44055  1.0000
  C   C97       1.0  0.34937  0.34589  0.41134  1.0000
  C   C98       1.0  0.37997  0.30776  0.43655  1.0000
  C   C99       1.0  0.30897  0.29903  0.40983  1.0000
  C   C100      1.0  0.30027  0.30890  0.45682  1.0000
  H   H162      1.0  0.06584  0.42096  0.52255  1.0000
  C   C101      1.0  0.30984  0.36285  0.39881  1.0000
  C   C102      1.0  0.31908  0.29404  0.38696  1.0000
  H   H163      1.0  0.33178  0.34812  0.45045  1.0000
  H   H164      1.0  0.28076  0.34046  0.43227  1.0000
  H   H165      1.0  0.36948  0.34046  0.39938  1.0000
  H   H166      1.0  0.37111  0.36080  0.42250  1.0000
  H   H167      1.0  0.40032  0.32383  0.44724  1.0000
  H   H168      1.0  0.37284  0.29053  0.44761  1.0000
  H   H169      1.0  0.31029  0.27831  0.41850  1.0000
  H   H170      1.0  0.27358  0.30530  0.40681  1.0000
  H   H171      1.0  0.28402  0.28979  0.44866  1.0000
  H   H172      1.0  0.32948  0.30321  0.46964  1.0000
  H   H173      1.0  0.27628  0.31820  0.46555  1.0000
  H   H174      1.0  0.29342  0.10848  0.59155  1.0000
  S   S39       1.0  0.07643  0.33314  0.49411  1.0000
  H   H175      1.0  0.48470  0.31961  0.35465  1.0000
  H   H176      1.0  0.39486  0.27518  0.41478  1.0000
  H   H177      1.0  0.31427  0.27130  0.38317  1.0000
  H   H178      1.0  0.44148  0.28820  0.43415  1.0000
  C   C103      1.0  0.13316  0.29013  0.65560  1.0000
  H   H179      1.0  0.11780  0.34575  0.59852  1.0000
  H   H180      1.0  0.08642  0.47386  0.51029  1.0000
  N   N8        1.0  0.12968  0.41979  0.51277  1.0000
  C   C104      1.0  0.15362  0.39596  0.52614  1.0000
  C   C105      1.0  0.14517  0.42119  0.49139  1.0000
  C   C106      1.0  0.08034  0.41305  0.50897  1.0000
  C   C107      1.0  0.14093  0.44646  0.52555  1.0000
  C   C108      1.0  0.14052  0.38952  0.54828  1.0000
  C   C109      1.0  0.19477  0.42859  0.49283  1.0000
  H   H181      1.0  0.14783  0.29490  0.67294  1.0000
  C   C110      1.0  0.12310  0.47375  0.51372  1.0000
  H   H182      1.0  0.14802  0.37622  0.51660  1.0000
  H   H183      1.0  0.19010  0.39978  0.53004  1.0000
  H   H184      1.0  0.12688  0.43707  0.48000  1.0000
  H   H185      1.0  0.13805  0.40072  0.48281  1.0000
  C   C111      1.0  0.13485  0.32673  0.60625  1.0000
  H   H186      1.0  0.54038  0.40371  0.56223  1.0000
  H   H187      1.0  0.12778  0.44540  0.54080  1.0000
  H   H188      1.0  0.17752  0.44916  0.53099  1.0000
  H   H189      1.0  0.15118  0.40667  0.56009  1.0000
  H   H190      1.0  0.10451  0.38498  0.54660  1.0000
  C   C112      1.0  0.46863  0.33609  0.36159  1.0000
  H   H191      1.0  0.21695  0.41248  0.50189  1.0000
  H   H192      1.0  0.20142  0.42938  0.47604  1.0000
  H   H193      1.0  0.20425  0.44957  0.49995  1.0000
  S   S40       1.0  0.27561  0.10186  0.68293  1.0000
  H   H194      1.0  0.47364  0.51019  0.50579  1.0000
  C   C113      1.0  0.39842  0.53064  0.43780  1.0000
  H   H195      1.0  0.13538  0.47764  0.49848  1.0000
  H   H196      1.0  0.28339  0.34936  0.38918  1.0000
  H   H197      1.0  0.07396  0.38993  0.50912  1.0000
  H   H198      1.0  0.47177  0.52598  0.47910  1.0000
  H   H199      1.0  0.11958  0.26831  0.65532  1.0000
  C   C114      1.0  0.35830  0.52671  0.44465  1.0000
  C   C115      1.0  0.05088  0.42317  0.48729  1.0000
  H   H200      1.0  0.11400  0.33304  0.64797  1.0000
  H   H201      1.0  0.06296  0.26214  0.62772  1.0000
  H   H202      1.0  0.06512  0.35221  0.61873  1.0000
  H   H203      1.0  0.15696  0.31995  0.59545  1.0000
  N   N9        1.0  0.07115  0.30713  0.62365  1.0000
  H   H204      1.0  0.07481  0.31207  0.65833  1.0000
  H   H205      1.0  0.08252  0.29850  0.59134  1.0000
  H   H206      1.0  0.05507  0.44585  0.48391  1.0000
  H   H207      1.0  0.15647  0.33205  0.62218  1.0000
  Fe  Fe21      1.0  0.27419  0.19266  0.72174  1.0000
  S   S41       1.0  0.32747  0.21026  0.74922  1.0000
  Fe  Fe22      1.0  0.17718  0.17252  0.71018  1.0000
  S   S42       1.0  0.11154  0.16298  0.71997  1.0000
  H   H208      1.0  0.42267  0.11783  0.72320  1.0000
  H   H209      1.0  0.38364  0.28013  0.98606  1.0000
  S   S43       1.0  0.23988  0.15128  0.72638  1.0000
  S   S44       1.0  0.21028  0.21497  0.70855  1.0000
  C   C116      1.0  0.25457  0.06941  0.69108  1.0000
  H   H210      1.0  0.39556  0.14642  0.70757  1.0000
  H   H211      1.0  0.37638  0.40496  0.99900  1.0000
  H   H212      1.0  0.16996  0.23161  0.88217  1.0000
  C   C117      1.0  0.40885  0.36873  0.01602  1.0000
  S   S45       1.0  0.28578  0.18204  0.68878  1.0000
  H   H213      1.0  0.14895  0.26473  0.88380  1.0000
  H   H214      1.0  0.05381  0.17732  0.94483  1.0000
  C   C118      1.0  0.40906  0.29097  0.99860  1.0000
  H   H215      1.0  0.30592  0.10977  0.72857  1.0000
  H   H216      1.0  0.14095  0.24378  0.92503  1.0000
  C   C119      1.0  0.16664  0.24286  0.91503  1.0000
  C   C120      1.0  0.38280  0.21824  0.74676  1.0000
  C   C121      1.0  0.39959  0.20919  0.72900  1.0000
  C   C122      1.0  0.44493  0.21323  0.72878  1.0000
  C   C123      1.0  0.47359  0.22735  0.74586  1.0000
  C   C124      1.0  0.45646  0.23730  0.76323  1.0000
  C   C125      1.0  0.41143  0.23242  0.76380  1.0000
  H   H217      1.0  0.37790  0.19857  0.71566  1.0000
  H   H218      1.0  0.45786  0.20556  0.71525  1.0000
  H   H219      1.0  0.47816  0.24812  0.77652  1.0000
  H   H220      1.0  0.39878  0.23957  0.77758  1.0000
  C   C126      1.0  0.10697  0.16645  0.74741  1.0000
  C   C127      1.0  0.13470  0.18486  0.76154  1.0000
  C   C128      1.0  0.12730  0.18910  0.78269  1.0000
  C   C129      1.0  0.09238  0.17484  0.78985  1.0000
  Fe  Fe23      1.0  0.07203  0.31386  0.01693  1.0000
  C   C130      1.0  0.29751  0.08249  0.75464  1.0000
  H   H221      1.0  0.16112  0.19636  0.75599  1.0000
  H   H222      1.0  0.14829  0.20379  0.79339  1.0000
  H   H223      1.0  0.05733  0.21436  0.85462  1.0000
  H   H224      1.0  0.43489  0.07967  0.79383  1.0000
  H   H225      1.0  0.06426  0.24045  0.90908  1.0000
  H   H226      1.0  0.44101  0.29040  0.99319  1.0000
  H   H227      1.0  0.48218  0.42826  0.00167  1.0000
  H   H228      1.0  0.10670  0.27068  0.84967  1.0000
  H   H229      1.0  0.41958  0.39265  0.98703  1.0000
  C   C131      1.0  0.14673  0.24294  0.89023  1.0000
  S   S46       1.0  0.53106  0.22993  0.74583  1.0000
  C   C132      1.0  0.06677  0.24747  0.89229  1.0000
  H   H230      1.0  0.38068  0.32940  0.98454  1.0000
  H   H231      1.0  0.54001  0.51144  0.97993  1.0000
  H   H232      1.0  0.11419  0.21767  0.85298  1.0000
  H   H233      1.0  0.34590  0.15348  0.73196  1.0000
  Fe  Fe24      1.0  0.04726  0.25742  0.99585  1.0000
  N   N10       1.0  0.10053  0.23061  0.88387  1.0000
  H   H234      1.0  0.41135  0.27858  0.01399  1.0000
  H   H235      1.0  0.07302  0.25054  0.82843  1.0000
  C   C133      1.0  0.07834  0.25553  0.84609  1.0000
  H   H236      1.0  0.42937  0.35154  0.97031  1.0000
  H   H237      1.0  0.11966  0.17500  0.86874  1.0000
  S   S47       1.0  0.06597  0.22224  0.97598  1.0000
  H   H238      1.0  0.36596  0.37406  0.98309  1.0000
  H   H239      1.0  0.16456  0.18578  0.89098  1.0000
  C   C134      1.0  0.09861  0.20130  0.89342  1.0000
  H   H240      1.0  0.08057  0.28985  0.87894  1.0000
  H   H241      1.0  0.31537  0.07154  0.76945  1.0000
  N   N11       1.0  0.36321  0.11831  0.75444  1.0000
  C   C135      1.0  0.37485  0.13995  0.73843  1.0000
  C   C136      1.0  0.34486  0.13409  0.77120  1.0000
  S   S48       1.0  0.08172  0.18214  0.81580  1.0000
  C   C137      1.0  0.40476  0.10287  0.76442  1.0000
  C   C138      1.0  0.32851  0.09834  0.74187  1.0000
  C   C139      1.0  0.37815  0.15348  0.78637  1.0000
  H   H242      1.0  0.48995  0.36299  0.01114  1.0000
  C   C140      1.0  0.39045  0.12844  0.71844  1.0000
  H   H243      1.0  0.40188  0.15444  0.74653  1.0000
  H   H244      1.0  0.33043  0.11982  0.78218  1.0000
  H   H245      1.0  0.31670  0.14729  0.76299  1.0000
  H   H246      1.0  0.36490  0.31971  0.00905  1.0000
  H   H247      1.0  0.27298  0.09691  0.75897  1.0000
  H   H248      1.0  0.43314  0.11771  0.77025  1.0000
  C   C141      1.0  0.46314  0.34640  0.97909  1.0000
  H   H249      1.0  0.40545  0.14155  0.79663  1.0000
  N   N12       1.0  0.42923  0.34071  0.01394  1.0000
  H   H250      1.0  0.36044  0.16405  0.79762  1.0000
  C   C142      1.0  0.39194  0.38555  0.99480  1.0000
  H   H251      1.0  0.39201  0.17055  0.77736  1.0000
  C   C143      1.0  0.27462  0.04430  0.68730  1.0000
  H   H252      1.0  0.41613  0.09052  0.75179  1.0000
  H   H253      1.0  0.10612  0.20149  0.91161  1.0000
  C   C144      1.0  0.21833  0.06827  0.70128  1.0000
  H   H254      1.0  0.18636  0.22371  0.91998  1.0000
  H   H255      1.0  0.37994  0.08841  0.79385  1.0000
  H   H256      1.0  0.12507  0.15927  0.89512  1.0000
  H   H257      1.0  0.06416  0.19254  0.88893  1.0000
  C   C145      1.0  0.40162  0.08166  0.78299  1.0000
  C   C146      1.0  0.12905  0.17949  0.88646  1.0000
  H   H258      1.0  0.34409  0.08219  0.73341  1.0000
  C   C147      1.0  0.08764  0.22804  0.85937  1.0000
  H   H259      1.0  0.27814  0.06618  0.74395  1.0000
  C   C148      1.0  0.07283  0.15167  0.75479  1.0000
  H   H260      1.0  0.36552  0.11415  0.70854  1.0000
  H   H261      1.0  0.20258  0.08747  0.70425  1.0000
  C   C149      1.0  0.50835  0.42188  0.01510  1.0000
  H   H262      1.0  0.18836  0.26179  0.91928  1.0000
  C   C150      1.0  0.06571  0.15573  0.77598  1.0000
  Fe  Fe25      1.0  0.24712  0.14215  0.69232  1.0000
  C   C151      1.0  0.07473  0.27962  0.89410  1.0000
  H   H263      1.0  0.48554  0.36331  0.97477  1.0000
  H   H264      1.0  0.39029  0.06061  0.77632  1.0000
  H   H265      1.0  0.05172  0.13711  0.74402  1.0000
  H   H266      1.0  0.10284  0.28494  0.90771  1.0000
  C   C152      1.0  0.39427  0.32124  0.00118  1.0000
  H   H267      1.0  0.17372  0.04140  0.71519  1.0000
  C   C153      1.0  0.20203  0.04213  0.70748  1.0000
  H   H268      1.0  0.47341  0.32679  0.97236  1.0000
  C   C154      1.0  0.47011  0.34412  0.00430  1.0000
  H   H269      1.0  0.49242  0.32603  0.00932  1.0000
  H   H270      1.0  0.04486  0.28919  0.89801  1.0000
  H   H271      1.0  0.54247  0.35914  0.85934  1.0000
  H   H272      1.0  0.04733  0.26511  0.84852  1.0000
  H   H273      1.0  0.54356  0.50640  0.94647  1.0000
  Fe  Fe26      1.0  0.50068  0.80116  0.29065  1.0000
  S   S49       1.0  0.47289  0.75806  0.29606  1.0000
  H   H274      1.0  0.27698  0.80501  0.23537  1.0000
  Fe  Fe27      1.0  0.41403  0.81841  0.26122  1.0000
  S   S50       1.0  0.38008  0.77688  0.26460  1.0000
  S   S51       1.0  0.37625  0.85028  0.23768  1.0000
  Fe  Fe28      1.0  0.41183  0.77978  0.30022  1.0000
  S   S52       1.0  0.36809  0.76513  0.32354  1.0000
  Fe  Fe29      1.0  0.44345  0.75825  0.26018  1.0000
  S   S53       1.0  0.44206  0.71750  0.24181  1.0000
  S   S54       1.0  0.44095  0.82324  0.29737  1.0000
  S   S55       1.0  0.47600  0.79956  0.25417  1.0000
  Fe  Fe30      1.0  0.43326  0.69127  0.11749  1.0000
  S   S56       1.0  0.38013  0.65806  0.10779  1.0000
  S   S57       1.0  0.42610  0.72792  0.13897  1.0000
  Fe  Fe31      1.0  0.48760  0.67089  0.08506  1.0000
  S   S58       1.0  0.43874  0.63621  0.07256  1.0000
  H   H275      1.0  0.34726  0.71088  0.28647  1.0000
  Fe  Fe32      1.0  0.38648  0.66811  0.07338  1.0000
  S   S59       1.0  0.33017  0.67516  0.04444  1.0000
  Fe  Fe33      1.0  0.43674  0.62904  0.10787  1.0000
  S   S60       1.0  0.44187  0.58603  0.12383  1.0000
  S   S61       1.0  0.43548  0.70347  0.08285  1.0000
  S   S62       1.0  0.48964  0.66156  0.12056  1.0000
  Fe  Fe34      1.0  0.13566  0.90040  0.22722  1.0000
  S   S63       1.0  0.07288  0.87414  0.22003  1.0000
  S   S64       1.0  0.19169  0.88862  0.25516  1.0000
  Fe  Fe35      1.0  0.10160  0.94268  0.19116  1.0000
  S   S65       1.0  0.11632  0.98248  0.17346  1.0000
  S   S66       1.0  0.09969  0.94095  0.22668  1.0000
  S   S67       1.0  0.14282  0.90419  0.19243  1.0000
  H   H276      1.0  0.34245  0.60151  0.10693  1.0000
  H   H277      1.0  0.19505  0.76550  0.23448  1.0000
  S   S68       1.0  0.15664  0.72403  0.06755  1.0000
  C   C155      1.0  0.13281  0.01323  0.18850  1.0000
  C   C156      1.0  0.14298  0.01260  0.21133  1.0000
  H   H278      1.0  0.14084  0.99306  0.22006  1.0000
  H   H279      1.0  0.21401  0.97480  0.17119  1.0000
  C   C157      1.0  0.41441  0.55726  0.10933  1.0000
  H   H280      1.0  0.39035  0.64060  0.30255  1.0000
  C   C158      1.0  0.39308  0.55987  0.08738  1.0000
  H   H281      1.0  0.17749  0.64055  0.07765  1.0000
  H   H282      1.0  0.39367  0.57988  0.07897  1.0000
  C   C159      1.0  0.28129  0.68830  0.05050  1.0000
  C   C160      1.0  0.07513  0.81723  0.12555  1.0000
  H   H283      1.0  0.08478  0.79819  0.13486  1.0000
  C   C161      1.0  0.20339  0.70978  0.06013  1.0000
  C   C162      1.0  0.23356  0.69524  0.07613  1.0000
  C   C163      1.0  0.27247  0.68473  0.07138  1.0000
  H   H284      1.0  0.42238  0.62969  0.27163  1.0000
  H   H285      1.0  0.22701  0.69241  0.09236  1.0000
  H   H286      1.0  0.29556  0.67383  0.08390  1.0000
  C   C164      1.0  0.06986  0.81722  0.10268  1.0000
  C   C165      1.0  0.43171  0.65014  0.27980  1.0000
  C   C166      1.0  0.32470  0.85995  0.24267  1.0000
  C   C167      1.0  0.31487  0.85684  0.26341  1.0000
  C   C168      1.0  0.27400  0.86582  0.26709  1.0000
  C   C169      1.0  0.24248  0.87740  0.24997  1.0000
  C   C170      1.0  0.25205  0.87994  0.22913  1.0000
  C   C171      1.0  0.29318  0.87143  0.22556  1.0000
  H   H287      1.0  0.33905  0.84793  0.27671  1.0000
  H   H288      1.0  0.26677  0.86371  0.28324  1.0000
  H   H289      1.0  0.22809  0.88878  0.21584  1.0000
  H   H290      1.0  0.30064  0.87364  0.20946  1.0000
  C   C172      1.0  0.43751  0.72041  0.21320  1.0000
  C   C173      1.0  0.43193  0.74656  0.20250  1.0000
  C   C174      1.0  0.42853  0.74846  0.17976  1.0000
  C   C175      1.0  0.43079  0.72430  0.16752  1.0000
  C   C176      1.0  0.43601  0.69809  0.17816  1.0000
  C   C177      1.0  0.43929  0.69617  0.20094  1.0000
  H   H291      1.0  0.43051  0.76535  0.21177  1.0000
  H   H292      1.0  0.42472  0.76883  0.17169  1.0000
  H   H293      1.0  0.43780  0.67935  0.16888  1.0000
  H   H294      1.0  0.44362  0.67589  0.20911  1.0000
  S   S69       1.0  0.11309  0.79198  0.03078  1.0000
  H   H295      1.0  0.26148  0.56351  0.11052  1.0000
  N   N13       1.0  0.28033  0.96704  0.22379  1.0000
  C   C178      1.0  0.31317  0.94688  0.21807  1.0000
  C   C179      1.0  0.23967  0.96589  0.20557  1.0000
  C   C180      1.0  0.26882  0.95718  0.24509  1.0000
  C   C181      1.0  0.30228  0.99585  0.22611  1.0000
  C   C182      1.0  0.35344  0.93982  0.23646  1.0000
  C   C183      1.0  0.22414  0.96631  0.24976  1.0000
  H   H296      1.0  0.18855  0.72426  0.02665  1.0000
  H   H297      1.0  0.29646  0.92653  0.21253  1.0000
  H   H298      1.0  0.32706  0.95504  0.20405  1.0000
  H   H299      1.0  0.21251  0.97858  0.20905  1.0000
  H   H300      1.0  0.26733  0.93381  0.24597  1.0000
  H   H301      1.0  0.29517  0.96372  0.25926  1.0000
  H   H302      1.0  0.33044  0.99625  0.24047  1.0000
  H   H303      1.0  0.31847  0.00119  0.21218  1.0000
  H   H304      1.0  0.37335  0.95878  0.24266  1.0000
  H   H305      1.0  0.34354  0.92801  0.25022  1.0000
  H   H306      1.0  0.37557  0.92573  0.22986  1.0000
  H   H307      1.0  0.22255  0.96012  0.26680  1.0000
  H   H308      1.0  0.21920  0.98921  0.24808  1.0000
  H   H309      1.0  0.16126  0.60527  0.07018  1.0000
  H   H310      1.0  0.42197  0.70560  0.29073  1.0000
  H   H311      1.0  0.53579  0.59044  0.07769  1.0000
  H   H312      1.0  0.25318  0.62981  0.09120  1.0000
  N   N14       1.0  0.18691  0.79802  0.20918  1.0000
  C   C184      1.0  0.15072  0.78039  0.19539  1.0000
  C   C185      1.0  0.16548  0.82009  0.22026  1.0000
  C   C186      1.0  0.21579  0.81249  0.19543  1.0000
  C   C187      1.0  0.16601  0.75865  0.18067  1.0000
  C   C188      1.0  0.13982  0.80925  0.23758  1.0000
  C   C189      1.0  0.19141  0.83023  0.17589  1.0000
  C   C190      1.0  0.28673  0.59793  0.06583  1.0000
  H   H313      1.0  0.12585  0.79388  0.18477  1.0000
  H   H314      1.0  0.13162  0.76830  0.20588  1.0000
  H   H315      1.0  0.19034  0.83592  0.22817  1.0000
  H   H316      1.0  0.14134  0.83227  0.20810  1.0000
  H   H317      1.0  0.24010  0.82705  0.20551  1.0000
  H   H318      1.0  0.23624  0.79703  0.18904  1.0000
  H   H319      1.0  0.18721  0.74248  0.19033  1.0000
  H   H320      1.0  0.13627  0.74746  0.17122  1.0000
  H   H321      1.0  0.18331  0.76861  0.16853  1.0000
  H   H322      1.0  0.11039  0.79620  0.23022  1.0000
  H   H323      1.0  0.12743  0.82763  0.24503  1.0000
  H   H324      1.0  0.16854  0.81737  0.16366  1.0000
  H   H325      1.0  0.21620  0.84027  0.16743  1.0000
  H   H326      1.0  0.17271  0.84742  0.18117  1.0000
  H   H327      1.0  0.41397  0.75764  0.02405  1.0000
  H   H328      1.0  0.41012  0.66619  0.27014  1.0000
  H   H329      1.0  0.49180  0.68878  0.30280  1.0000
  H   H330      1.0  0.30348  0.55639  0.09601  1.0000
  C   C191      1.0  0.24651  0.97583  0.18290  1.0000
  H   H331      1.0  0.16493  0.03667  0.24062  1.0000
  N   N15       1.0  0.30531  0.76874  0.10997  1.0000
  C   C192      1.0  0.31568  0.75789  0.13331  1.0000
  C   C193      1.0  0.32612  0.79780  0.11003  1.0000
  C   C194      1.0  0.32725  0.74973  0.09655  1.0000
  C   C195      1.0  0.25555  0.76841  0.10197  1.0000
  C   C196      1.0  0.30308  0.72679  0.13697  1.0000
  C   C197      1.0  0.30977  0.81936  0.12454  1.0000
  C   C198      1.0  0.32060  0.75654  0.07196  1.0000
  C   C199      1.0  0.23646  0.78844  0.08265  1.0000
  H   H332      1.0  0.35168  0.76063  0.14059  1.0000
  H   H333      1.0  0.29837  0.77026  0.14379  1.0000
  H   H334      1.0  0.32159  0.80722  0.09345  1.0000
  H   H335      1.0  0.36287  0.79672  0.11567  1.0000
  H   H336      1.0  0.36365  0.74936  0.10320  1.0000
  H   H337      1.0  0.31511  0.72769  0.09741  1.0000
  H   H338      1.0  0.24321  0.74678  0.09725  1.0000
  H   H339      1.0  0.23896  0.77402  0.11546  1.0000
  H   H340      1.0  0.26852  0.72141  0.12877  1.0000
  H   H341      1.0  0.32643  0.71235  0.13168  1.0000
  H   H342      1.0  0.30618  0.72277  0.15477  1.0000
  H   H343      1.0  0.32391  0.81532  0.14212  1.0000
  H   H344      1.0  0.32153  0.84076  0.12066  1.0000
  H   H345      1.0  0.27313  0.81968  0.12184  1.0000
  H   H346      1.0  0.33281  0.77789  0.06856  1.0000
  H   H347      1.0  0.28550  0.75325  0.06357  1.0000
  H   H348      1.0  0.34005  0.74151  0.06455  1.0000
  H   H349      1.0  0.20857  0.77748  0.07157  1.0000
  H   H350      1.0  0.25974  0.79551  0.07235  1.0000
  H   H351      1.0  0.22146  0.80702  0.08853  1.0000
  H   H352      1.0  0.21995  0.60519  0.10265  1.0000
  C   C200      1.0  0.21559  0.77915  0.22566  1.0000
  H   H353      1.0  0.26908  0.96208  0.17642  1.0000
  H   H354      1.0  0.16097  0.79763  0.25119  1.0000
  H   H355      1.0  0.48797  0.56934  0.07977  1.0000
  H   H356      1.0  0.30717  0.61603  0.07369  1.0000
  H   H357      1.0  0.44047  0.65463  0.02692  1.0000
  H   H358      1.0  0.34692  0.67555  0.29513  1.0000
  H   H359      1.0  0.47448  0.69442  0.03709  1.0000
  Fe  Fe36      1.0  0.07789  0.88025  0.18482  1.0000
  C   C201      1.0  0.26587  0.60829  0.04255  1.0000
  H   H360      1.0  0.49030  0.75521  0.02290  1.0000
  H   H361      1.0  0.22548  0.94405  0.20393  1.0000
  Fe  Fe37      1.0  0.10469  0.74816  0.04368  1.0000
  H   H362      1.0  0.23944  0.01940  0.21905  1.0000
  C   C202      1.0  0.25060  0.70219  0.03426  1.0000
  H   H363      1.0  0.19961  0.57319  0.05477  1.0000
  C   C203      1.0  0.53544  0.64469  0.03930  1.0000
  H   H364      1.0  0.33367  0.58096  0.12964  1.0000
  C   C204      1.0  0.42514  0.64783  0.30357  1.0000
  C   C205      1.0  0.21182  0.71316  0.03911  1.0000
  N   N16       1.0  0.25573  0.58706  0.08000  1.0000
  S   S70       1.0  0.07326  0.84038  0.16503  1.0000
  H   H365      1.0  0.23376  0.76432  0.21736  1.0000
  C   C206      1.0  0.28324  0.57360  0.10026  1.0000
  H   H366      1.0  0.23745  0.80926  0.25273  1.0000
  H   H367      1.0  0.25839  0.99804  0.18301  1.0000
  H   H368      1.0  0.35540  0.66086  0.33235  1.0000
  C   C207      1.0  0.25146  0.79417  0.24287  1.0000
  H   H369      1.0  0.26911  0.77823  0.25449  1.0000
  H   H370      1.0  0.19616  0.95502  0.23906  1.0000
  H   H371      1.0  0.26667  0.54528  0.04929  1.0000
  C   C208      1.0  0.06794  0.84171  0.13640  1.0000
  H   H372      1.0  0.04991  0.88521  0.13243  1.0000
  C   C209      1.0  0.31631  0.59326  0.11524  1.0000
  C   C210      1.0  0.22360  0.56471  0.06896  1.0000
  C   C211      1.0  0.36002  0.69662  0.30054  1.0000
  C   C212      1.0  0.15658  0.03733  0.22294  1.0000
  C   C213      1.0  0.23098  0.61096  0.08723  1.0000
  C   C214      1.0  0.27327  0.02078  0.22913  1.0000
  H   H373      1.0  0.31185  0.58216  0.06440  1.0000
  C   C215      1.0  0.18887  0.62098  0.07129  1.0000
  H   H374      1.0  0.29024  0.60593  0.03193  1.0000
  C   C216      1.0  0.48515  0.68061  0.31866  1.0000
  H   H375      1.0  0.20257  0.55659  0.08032  1.0000
  C   C217      1.0  0.52440  0.57132  0.08562  1.0000
  H   H376      1.0  0.29993  0.61083  0.12156  1.0000
  H   H377      1.0  0.25758  0.63084  0.04244  1.0000
  H   H378      1.0  0.34598  0.70322  0.31457  1.0000
  C   C218      1.0  0.04942  0.86605  0.10130  1.0000
  C   C219      1.0  0.49418  0.73718  0.03444  1.0000
  N   N17       1.0  0.43622  0.67411  0.31689  1.0000
  H   H379      1.0  0.27183  0.02333  0.24657  1.0000
  C   C220      1.0  0.41103  0.69905  0.30600  1.0000
  H   H380      1.0  0.51007  0.63508  0.04677  1.0000
  C   C221      1.0  0.50647  0.70232  0.33605  1.0000
  H   H381      1.0  0.35782  0.74605  0.02152  1.0000
  H   H382      1.0  0.19436  0.62613  0.05478  1.0000
  H   H383      1.0  0.47608  0.74085  0.04769  1.0000
  Fe  Fe38      1.0  0.05207  0.80165  0.04338  1.0000
  H   H384      1.0  0.23638  0.59599  0.03447  1.0000
  C   C222      1.0  0.39163  0.74930  0.34887  1.0000
  H   H385      1.0  0.46671  0.65473  0.27888  1.0000
  H   H386      1.0  0.45622  0.65751  0.34991  1.0000
  H   H387      1.0  0.41910  0.71779  0.31644  1.0000
  H   H388      1.0  0.50489  0.66116  0.32247  1.0000
  H   H389      1.0  0.53025  0.73698  0.04183  1.0000
  H   H390      1.0  0.44545  0.63007  0.31171  1.0000
  H   H391      1.0  0.07578  0.79830  0.09455  1.0000
  C   C223      1.0  0.42827  0.66928  0.33974  1.0000
  H   H392      1.0  0.53203  0.57532  0.10345  1.0000
  H   H393      1.0  0.48813  0.72214  0.33455  1.0000
  H   H394      1.0  0.45797  0.76504  0.34963  1.0000
  S   S71       1.0  0.04507  0.84152  0.06152  1.0000
  H   H395      1.0  0.54056  0.70780  0.33389  1.0000
  S   S72       1.0  0.04693  0.75908  0.05834  1.0000
  C   C224      1.0  0.48042  0.70858  0.02362  1.0000
  H   H396      1.0  0.39940  0.70413  0.02861  1.0000
  H   H397      1.0  0.06372  0.02835  0.22049  1.0000
  C   C225      1.0  0.05554  0.86624  0.12423  1.0000
  C   C226      1.0  0.05625  0.84150  0.09042  1.0000
  H   H398      1.0  0.04543  0.03077  0.18050  1.0000
  H   H399      1.0  0.42752  0.68971  0.34807  1.0000
  C   C227      1.0  0.38623  0.65233  0.34222  1.0000
  H   H400      1.0  0.38880  0.62980  0.33842  1.0000
  C   C228      1.0  0.13549  0.03887  0.17736  1.0000
  H   H401      1.0  0.18867  0.78898  0.68384  1.0000
  C   C229      1.0  0.40290  0.78982  0.43597  1.0000
  C   C230      1.0  0.36088  0.77518  0.42275  1.0000
  S   S73       1.0  0.23539  0.86926  0.64712  1.0000
  Fe  Fe39      1.0  0.41329  0.68092  0.48864  1.0000
  S   S74       1.0  0.42282  0.65687  0.45954  1.0000
  S   S75       1.0  0.45282  0.67051  0.52243  1.0000
  Fe  Fe40      1.0  0.33106  0.71044  0.46307  1.0000
  S   S76       1.0  0.33338  0.68793  0.43196  1.0000
  S   S77       1.0  0.27991  0.74436  0.46175  1.0000
  Fe  Fe41      1.0  0.34926  0.64941  0.45337  1.0000
  S   S78       1.0  0.31616  0.60642  0.44765  1.0000
  Fe  Fe42      1.0  0.40652  0.69735  0.44062  1.0000
  S   S79       1.0  0.44893  0.71409  0.41738  1.0000
  S   S80       1.0  0.34026  0.67116  0.48363  1.0000
  S   S81       1.0  0.40368  0.72227  0.47054  1.0000
  Fe  Fe43      1.0  0.10182  0.77932  0.52893  1.0000
  S   S82       1.0  0.10002  0.82635  0.52554  1.0000
  S   S83       1.0  0.16518  0.75466  0.53457  1.0000
  C   C231      1.0  0.09847  0.78983  0.67888  1.0000
  H   H402      1.0  0.30187  0.54698  0.45252  1.0000
  S   S84       1.0  0.05992  0.77705  0.55448  1.0000
  C   C232      1.0  0.34791  0.57750  0.44343  1.0000
  C   C233      1.0  0.38784  0.58137  0.43643  1.0000
  S   S85       1.0  0.05690  0.85491  0.57609  1.0000
  H   H403      1.0  0.39924  0.60236  0.43307  1.0000
  H   H404      1.0  0.40074  0.82144  0.37915  1.0000
  C   C234      1.0  0.19436  0.75034  0.51337  1.0000
  C   C235      1.0  0.18426  0.76601  0.49390  1.0000
  C   C236      1.0  0.21059  0.76383  0.47815  1.0000
  C   C237      1.0  0.24666  0.74563  0.48156  1.0000
  C   C238      1.0  0.25634  0.72968  0.50090  1.0000
  C   C239      1.0  0.23044  0.73218  0.51678  1.0000
  H   H405      1.0  0.15668  0.78018  0.49115  1.0000
  H   H406      1.0  0.20289  0.77624  0.46324  1.0000
  H   H407      1.0  0.28407  0.71564  0.50372  1.0000
  H   H408      1.0  0.23845  0.71999  0.53180  1.0000
  H   H409      1.0  0.27128  0.79065  0.38188  1.0000
  C   C240      1.0  0.53015  0.72775  0.57693  1.0000
  H   H410      1.0  0.45519  0.61136  0.52284  1.0000
  C   C241      1.0  0.42638  0.72625  0.39064  1.0000
  C   C242      1.0  0.45398  0.74122  0.37897  1.0000
  C   C243      1.0  0.37465  0.80562  0.38110  1.0000
  H   H411      1.0  0.23661  0.81412  0.40457  1.0000
  H   H412      1.0  0.48872  0.74452  0.38629  1.0000
  H   H413      1.0  0.50938  0.61973  0.47405  1.0000
  Fe  Fe44      1.0  0.05383  0.82369  0.54891  1.0000
  H   H414      1.0  0.42278  0.80053  0.42523  1.0000
  C   C244      1.0  0.50994  0.67855  0.52873  1.0000
  C   C245      1.0  0.07250  0.86757  0.66336  1.0000
  H   H415      1.0  0.24495  0.74310  0.38971  1.0000
  H   H416      1.0  0.50784  0.71038  0.50365  1.0000
  C   C246      1.0  0.07548  0.83880  0.67536  1.0000
  H   H417      1.0  0.52252  0.64843  0.55532  1.0000
  H   H418      1.0  0.29195  0.79315  0.43650  1.0000
  C   C247      1.0  0.18548  0.86583  0.62752  1.0000
  C   C248      1.0  0.17998  0.84313  0.61314  1.0000
  C   C249      1.0  0.14089  0.83979  0.59711  1.0000
  C   C250      1.0  0.10697  0.85917  0.59542  1.0000
  C   C251      1.0  0.11216  0.88164  0.61004  1.0000
  C   C252      1.0  0.15129  0.88496  0.62609  1.0000
  H   H419      1.0  0.20586  0.82787  0.61468  1.0000
  H   H420      1.0  0.13661  0.82205  0.58624  1.0000
  C   C253      1.0  0.26344  0.82667  0.41495  1.0000
  H   H421      1.0  0.15524  0.90252  0.63712  1.0000
  H   H422      1.0  0.40360  0.55309  0.48479  1.0000
  C   C254      1.0  0.26661  0.75486  0.40318  1.0000
  C   C255      1.0  0.30358  0.80869  0.42532  1.0000
  H   H423      1.0  0.37182  0.75941  0.41228  1.0000
  H   H424      1.0  0.39424  0.61382  0.48896  1.0000
  H   H425      1.0  0.42819  0.58212  0.53265  1.0000
  C   C256      1.0  0.50102  0.56191  0.52229  1.0000
  C   C257      1.0  0.50541  0.61101  0.49014  1.0000
  H   H426      1.0  0.10166  0.83360  0.63518  1.0000
  H   H427      1.0  0.36578  0.58475  0.49968  1.0000
  C   C258      1.0  0.52848  0.69952  0.51726  1.0000
  C   C259      1.0  0.18807  0.80696  0.67227  1.0000
  C   C260      1.0  0.52488  0.58275  0.53983  1.0000
  H   H428      1.0  0.49210  0.54353  0.53196  1.0000
  H   H429      1.0  0.36010  0.71026  0.38973  1.0000
  C   C261      1.0  0.39048  0.60218  0.50394  1.0000
  C   C262      1.0  0.15233  0.82829  0.67431  1.0000
  N   N18       1.0  0.32663  0.79435  0.40963  1.0000
  H   H430      1.0  0.44301  0.59253  0.47464  1.0000
  C   C263      1.0  0.38155  0.72204  0.38101  1.0000
  H   H431      1.0  0.36824  0.83193  0.40834  1.0000
  H   H432      1.0  0.27303  0.84489  0.40551  1.0000
  H   H433      1.0  0.53184  0.60368  0.53320  1.0000
  H   H434      1.0  0.52144  0.68142  0.61530  1.0000
  H   H435      1.0  0.24464  0.76442  0.41284  1.0000
  H   H436      1.0  0.44384  0.56113  0.42817  1.0000
  H   H437      1.0  0.32153  0.82975  0.38709  1.0000
  C   C264      1.0  0.43030  0.54719  0.49891  1.0000
  H   H438      1.0  0.37615  0.61714  0.51387  1.0000
  S   S86       1.0  0.04445  0.77204  0.50108  1.0000
  H   H439      1.0  0.08586  0.89658  0.60890  1.0000
  Fe  Fe45      1.0  0.23800  0.89180  0.67902  1.0000
  H   H440      1.0  0.39500  0.80484  0.44785  1.0000
  H   H441      1.0  0.39269  0.78627  0.38694  1.0000
  C   C265      1.0  0.43527  0.59212  0.51745  1.0000
  H   H442      1.0  0.42457  0.77361  0.44539  1.0000
  H   H443      1.0  0.50802  0.74446  0.56858  1.0000
  H   H444      1.0  0.32942  0.73066  0.35299  1.0000
  H   H445      1.0  0.28778  0.73923  0.41346  1.0000
  H   H446      1.0  0.50646  0.72915  0.60698  1.0000
  C   C266      1.0  0.34746  0.81654  0.39723  1.0000
  C   C267      1.0  0.41296  0.55800  0.43360  1.0000
  H   H447      1.0  0.32718  0.82284  0.43627  1.0000
  H   H448      1.0  0.32214  0.82524  0.60288  1.0000
  H   H449      1.0  0.11571  0.77262  0.67241  1.0000
  N   N19       1.0  0.46054  0.57221  0.50633  1.0000
  H   H450      1.0  0.53880  0.60484  0.49902  1.0000
  C   C268      1.0  0.47304  0.58561  0.48635  1.0000
  H   H451      1.0  0.35309  0.80150  0.36483  1.0000
  H   H452      1.0  0.11386  0.79764  0.63849  1.0000
  H   H453      1.0  0.34640  0.76224  0.43465  1.0000
  H   H454      1.0  0.18427  0.79931  0.65536  1.0000
  C   C269      1.0  0.29446  0.77703  0.39336  1.0000
  H   H455      1.0  0.22117  0.81761  0.67639  1.0000
  H   H456      1.0  0.27074  0.84419  0.59743  1.0000
  H   H457      1.0  0.10541  0.87797  0.66467  1.0000
  H   H458      1.0  0.31240  0.76542  0.38272  1.0000
  H   H459      1.0  0.51255  0.70749  0.57219  1.0000
  H   H460      1.0  0.24907  0.83534  0.42824  1.0000
  H   H461      1.0  0.49286  0.62821  0.49869  1.0000
  H   H462      1.0  0.32018  0.86231  0.59619  1.0000
  N   N20       1.0  0.10489  0.81773  0.66806  1.0000
  N   N21       1.0  0.26093  0.81594  0.55764  1.0000
  C   C270      1.0  0.25972  0.81545  0.53338  1.0000
  C   C271      1.0  0.21637  0.82589  0.56034  1.0000
  C   C272      1.0  0.26870  0.78631  0.56666  1.0000
  C   C273      1.0  0.29835  0.83547  0.56801  1.0000
  C   C274      1.0  0.29918  0.80144  0.52640  1.0000
  C   C275      1.0  0.20462  0.85619  0.55240  1.0000
  C   C276      1.0  0.25176  0.77851  0.58758  1.0000
  C   C277      1.0  0.30277  0.84167  0.59249  1.0000
  H   H463      1.0  0.22906  0.80437  0.52467  1.0000
  H   H464      1.0  0.25817  0.83711  0.52627  1.0000
  H   H465      1.0  0.21308  0.82489  0.57753  1.0000
  H   H466      1.0  0.18951  0.81151  0.55178  1.0000
  H   H467      1.0  0.25236  0.77063  0.55444  1.0000
  H   H468      1.0  0.30462  0.78142  0.56985  1.0000
  H   H469      1.0  0.33077  0.82680  0.56662  1.0000
  H   H470      1.0  0.29761  0.85593  0.55899  1.0000
  H   H471      1.0  0.30170  0.77884  0.53110  1.0000
  H   H472      1.0  0.29379  0.80225  0.50828  1.0000
  H   H473      1.0  0.33108  0.81257  0.53284  1.0000
  H   H474      1.0  0.20032  0.85852  0.53443  1.0000
  H   H475      1.0  0.17231  0.86137  0.55642  1.0000
  H   H476      1.0  0.22919  0.87189  0.56079  1.0000
  H   H477      1.0  0.21494  0.77676  0.58406  1.0000
  H   H478      1.0  0.26327  0.79341  0.60101  1.0000
  H   H479      1.0  0.26406  0.75741  0.59348  1.0000
  H   H480      1.0  0.15788  0.84681  0.66411  1.0000
  H   H481      1.0  0.50518  0.58562  0.55257  1.0000
  C   C278      1.0  0.53686  0.66460  0.54638  1.0000
  C   C279      1.0  0.09341  0.81413  0.64364  1.0000
  C   C280      1.0  0.33296  0.55010  0.44729  1.0000
  H   H482      1.0  0.48847  0.57022  0.47727  1.0000
  H   H483      1.0  0.38303  0.65309  0.35957  1.0000
  C   C281      1.0  0.36426  0.73360  0.36021  1.0000
  C   C282      1.0  0.43668  0.75279  0.35818  1.0000
  H   H484      1.0  0.52596  0.55426  0.51333  1.0000
  H   H485      1.0  0.06299  0.78295  0.67472  1.0000
  C   C283      1.0  0.53882  0.73207  0.60183  1.0000
  H   H486      1.0  0.05619  0.86590  0.64587  1.0000
  H   H487      1.0  0.05217  0.88174  0.67097  1.0000
  H   H488      1.0  0.41304  0.53985  0.51206  1.0000
  C   C284      1.0  0.04472  0.80603  0.63364  1.0000
  H   H489      1.0  0.50959  0.69380  0.35292  1.0000
  Fe  Fe46      1.0  0.20674  0.88284  0.72187  1.0000
  S   S87       1.0  0.15700  0.85564  0.73518  1.0000
  Fe  Fe47      1.0  0.30293  0.90074  0.72226  1.0000
  S   S88       1.0  0.37369  0.89823  0.74171  1.0000
  C   C285      1.0  0.15400  0.95241  0.92541  1.0000
  C   C286      1.0  0.38611  0.79195  0.78511  1.0000
  S   S89       1.0  0.25049  0.91750  0.73858  1.0000
  S   S90       1.0  0.26080  0.86375  0.70828  1.0000
  S   S91       1.0  0.48515  0.78707  0.74594  1.0000
  N   N22       1.0  0.07932  0.95965  0.77727  1.0000
  C   C287      1.0  0.11097  0.78915  0.70411  1.0000
  C   C288      1.0  0.04578  0.80898  0.94753  1.0000
  H   H490      1.0  0.09788  0.91898  0.89519  1.0000
  H   H491      1.0  0.23602  0.78539  0.75194  1.0000
  H   H492      1.0  0.11600  0.85939  0.97413  1.0000
  H   H493      1.0  0.37327  0.83150  0.79793  1.0000
  C   C289      1.0  0.11140  0.95353  0.81865  1.0000
  H   H494      1.0  0.07064  0.88728  0.90044  1.0000
  S   S92       1.0  0.28401  0.92806  0.69212  1.0000
  S   S93       1.0  0.06130  0.73273  0.01257  1.0000
  H   H495      1.0  0.14108  0.86141  0.90603  1.0000
  C   C290      1.0  0.45701  0.81932  0.74299  1.0000
  C   C291      1.0  0.47491  0.84323  0.75457  1.0000
  C   C292      1.0  0.44953  0.86764  0.75351  1.0000
  C   C293      1.0  0.40645  0.86851  0.74057  1.0000
  C   C294      1.0  0.38927  0.84498  0.72831  1.0000
  C   C295      1.0  0.41416  0.82035  0.72982  1.0000
  H   H496      1.0  0.50778  0.84263  0.76483  1.0000
  H   H497      1.0  0.12351  0.92709  0.77188  1.0000
  H   H498      1.0  0.35649  0.84555  0.71803  1.0000
  H   H499      1.0  0.40020  0.80197  0.72074  1.0000
  C   C296      1.0  0.14558  0.86352  0.76082  1.0000
  C   C297      1.0  0.10528  0.85413  0.76577  1.0000
  C   C298      1.0  0.09583  0.85913  0.78636  1.0000
  C   C299      1.0  0.12722  0.87284  0.80236  1.0000
  C   C300      1.0  0.16765  0.88216  0.79745  1.0000
  C   C301      1.0  0.17654  0.87792  0.77661  1.0000
  N   N23       1.0  0.44110  0.70777  0.00475  1.0000
  H   H500      1.0  0.52010  0.72615  0.98990  1.0000
  Fe  Fe48      1.0  0.22814  0.94210  0.70736  1.0000
  H   H501      1.0  0.20763  0.88531  0.77294  1.0000
  H   H502      1.0  0.38857  0.78291  0.76917  1.0000
  C   C302      1.0  0.22183  0.01698  0.70359  1.0000
  H   H503      1.0  0.42342  0.63430  0.00291  1.0000
  H   H504      1.0  0.10351  0.95252  0.73509  1.0000
  Fe  Fe49      1.0  0.06470  0.77767  0.00051  1.0000
  H   H505      1.0  0.16141  0.95241  0.74642  1.0000
  H   H506      1.0  0.19199  0.89287  0.80976  1.0000
  C   C303      1.0  0.39886  0.71397  0.01227  1.0000
  H   H507      1.0  0.07619  0.92239  0.79732  1.0000
  C   C304      1.0  0.08087  0.99124  0.77917  1.0000
  H   H508      1.0  0.18725  0.96200  0.93191  1.0000
  H   H509      1.0  0.15107  0.95800  0.78344  1.0000
  H   H510      1.0  0.14428  0.94573  0.81726  1.0000
  H   H511      1.0  0.13970  0.89410  0.97615  1.0000
  C   C305      1.0  0.07517  0.94559  0.79857  1.0000
  H   H512      1.0  0.11356  0.97640  0.82179  1.0000
  H   H513      1.0  0.46928  0.67110  0.99288  1.0000
  C   C306      1.0  0.52810  0.56016  0.95493  1.0000
  C   C307      1.0  0.05023  0.80914  0.92563  1.0000
  C   C308      1.0  0.48933  0.72324  0.97725  1.0000
  C   C309      1.0  0.12929  0.96056  0.74879  1.0000
  H   H514      1.0  0.41357  0.67762  0.97955  1.0000
  H   H515      1.0  0.37979  0.83330  0.77056  1.0000
  C   C310      1.0  0.13910  0.88304  0.89899  1.0000
  H   H516      1.0  0.51210  0.58098  0.95210  1.0000
  H   H517      1.0  0.32066  0.81247  0.74103  1.0000
  H   H518      1.0  0.13116  0.88067  0.88094  1.0000
  C   C311      1.0  0.25837  0.01814  0.69356  1.0000
  H   H519      1.0  0.24555  0.83793  0.79869  1.0000
  C   C312      1.0  0.43688  0.67828  0.99576  1.0000
  H   H520      1.0  0.48931  0.70241  0.96957  1.0000
  H   H521      1.0  0.17178  0.89404  0.90319  1.0000
  C   C313      1.0  0.31569  0.87146  0.78707  1.0000
  H   H522      1.0  0.22147  0.81464  0.77690  1.0000
  C   C314      1.0  0.30299  0.80324  0.75342  1.0000
  H   H523      1.0  0.42083  0.79490  0.79431  1.0000
  C   C315      1.0  0.38716  0.74509  0.01384  1.0000
  H   H524      1.0  0.11846  0.76724  0.70989  1.0000
  H   H525      1.0  0.11309  0.99870  0.78925  1.0000
  S   S94       1.0  0.11676  0.87859  0.82854  1.0000
  H   H526      1.0  0.15140  0.94979  0.90764  1.0000
  C   C316      1.0  0.24540  0.81614  0.79268  1.0000
  H   H527      1.0  0.23227  0.80240  0.80453  1.0000
  C   C317      1.0  0.12164  0.95041  0.77132  1.0000
  H   H528      1.0  0.31197  0.86327  0.80329  1.0000
  H   H529      1.0  0.08708  0.86409  0.93513  1.0000
  H   H530      1.0  0.29141  0.78348  0.79027  1.0000
  H   H531      1.0  0.31319  0.81086  0.80825  1.0000
  H   H532      1.0  0.46309  0.88577  0.76301  1.0000
  H   H533      1.0  0.08710  0.84319  0.69309  1.0000
  C   C318      1.0  0.11346  0.87937  0.94240  1.0000
  C   C319      1.0  0.29264  0.80681  0.79168  1.0000
  S   S95       1.0  0.07713  0.78517  0.96630  1.0000
  H   H534      1.0  0.25116  0.79018  0.72617  1.0000
  H   H535      1.0  0.49063  0.73927  0.96424  1.0000
  H   H536      1.0  0.23647  0.82015  0.73936  1.0000
  H   H537      1.0  0.41809  0.72578  0.97255  1.0000
  C   C320      1.0  0.44723  0.72754  0.98643  1.0000
  H   H538      1.0  0.26308  0.85169  0.76376  1.0000
  N   N24       1.0  0.31368  0.82017  0.77409  1.0000
  H   H539      1.0  0.36913  0.77680  0.79446  1.0000
  C   C321      1.0  0.25366  0.79991  0.74240  1.0000
  S   S96       1.0  0.19958  0.98472  0.71145  1.0000
  H   H540      1.0  0.29620  0.89093  0.78344  1.0000
  C   C322      1.0  0.29961  0.85007  0.76871  1.0000
  H   H541      1.0  0.31489  0.78137  0.75641  1.0000
  H   H542      1.0  0.08126  0.84288  0.75366  1.0000
  H   H543      1.0  0.44830  0.74986  0.99128  1.0000
  H   H544      1.0  0.31222  0.85796  0.75424  1.0000
  H   H545      1.0  0.35094  0.87770  0.78777  1.0000
  C   C323      1.0  0.36351  0.82075  0.78195  1.0000
  H   H546      1.0  0.07596  0.93320  0.94925  1.0000
  H   H547      1.0  0.16028  0.83649  0.69122  1.0000
  S   S97       1.0  0.18060  0.90808  0.69159  1.0000
  H   H548      1.0  0.07916  0.00147  0.76288  1.0000
  H   H549      1.0  0.14522  0.86921  0.94167  1.0000
  H   H550      1.0  0.13161  0.98380  0.74750  1.0000
  H   H551      1.0  0.17981  0.91207  0.93668  1.0000
  N   N25       1.0  0.10840  0.90678  0.92958  1.0000
  H   H552      1.0  0.53345  0.55348  0.93881  1.0000
  H   H553      1.0  0.07144  0.79407  0.92041  1.0000
  C   C324      1.0  0.42051  0.65517  0.01010  1.0000
  H   H554      1.0  0.52094  0.61824  0.01099  1.0000
  H   H555      1.0  0.12951  0.96762  0.92849  1.0000
  C   C325      1.0  0.11219  0.88098  0.96691  1.0000
  H   H556      1.0  0.06470  0.85172  0.79005  1.0000
  C   C326      1.0  0.14991  0.92430  0.93746  1.0000
  H   H557      1.0  0.06373  0.91394  0.74565  1.0000
  H   H558      1.0  0.36955  0.70440  0.00104  1.0000
  C   C327      1.0  0.10199  0.89979  0.90569  1.0000
  H   H559      1.0  0.15331  0.92964  0.95496  1.0000
  H   H560      1.0  0.14145  0.80150  0.71082  1.0000
  H   H561      1.0  0.10316  0.94303  0.83334  1.0000
  H   H562      1.0  0.38507  0.65752  0.01069  1.0000
  H   H563      1.0  0.51018  0.69976  0.01905  1.0000
  H   H564      1.0  0.07998  0.88842  0.96959  1.0000
  H   H565      1.0  0.37751  0.75501  0.99738  1.0000
  H   H566      1.0  0.06478  0.95695  0.90973  1.0000
  H   H567      1.0  0.25704  0.70481  0.01799  1.0000
  H   H568      1.0  0.27384  0.99889  0.69049  1.0000
  H   H569      1.0  0.08355  0.79697  0.71127  1.0000
  H   H570      1.0  0.50438  0.54579  0.96095  1.0000
  C   C328      1.0  0.06779  0.92119  0.93377  1.0000
  H   H571      1.0  0.04461  0.99753  0.80578  1.0000
  H   H572      1.0  0.04730  0.02736  0.78849  1.0000
  Fe  Fe50      1.0  0.04492  0.87860  0.83152  1.0000
  C   C329      1.0  0.54176  0.63515  0.01909  1.0000
  C   C330      1.0  0.92245  0.09313  0.30824  1.0000
  S   S98       1.0  0.84803  0.16960  0.30620  1.0000
  H   H573      1.0  0.04142  0.31871  0.08343  1.0000
  H   H574      1.0  0.58403  0.47535  0.05367  1.0000
  Fe  Fe51      1.0  0.82866  0.20457  0.32579  1.0000
  S   S99       1.0  0.78548  0.24000  0.30948  1.0000
  Fe  Fe52      1.0  0.91613  0.17511  0.32695  1.0000
  S   S100      1.0  0.98096  0.17026  0.31586  1.0000
  H   H575      1.0  0.56744  0.20500  0.28965  1.0000
  H   H576      1.0  0.88620  0.35374  0.05091  1.0000
  H   H577      1.0  0.60160  0.39919  0.06335  1.0000
  H   H578      1.0  0.58503  0.21379  0.26505  1.0000
  H   H579      1.0  0.62321  0.19034  0.32727  1.0000
  C   C331      1.0  0.03853  0.24465  0.30930  1.0000
  S   S101      1.0  0.99637  0.16422  0.21658  1.0000
  H   H580      1.0  0.98964  0.08096  0.15996  1.0000
  H   H581      1.0  0.88882  0.25361  0.08415  1.0000
  S   S102      1.0  0.00751  0.31622  0.02805  1.0000
  H   H582      1.0  0.93592  0.34667  0.07043  1.0000
  S   S103      1.0  0.59257  0.25390  0.32813  1.0000
  H   H583      1.0  0.82396  0.27660  0.06771  1.0000
  H   H584      1.0  0.94578  0.11085  0.31384  1.0000
  H   H585      1.0  0.86850  0.08734  0.27916  1.0000
  H   H586      1.0  0.90244  0.24359  0.05886  1.0000
  C   C332      1.0  0.03582  0.07799  0.20832  1.0000
  C   C333      1.0  0.04031  0.23432  0.26419  1.0000
  C   C334      1.0  0.57551  0.40565  0.04990  1.0000
  C   C335      1.0  0.73193  0.24404  0.31474  1.0000
  C   C336      1.0  0.70120  0.26084  0.30070  1.0000
  C   C337      1.0  0.65840  0.26449  0.30470  1.0000
  C   C338      1.0  0.64655  0.25183  0.32307  1.0000
  C   C339      1.0  0.67785  0.23584  0.33748  1.0000
  C   C340      1.0  0.72001  0.23152  0.33312  1.0000
  H   H587      1.0  0.71031  0.27078  0.28652  1.0000
  H   H588      1.0  0.64919  0.20662  0.29584  1.0000
  C   C341      1.0  0.90920  0.04268  0.30467  1.0000
  C   C342      1.0  0.98274  0.16644  0.28811  1.0000
  C   C343      1.0  0.94638  0.17232  0.27130  1.0000
  C   C344      1.0  0.95043  0.17083  0.24933  1.0000
  C   C345      1.0  0.99076  0.16346  0.24411  1.0000
  C   C346      1.0  0.02629  0.15633  0.26096  1.0000
  H   H589      1.0  0.66902  0.22622  0.35184  1.0000
  H   H590      1.0  0.91556  0.17876  0.27518  1.0000
  H   H591      1.0  0.92261  0.17617  0.23638  1.0000
  C   C347      1.0  0.82515  0.31261  0.03342  1.0000
  N   N26       1.0  0.86192  0.29407  0.04505  1.0000
  C   C348      1.0  0.62107  0.14828  0.34026  1.0000
  H   H592      1.0  0.01635  0.05639  0.14605  1.0000
  C   C349      1.0  0.80029  0.04362  0.32726  1.0000
  H   H593      1.0  0.62180  0.11826  0.30294  1.0000
  C   C350      1.0  0.89758  0.10140  0.28506  1.0000
  H   H594      1.0  0.00048  0.09423  0.23265  1.0000
  H   H595      1.0  0.93075  0.33530  0.04306  1.0000
  H   H596      1.0  0.57702  0.16960  0.31444  1.0000
  C   C351      1.0  0.81794  0.06954  0.33583  1.0000
  H   H597      1.0  0.71132  0.15222  0.28214  1.0000
  H   H598      1.0  0.69126  0.13680  0.31928  1.0000
  H   H599      1.0  0.92200  0.29642  0.07008  1.0000
  C   C352      1.0  0.84177  0.26935  0.05516  1.0000
  H   H600      1.0  0.81523  0.25848  0.04313  1.0000
  H   H601      1.0  0.02571  0.09566  0.19677  1.0000
  C   C353      1.0  0.71928  0.16398  0.29754  1.0000
  H   H602      1.0  0.02059  0.08860  0.27940  1.0000
  H   H603      1.0  0.66298  0.11392  0.27607  1.0000
  H   H604      1.0  0.59468  0.49667  0.09209  1.0000
  C   C354      1.0  0.57069  0.49587  0.05722  1.0000
  H   H605      1.0  0.63455  0.27691  0.29352  1.0000
  C   C355      1.0  0.96934  0.05998  0.33364  1.0000
  H   H606      1.0  0.85729  0.22659  0.06716  1.0000
  C   C356      1.0  0.79786  0.32710  0.04793  1.0000
  H   H607      1.0  0.02392  0.21397  0.26710  1.0000
  C   C357      1.0  0.87468  0.24732  0.06706  1.0000
  H   H608      1.0  0.77187  0.04317  0.31380  1.0000
  Fe  Fe53      1.0  0.01893  0.27115  0.03831  1.0000
  H   H609      1.0  0.92001  0.27558  0.03661  1.0000
  H   H610      1.0  0.55595  0.38498  0.24860  1.0000
  C   C358      1.0  0.63288  0.12682  0.27115  1.0000
  H   H611      1.0  0.77387  0.34123  0.03742  1.0000
  C   C359      1.0  0.61358  0.16905  0.32061  1.0000
  C   C360      1.0  0.88774  0.28468  0.02857  1.0000
  H   H612      1.0  0.91978  0.10240  0.27321  1.0000
  C   C361      1.0  0.68575  0.15854  0.31242  1.0000
  H   H613      1.0  0.65630  0.14776  0.34892  1.0000
  H   H614      1.0  0.97046  0.10050  0.35018  1.0000
  C   C362      1.0  0.63215  0.18798  0.28715  1.0000
  H   H615      1.0  0.01740  0.09621  0.33750  1.0000
  C   C363      1.0  0.56182  0.49496  0.08063  1.0000
  H   H616      1.0  0.77814  0.31173  0.05570  1.0000
  S   S104      1.0  0.00042  0.26095  0.07082  1.0000
  H   H617      1.0  0.56418  0.17893  0.26841  1.0000
  C   C364      1.0  0.91215  0.33789  0.05617  1.0000
  H   H618      1.0  0.04156  0.24220  0.32725  1.0000
  H   H619      1.0  0.75236  0.15704  0.30635  1.0000
  N   N27       1.0  0.63724  0.16279  0.30243  1.0000
  H   H620      1.0  0.92341  0.07246  0.17103  1.0000
  S   S105      1.0  0.79533  0.10114  0.32372  1.0000
  C   C365      1.0  0.96055  0.05479  0.20201  1.0000
  H   H621      1.0  0.63944  0.14421  0.26024  1.0000
  H   H622      1.0  0.72277  0.18678  0.29390  1.0000
  H   H623      1.0  0.87685  0.31366  0.07689  1.0000
  H   H624      1.0  0.88448  0.12285  0.28551  1.0000
  H   H625      1.0  0.60646  0.11380  0.26083  1.0000
  Fe  Fe54      1.0  0.83491  0.14126  0.33339  1.0000
  H   H626      1.0  0.69697  0.17287  0.32648  1.0000
  H   H627      1.0  0.90721  0.08480  0.19525  1.0000
  C   C366      1.0  0.89304  0.30961  0.06297  1.0000
  H   H628      1.0  0.89822  0.09354  0.31919  1.0000
  H   H629      1.0  0.59607  0.51234  0.05566  1.0000
  H   H630      1.0  0.57947  0.13765  0.28692  1.0000
  H   H631      1.0  0.95571  0.09871  0.18853  1.0000
  H   H632      1.0  0.85070  0.28091  0.34471  1.0000
  H   H633      1.0  0.64895  0.18536  0.27334  1.0000
  H   H634      1.0  0.83825  0.32933  0.02372  1.0000
  C   C367      1.0  0.61627  0.13646  0.29135  1.0000
  H   H635      1.0  0.81853  0.34055  0.06053  1.0000
  C   C368      1.0  0.58332  0.40650  0.02847  1.0000
  C   C369      1.0  0.58417  0.19648  0.27715  1.0000
  H   H636      1.0  0.00793  0.23275  0.30162  1.0000
  N   N28       1.0  0.00883  0.05155  0.20153  1.0000
  H   H637      1.0  0.01689  0.25025  0.26728  1.0000
  C   C370      1.0  0.93591  0.07896  0.18821  1.0000
  C   C371      1.0  0.02249  0.15817  0.28285  1.0000
  H   H638      1.0  0.99365  0.04231  0.29751  1.0000
  H   H639      1.0  0.55694  0.41740  0.26252  1.0000
  C   C372      1.0  0.01433  0.04265  0.17918  1.0000
  H   H640      1.0  0.00391  0.24840  0.11621  1.0000
  H   H641      1.0  0.00304  0.10634  0.30026  1.0000
  C   C373      1.0  0.01724  0.06613  0.16214  1.0000
  C   C374      1.0  0.01280  0.08546  0.29584  1.0000
  C   C375      1.0  0.99410  0.08523  0.34619  1.0000
  H   H642      1.0  0.60882  0.12672  0.33553  1.0000
  H   H643      1.0  0.77336  0.27842  0.34853  1.0000
  H   H644      1.0  0.79152  0.32837  0.34528  1.0000
  H   H645      1.0  0.56627  0.38419  0.27757  1.0000
  C   C376      1.0  0.04053  0.23624  0.23960  1.0000
  S   S106      1.0  0.89850  0.21293  0.34426  1.0000
  H   H646      1.0  0.95536  0.05659  0.21901  1.0000
  H   H647      1.0  0.03449  0.26726  0.30523  1.0000
  C   C377      1.0  0.02891  0.23617  0.11107  1.0000
  H   H648      1.0  0.88267  0.04583  0.31393  1.0000
  H   H649      1.0  0.74343  0.21881  0.34416  1.0000
  H   H650      1.0  0.94579  0.05223  0.34380  1.0000
  S   S107      1.0  0.81008  0.17579  0.35129  1.0000
  H   H651      1.0  0.80085  0.30046  0.02120  1.0000
  H   H652      1.0  0.54949  0.47335  0.08345  1.0000
  H   H653      1.0  0.61520  0.40069  0.02547  1.0000
  C   C378      1.0  0.03404  0.23804  0.08931  1.0000
  H   H654      1.0  0.95755  0.06122  0.27750  1.0000
  C   C379      1.0  0.97608  0.06261  0.29475  1.0000
  N   N29       1.0  0.94514  0.06514  0.31032  1.0000
  C   C380      1.0  0.03458  0.08911  0.23113  1.0000
  H   H655      1.0  0.56643  0.52157  0.11908  1.0000
  H   H656      1.0  0.04348  0.07923  0.30750  1.0000
  H   H657      1.0  0.00573  0.23681  0.23022  1.0000
  H   H658      1.0  0.99383  0.04297  0.33446  1.0000
  H   H659      1.0  0.89253  0.04400  0.28713  1.0000
  C   C381      1.0  0.54678  0.39494  0.26292  1.0000
  H   H660      1.0  0.60197  0.15543  0.35231  1.0000
  Fe  Fe55      1.0  0.88125  0.18174  0.36871  1.0000
  S   S108      1.0  0.89337  0.18800  0.40526  1.0000
  H   H661      1.0  0.86292  0.24165  0.38455  1.0000
  H   H662      1.0  0.69528  0.53232  0.53647  1.0000
  Fe  Fe56      1.0  0.76987  0.42765  0.61699  1.0000
  S   S109      1.0  0.78899  0.41841  0.58512  1.0000
  S   S110      1.0  0.76916  0.46973  0.63336  1.0000
  Fe  Fe57      1.0  0.74445  0.36660  0.62536  1.0000
  S   S111      1.0  0.75958  0.35272  0.59365  1.0000
  S   S112      1.0  0.73066  0.33249  0.64912  1.0000
  Fe  Fe58      1.0  0.82116  0.37975  0.60198  1.0000
  S   S113      1.0  0.88444  0.35735  0.60004  1.0000
  Fe  Fe59      1.0  0.72616  0.39197  0.57906  1.0000
  S   S114      1.0  0.68732  0.39381  0.54429  1.0000
  S   S115      1.0  0.80818  0.39147  0.63467  1.0000
  S   S116      1.0  0.70484  0.40347  0.60986  1.0000
  H   H663      1.0  0.58550  0.48565  0.51429  1.0000
  C   C382      1.0  0.77940  0.52776  0.58592  1.0000
  H   H664      1.0  0.59321  0.45590  0.54918  1.0000
  S   S117      1.0  0.03546  0.27877  0.45118  1.0000
  S   S118      1.0  0.99733  0.36855  0.52614  1.0000
  S   S119      1.0  0.01002  0.28777  0.51242  1.0000
  H   H665      1.0  0.71190  0.35140  0.51936  1.0000
  C   C383      1.0  0.62938  0.39782  0.53834  1.0000
  H   H666      1.0  0.62108  0.39404  0.57161  1.0000
  C   C384      1.0  0.91318  0.36062  0.57847  1.0000
  C   C385      1.0  0.93933  0.33825  0.57474  1.0000
  C   C386      1.0  0.96480  0.34037  0.55856  1.0000
  C   C387      1.0  0.96455  0.36505  0.54607  1.0000
  C   C388      1.0  0.93789  0.38735  0.54957  1.0000
  C   C389      1.0  0.91210  0.38512  0.56567  1.0000
  H   H667      1.0  0.93968  0.31911  0.58435  1.0000
  H   H668      1.0  0.98477  0.32296  0.55578  1.0000
  H   H669      1.0  0.93753  0.40650  0.53993  1.0000
  H   H670      1.0  0.89235  0.40257  0.56856  1.0000
  C   C390      1.0  0.78113  0.50234  0.59790  1.0000
  H   H671      1.0  0.86760  0.08963  0.36043  1.0000
  C   C391      1.0  0.66979  0.35801  0.66900  1.0000
  C   C392      1.0  0.70079  0.33682  0.67004  1.0000
  H   H672      1.0  0.66431  0.44456  0.57173  1.0000
  H   H673      1.0  0.88008  0.31723  0.51263  1.0000
  H   H674      1.0  0.97937  0.32075  0.62437  1.0000
  H   H675      1.0  0.66227  0.37154  0.65468  1.0000
  H   H676      1.0  0.70441  0.47142  0.58084  1.0000
  C   C393      1.0  0.93435  0.21225  0.41819  1.0000
  C   C394      1.0  0.96303  0.22603  0.40664  1.0000
  C   C395      1.0  0.99392  0.24627  0.41705  1.0000
  C   C396      1.0  0.99692  0.25257  0.43916  1.0000
  C   C397      1.0  0.96864  0.23852  0.45081  1.0000
  C   C398      1.0  0.93736  0.21847  0.44031  1.0000
  H   H677      1.0  0.96147  0.22108  0.38971  1.0000
  H   H678      1.0  0.66987  0.46185  0.61033  1.0000
  H   H679      1.0  0.97072  0.24322  0.46784  1.0000
  H   H680      1.0  0.91536  0.20779  0.44935  1.0000
  H   H681      1.0  0.92875  0.29154  0.35651  1.0000
  C   C399      1.0  0.76850  0.50142  0.61809  1.0000
  H   H682      1.0  0.75363  0.29320  0.53286  1.0000
  H   H683      1.0  0.79248  0.48352  0.59155  1.0000
  N   N30       1.0  0.82984  0.28149  0.37565  1.0000
  H   H684      1.0  0.76262  0.23772  0.38227  1.0000
  C   C400      1.0  0.55919  0.40330  0.54945  1.0000
  C   C401      1.0  0.85440  0.06989  0.35336  1.0000
  H   H685      1.0  0.68983  0.51837  0.57350  1.0000
  C   C402      1.0  0.79514  0.36102  0.53858  1.0000
  H   H686      1.0  0.74118  0.35811  0.49813  1.0000
  C   C403      1.0  0.77619  0.32124  0.35904  1.0000
  H   H687      1.0  0.80164  0.24611  0.40735  1.0000
  H   H688      1.0  0.63587  0.53482  0.52791  1.0000
  H   H689      1.0  0.73667  0.39463  0.67039  1.0000
  H   H690      1.0  0.82094  0.24038  0.36096  1.0000
  C   C404      1.0  0.76754  0.31257  0.54163  1.0000
  H   H691      1.0  0.01322  0.25311  0.59692  1.0000
  H   H692      1.0  0.03017  0.33252  0.59836  1.0000
  H   H693      1.0  0.69367  0.30331  0.50748  1.0000
  C   C405      1.0  0.80021  0.38759  0.52469  1.0000
  C   C406      1.0  0.81058  0.32421  0.51290  1.0000
  H   H694      1.0  0.62659  0.40236  0.50375  1.0000
  H   H695      1.0  0.78799  0.33465  0.37346  1.0000
  C   C407      1.0  0.80620  0.30239  0.55960  1.0000
  C   C408      1.0  0.69807  0.43139  0.66757  1.0000
  H   H696      1.0  0.82887  0.28911  0.55276  1.0000
  H   H697      1.0  0.82756  0.35773  0.54975  1.0000
  H   H698      1.0  0.90247  0.04510  0.37521  1.0000
  C   C409      1.0  0.73546  0.34197  0.51041  1.0000
  H   H699      1.0  0.74533  0.52570  0.64206  1.0000
  H   H700      1.0  0.74131  0.32008  0.54990  1.0000
  H   H701      1.0  0.79251  0.28880  0.57136  1.0000
  H   H702      1.0  0.87088  0.35106  0.52219  1.0000
  C   C410      1.0  0.66813  0.46741  0.57554  1.0000
  H   H703      1.0  0.82154  0.40340  0.53508  1.0000
  H   H704      1.0  0.58357  0.48621  0.56340  1.0000
  H   H705      1.0  0.87052  0.32051  0.53953  1.0000
  C   C411      1.0  0.66404  0.53594  0.54203  1.0000
  H   H706      1.0  0.63268  0.52447  0.56871  1.0000
  C   C412      1.0  0.60488  0.39787  0.55479  1.0000
  H   H707      1.0  0.77252  0.36648  0.54950  1.0000
  H   H708      1.0  0.75888  0.28330  0.37422  1.0000
  C   C413      1.0  0.71042  0.31730  0.49715  1.0000
  C   C414      1.0  0.82969  0.24981  0.37752  1.0000
  C   C415      1.0  0.84141  0.29575  0.39753  1.0000
  H   H709      1.0  0.70048  0.45452  0.66938  1.0000
  C   C416      1.0  0.79769  0.23658  0.39106  1.0000
  H   H710      1.0  0.73223  0.30490  0.48909  1.0000
  H   H711      1.0  0.82480  0.31970  0.56927  1.0000
  H   H712      1.0  0.81557  0.38318  0.51065  1.0000
  H   H713      1.0  0.68371  0.32589  0.48411  1.0000
  H   H714      1.0  0.80489  0.30128  0.50982  1.0000
  H   H715      1.0  0.57190  0.51498  0.53001  1.0000
  N   N31       1.0  0.64901  0.48502  0.55562  1.0000
  C   C417      1.0  0.78359  0.28965  0.36428  1.0000
  C   C418      1.0  0.66890  0.47538  0.53700  1.0000
  H   H716      1.0  0.76753  0.39741  0.51867  1.0000
  C   C419      1.0  0.71994  0.47452  0.54166  1.0000
  H   H717      1.0  0.85946  0.31395  0.35805  1.0000
  C   C420      1.0  0.64860  0.47216  0.59596  1.0000
  H   H718      1.0  0.65848  0.48861  0.52212  1.0000
  H   H719      1.0  0.65642  0.45383  0.53197  1.0000
  C   C421      1.0  0.65872  0.51573  0.56096  1.0000
  C   C422      1.0  0.00529  0.33758  0.62784  1.0000
  H   H720      1.0  0.73187  0.45552  0.55148  1.0000
  H   H721      1.0  0.73131  0.47310  0.52601  1.0000
  H   H722      1.0  0.73563  0.49346  0.55026  1.0000
  C   C423      1.0  0.60787  0.40247  0.51657  1.0000
  C   C424      1.0  0.91053  0.28526  0.36946  1.0000
  H   H723      1.0  0.68475  0.42765  0.64995  1.0000
  H   H724      1.0  0.64784  0.49475  0.59988  1.0000
  H   H725      1.0  0.90101  0.26869  0.40900  1.0000
  N   N32       1.0  0.77837  0.33486  0.52593  1.0000
  H   H726      1.0  0.80507  0.33432  0.49637  1.0000
  H   H727      1.0  0.61501  0.46236  0.59417  1.0000
  C   C425      1.0  0.86054  0.32861  0.52263  1.0000
  C   C426      1.0  0.87848  0.28255  0.41517  1.0000
  H   H728      1.0  0.80484  0.21386  0.39375  1.0000
  C   C427      1.0  0.59970  0.47895  0.55023  1.0000
  H   H729      1.0  0.89977  0.29957  0.42411  1.0000
  H   H730      1.0  0.01587  0.25699  0.40799  1.0000
  H   H731      1.0  0.81157  0.29615  0.40495  1.0000
  H   H732      1.0  0.01382  0.07758  0.36206  1.0000
  H   H733      1.0  0.86426  0.27085  0.42772  1.0000
  C   C428      1.0  0.75484  0.52619  0.62637  1.0000
  H   H734      1.0  0.98890  0.35751  0.62154  1.0000
  C   C429      1.0  0.56233  0.40792  0.51126  1.0000
  H   H735      1.0  0.62535  0.37856  0.68589  1.0000
  H   H736      1.0  0.01680  0.33980  0.64572  1.0000
  H   H737      1.0  0.76405  0.42501  0.66277  1.0000
  H   H738      1.0  0.97411  0.27536  0.60496  1.0000
  C   C430      1.0  0.74327  0.41714  0.67423  1.0000
  Fe  Fe60      1.0  0.03794  0.33112  0.52092  1.0000
  H   H739      1.0  0.67337  0.42193  0.67628  1.0000
  C   C431      1.0  0.00855  0.27478  0.60227  1.0000
  H   H740      1.0  0.78923  0.52838  0.57031  1.0000
  C   C432      1.0  0.57327  0.49186  0.52891  1.0000
  H   H741      1.0  0.92481  0.29820  0.38390  1.0000
  H   H742      1.0  0.85116  0.31817  0.39538  1.0000
  C   C433      1.0  0.04223  0.28111  0.62381  1.0000
  H   H743      1.0  0.79617  0.36911  0.67807  1.0000
  H   H744      1.0  0.01112  0.28895  0.58837  1.0000
  H   H745      1.0  0.02343  0.28201  0.63715  1.0000
  C   C434      1.0  0.87393  0.04460  0.36181  1.0000
  H   H746      1.0  0.91734  0.26280  0.37308  1.0000
  C   C435      1.0  0.86091  0.29088  0.36106  1.0000
  H   H747      1.0  0.01553  0.41922  0.48804  1.0000
  H   H748      1.0  0.54628  0.41188  0.49446  1.0000
  C   C436      1.0  0.04392  0.33276  0.61624  1.0000
  H   H749      1.0  0.74000  0.32460  0.35355  1.0000
  S   S120      1.0  0.90439  0.14443  0.35303  1.0000
  H   H750      1.0  0.67504  0.21830  0.78238  1.0000
  Fe  Fe61      1.0  0.57502  0.26574  0.76270  1.0000
  Fe  Fe62      1.0  0.66818  0.27758  0.78967  1.0000
  S   S121      1.0  0.65899  0.32433  0.78899  1.0000
  S   S122      1.0  0.72853  0.25905  0.81189  1.0000
  Fe  Fe63      1.0  0.59197  0.31354  0.79574  1.0000
  C   C437      1.0  0.80689  0.45890  0.72409  1.0000
  Fe  Fe64      1.0  0.62700  0.31864  0.75352  1.0000
  S   S123      1.0  0.63519  0.35196  0.72802  1.0000
  S   S124      1.0  0.60281  0.26712  0.79881  1.0000
  S   S125      1.0  0.64186  0.27258  0.75363  1.0000
  Fe  Fe65      1.0  0.66801  0.43945  0.94049  1.0000
  S   S126      1.0  0.61148  0.40804  0.93504  1.0000
  S   S127      1.0  0.65846  0.47648  0.91695  1.0000
  Fe  Fe66      1.0  0.72025  0.40504  0.97825  1.0000
  S   S128      1.0  0.66694  0.37146  0.97607  1.0000
  S   S129      1.0  0.78593  0.40173  0.00211  1.0000
  Fe  Fe67      1.0  0.66344  0.37513  0.93978  1.0000
  S   S130      1.0  0.66895  0.33734  0.91895  1.0000
  Fe  Fe68      1.0  0.61995  0.40773  0.97172  1.0000
  H   H751      1.0  0.59244  0.44018  0.82838  1.0000
  S   S131      1.0  0.71960  0.40668  0.94241  1.0000
  S   S132      1.0  0.67371  0.44123  0.97675  1.0000
  Fe  Fe69      1.0  0.96549  0.11954  0.84182  1.0000
  S   S133      1.0  0.97261  0.07598  0.85733  1.0000
  Fe  Fe70      1.0  0.91643  0.16307  0.81026  1.0000
  S   S134      1.0  0.96383  0.19768  0.82400  1.0000
  S   S135      1.0  0.86095  0.17557  0.78217  1.0000
  H   H752      1.0  0.88263  0.20911  0.73705  1.0000
  Fe  Fe71      1.0  0.95875  0.17979  0.85677  1.0000
  S   S136      1.0  0.94713  0.21257  0.88064  1.0000
  S   S137      1.0  0.97017  0.13274  0.80759  1.0000
  S   S138      1.0  0.90744  0.14691  0.84305  1.0000
  H   H753      1.0  0.94335  0.26203  0.74648  1.0000
  H   H754      1.0  0.69491  0.30866  0.72012  1.0000
  S   S139      1.0  0.90896  0.31064  0.97387  1.0000
  S   S140      1.0  0.56391  0.33785  0.82036  1.0000
  H   H755      1.0  0.88313  0.33674  0.90545  1.0000
  Fe  Fe72      1.0  0.01705  0.16649  0.82405  1.0000
  C   C438      1.0  0.97860  0.21373  0.90754  1.0000
  C   C439      1.0  0.96648  0.04435  0.84259  1.0000
  H   H756      1.0  0.58348  0.35966  0.89804  1.0000
  H   H757      1.0  0.63452  0.38478  0.81912  1.0000
  C   C440      1.0  0.86906  0.29311  0.91303  1.0000
  N   N33       1.0  0.83250  0.27097  0.90911  1.0000
  C   C441      1.0  0.82092  0.37733  0.99379  1.0000
  C   C442      1.0  0.80361  0.35775  0.97770  1.0000
  C   C443      1.0  0.83119  0.33770  0.97165  1.0000
  C   C444      1.0  0.87629  0.33700  0.98157  1.0000
  C   C445      1.0  0.89387  0.35670  0.99757  1.0000
  C   C446      1.0  0.57189  0.51817  0.99040  1.0000
  H   H758      1.0  0.76875  0.35784  0.97004  1.0000
  H   H759      1.0  0.81730  0.32254  0.95937  1.0000
  H   H760      1.0  0.91532  0.14826  0.72240  1.0000
  H   H761      1.0  0.59805  0.40362  0.87547  1.0000
  H   H762      1.0  0.82697  0.32758  0.89602  1.0000
  C   C447      1.0  0.76633  0.23740  0.80280  1.0000
  C   C448      1.0  0.79698  0.22278  0.81848  1.0000
  C   C449      1.0  0.82676  0.20447  0.81216  1.0000
  C   C450      1.0  0.82571  0.20021  0.79005  1.0000
  C   C451      1.0  0.79541  0.21507  0.77423  1.0000
  C   C452      1.0  0.76591  0.23383  0.78060  1.0000
  H   H763      1.0  0.79730  0.22525  0.83564  1.0000
  H   H764      1.0  0.85004  0.19330  0.82450  1.0000
  H   H765      1.0  0.79468  0.21204  0.75708  1.0000
  H   H766      1.0  0.74276  0.24539  0.76842  1.0000
  C   C453      1.0  0.59139  0.33523  0.84798  1.0000
  C   C454      1.0  0.57384  0.34866  0.86397  1.0000
  C   C455      1.0  0.59709  0.34909  0.88585  1.0000
  C   C456      1.0  0.63796  0.33598  0.89188  1.0000
  C   C457      1.0  0.65477  0.32170  0.87603  1.0000
  C   C458      1.0  0.63171  0.32143  0.85412  1.0000
  H   H767      1.0  0.66216  0.52854  0.99962  1.0000
  C   C459      1.0  0.63174  0.12730  0.75553  1.0000
  H   H768      1.0  0.68620  0.31136  0.88055  1.0000
  H   H769      1.0  0.64546  0.31097  0.84191  1.0000
  Fe  Fe73      1.0  0.97554  0.29992  0.99510  1.0000
  C   C460      1.0  0.57842  0.50434  0.94514  1.0000
  H   H770      1.0  0.70128  0.15052  0.79856  1.0000
  C   C461      1.0  0.74246  0.40778  0.71345  1.0000
  H   H771      1.0  0.94410  0.06345  0.81091  1.0000
  C   C462      1.0  0.60823  0.42001  0.83461  1.0000
  H   H772      1.0  0.98492  0.16164  0.71445  1.0000
  C   C463      1.0  0.68471  0.50858  0.92607  1.0000
  C   C464      1.0  0.72014  0.50960  0.94409  1.0000
  C   C465      1.0  0.66936  0.53359  0.91519  1.0000
  H   H773      1.0  0.73222  0.49036  0.95252  1.0000
  C   C466      1.0  0.86616  0.37682  0.00370  1.0000
  C   C467      1.0  0.69801  0.45594  0.84125  1.0000
  H   H774      1.0  0.98232  0.16198  0.75048  1.0000
  N   N34       1.0  0.76802  0.42077  0.69748  1.0000
  H   H775      1.0  0.71974  0.12882  0.76380  1.0000
  C   C468      1.0  0.98450  0.18377  0.70858  1.0000
  C   C469      1.0  0.65791  0.34420  0.70519  1.0000
  C   C470      1.0  0.67141  0.39978  0.86085  1.0000
  H   H776      1.0  0.64191  0.53289  0.90126  1.0000
  H   H777      1.0  0.85421  0.28957  0.86828  1.0000
  H   H778      1.0  0.92877  0.35655  0.00510  1.0000
  H   H779      1.0  0.72328  0.41981  0.88624  1.0000
  C   C471      1.0  0.87807  0.23395  0.93489  1.0000
  H   H780      1.0  0.64115  0.46944  0.85192  1.0000
  C   C472      1.0  0.70798  0.16389  0.78476  1.0000
  C   C473      1.0  0.80439  0.27284  0.88631  1.0000
  H   H781      1.0  0.55953  0.44347  0.88498  1.0000
  H   H782      1.0  0.65185  0.37979  0.85997  1.0000
  C   C474      1.0  0.91257  0.15388  0.73916  1.0000
  C   C475      1.0  0.66500  0.45212  0.85654  1.0000
  C   C476      1.0  0.65143  0.19497  0.80758  1.0000
  H   H783      1.0  0.57942  0.50840  0.92770  1.0000
  C   C477      1.0  0.70577  0.42551  0.71982  1.0000
  H   H784      1.0  0.60021  0.40776  0.80066  1.0000
  S   S141      1.0  0.55852  0.31155  0.76018  1.0000
  C   C478      1.0  0.94941  0.20143  0.71631  1.0000
  H   H785      1.0  0.88469  0.25951  0.99963  1.0000
  H   H786      1.0  0.72344  0.47212  0.84819  1.0000
  N   N35       1.0  0.95312  0.20244  0.74067  1.0000
  H   H787      1.0  0.56215  0.52924  0.00416  1.0000
  H   H788      1.0  0.67602  0.41176  0.71979  1.0000
  H   H789      1.0  0.94880  0.17425  0.76781  1.0000
  H   H790      1.0  0.87975  0.16302  0.73877  1.0000
  H   H791      1.0  0.00172  0.20307  0.78500  1.0000
  H   H792      1.0  0.68632  0.39508  0.89655  1.0000
  C   C479      1.0  0.00330  0.24043  0.94087  1.0000
  H   H793      1.0  0.72788  0.38262  0.88361  1.0000
  H   H794      1.0  0.65568  0.41892  0.81232  1.0000
  H   H795      1.0  0.72688  0.38741  0.70715  1.0000
  C   C480      1.0  0.97755  0.23808  0.91966  1.0000
  H   H796      1.0  0.72987  0.18145  0.79252  1.0000
  H   H797      1.0  0.02499  0.20297  0.74886  1.0000
  C   C481      1.0  0.91329  0.24999  0.73852  1.0000
  H   H798      1.0  0.95276  0.22293  0.70945  1.0000
  C   C482      1.0  0.65221  0.19998  0.78316  1.0000
  H   H799      1.0  0.62720  0.17828  0.81005  1.0000
  C   C483      1.0  0.67227  0.18587  0.74937  1.0000
  C   C484      1.0  0.76521  0.29329  0.92138  1.0000
  H   H800      1.0  0.97685  0.18325  0.69045  1.0000
  H   H801      1.0  0.89458  0.28934  0.90324  1.0000
  H   H802      1.0  0.69441  0.44358  0.70898  1.0000
  H   H803      1.0  0.77895  0.25545  0.88372  1.0000
  C   C485      1.0  0.91485  0.21864  0.74540  1.0000
  C   C486      1.0  0.70396  0.39981  0.88314  1.0000
  H   H804      1.0  0.75292  0.16040  0.76181  1.0000
  S   S142      1.0  0.01628  0.15148  0.85818  1.0000
  C   C487      1.0  0.99697  0.21632  0.75073  1.0000
  H   H805      1.0  0.00211  0.23639  0.74207  1.0000
  H   H806      1.0  0.62278  0.49533  0.01405  1.0000
  C   C488      1.0  0.85532  0.32407  0.90974  1.0000
  H   H807      1.0  0.80563  0.27429  0.85173  1.0000
  C   C489      1.0  0.61405  0.42449  0.87393  1.0000
  H   H808      1.0  0.84626  0.25162  0.86697  1.0000
  H   H809      1.0  0.57110  0.47683  0.00593  1.0000
  H   H810      1.0  0.68085  0.46313  0.82474  1.0000
  H   H811      1.0  0.87880  0.24114  0.90107  1.0000
  H   H812      1.0  0.64113  0.21451  0.81434  1.0000
  H   H813      1.0  0.61862  0.20740  0.77525  1.0000
  H   H814      1.0  0.59054  0.46820  0.87230  1.0000
  H   H815      1.0  0.75049  0.29442  0.93611  1.0000
  H   H816      1.0  0.82880  0.22551  0.90580  1.0000
  H   H817      1.0  0.68473  0.19040  0.81754  1.0000
  H   H818      1.0  0.85488  0.23085  0.94613  1.0000
  C   C490      1.0  0.68759  0.32231  0.70586  1.0000
  H   H819      1.0  0.78786  0.25169  0.92802  1.0000
  H   H820      1.0  0.84800  0.33257  0.92499  1.0000
  H   H821      1.0  0.77532  0.31498  0.91770  1.0000
  H   H822      1.0  0.89435  0.21350  0.93415  1.0000
  H   H823      1.0  0.88832  0.29168  0.93007  1.0000
  H   H824      1.0  0.63588  0.42848  0.89013  1.0000
  N   N36       1.0  0.66525  0.17518  0.77129  1.0000
  C   C491      1.0  0.80390  0.27257  0.92595  1.0000
  C   C492      1.0  0.62823  0.15345  0.76920  1.0000
  H   H825      1.0  0.80656  0.48201  0.72635  1.0000
  H   H826      1.0  0.59781  0.11914  0.74843  1.0000
  H   H827      1.0  0.71722  0.43705  0.83987  1.0000
  S   S143      1.0  0.98186  0.25477  0.00611  1.0000
  C   C493      1.0  0.63077  0.19686  0.73358  1.0000
  H   H828      1.0  0.55182  0.44356  0.85593  1.0000
  H   H829      1.0  0.60432  0.18044  0.72949  1.0000
  C   C494      1.0  0.82973  0.27196  0.86753  1.0000
  C   C495      1.0  0.59528  0.49102  0.99991  1.0000
  C   C496      1.0  0.00575  0.19165  0.91673  1.0000
  H   H830      1.0  0.91355  0.13391  0.74875  1.0000
  C   C497      1.0  0.57702  0.44633  0.87123  1.0000
  C   C498      1.0  0.00427  0.22250  0.77531  1.0000
  H   H831      1.0  0.61737  0.21547  0.74003  1.0000
  C   C499      1.0  0.85390  0.24250  0.91153  1.0000
  H   H832      1.0  0.68242  0.45777  0.87342  1.0000
  H   H833      1.0  0.90467  0.24918  0.94206  1.0000
  H   H834      1.0  0.58048  0.40538  0.83677  1.0000
  H   H835      1.0  0.79354  0.44868  0.73749  1.0000
  C   C500      1.0  0.03126  0.21870  0.94994  1.0000
  H   H836      1.0  0.76556  0.40225  0.72906  1.0000
  H   H837      1.0  0.64261  0.51151  0.96541  1.0000
  H   H838      1.0  0.62532  0.14516  0.78558  1.0000
  H   H839      1.0  0.98101  0.23820  0.77898  1.0000
  H   H840      1.0  0.69783  0.20313  0.75161  1.0000
  H   H841      1.0  0.91592  0.19362  0.70798  1.0000
  H   H842      1.0  0.91408  0.21745  0.76311  1.0000
  H   H843      1.0  0.59524  0.16295  0.76287  1.0000
  C   C501      1.0  0.73745  0.14679  0.77289  1.0000
  H   H844      1.0  0.83158  0.40789  0.71673  1.0000
  H   H845      1.0  0.76540  0.13816  0.78524  1.0000
  H   H846      1.0  0.90773  0.25278  0.72054  1.0000
  H   H847      1.0  0.78722  0.36230  0.70540  1.0000
  C   C502      1.0  0.62646  0.40730  0.81582  1.0000
  H   H848      1.0  0.78487  0.29230  0.88359  1.0000
  H   H849      1.0  0.82463  0.27770  0.94229  1.0000
  H   H850      1.0  0.73821  0.28575  0.90797  1.0000
  H   H851      1.0  0.69155  0.39759  0.84829  1.0000
  C   C503      1.0  0.95127  0.17326  0.75036  1.0000
  H   H852      1.0  0.65023  0.11047  0.76586  1.0000
  C   C504      1.0  0.95172  0.04392  0.81989  1.0000
  H   H853      1.0  0.84212  0.45331  0.72559  1.0000
  H   H854      1.0  0.68576  0.16963  0.74028  1.0000
  H   H855      1.0  0.00633  0.17263  0.90760  1.0000
  N   N37       1.0  0.64049  0.42424  0.85616  1.0000
  H   H856      1.0  0.95731  0.25544  0.91254  1.0000
  H   H857      1.0  0.88472  0.25957  0.74373  1.0000
  H   H858      1.0  0.71638  0.43297  0.73685  1.0000
  H   H859      1.0  0.60783  0.47929  0.98744  1.0000
  H   H860      1.0  0.58817  0.48205  0.94831  1.0000
  H   H861      1.0  0.63998  0.20376  0.71802  1.0000
  H   H862      1.0  0.64693  0.13168  0.74129  1.0000
  S   S144      1.0  0.55576  0.41391  0.98351  1.0000
  H   H863      1.0  0.83199  0.27168  0.00196  1.0000
  H   H864      1.0  0.00210  0.25930  0.95004  1.0000
  C   C505      1.0  0.54945  0.41427  0.01094  1.0000
  H   H865      1.0  0.89738  0.30299  0.01920  1.0000
  H   H866      1.0  0.85772  0.24285  0.01917  1.0000
  H   H867      1.0  0.03292  0.24352  0.88223  1.0000
  C   C506      1.0  0.74065  0.53556  0.95093  1.0000
  C   C507      1.0  0.61250  0.52427  0.95954  1.0000
  H   H868      1.0  0.01833  0.19321  0.71349  1.0000
  C   C508      1.0  0.86354  0.26346  0.01155  1.0000
  C   C509      1.0  0.03247  0.19429  0.93781  1.0000
  H   H869      1.0  0.73239  0.30196  0.68911  1.0000
  H   H870      1.0  0.84189  0.36490  0.70019  1.0000
  C   C510      1.0  0.70891  0.31865  0.68833  1.0000
  C   C511      1.0  0.77911  0.45160  0.70133  1.0000
  C   C512      1.0  0.81145  0.40577  0.69988  1.0000
  H   H871      1.0  0.87976  0.39205  0.01607  1.0000
  C   C513      1.0  0.80822  0.37379  0.69559  1.0000
  H   H872      1.0  0.74916  0.46454  0.69884  1.0000
  H   H873      1.0  0.76851  0.53624  0.96467  1.0000
  H   H874      1.0  0.03840  0.23125  0.78102  1.0000
  H   H875      1.0  0.03944  0.14418  0.78153  1.0000
  S   S145      1.0  0.03896  0.30167  0.98273  1.0000
  N   N38       1.0  0.59849  0.53780  0.97859  1.0000
  H   H876      1.0  0.83191  0.41542  0.68878  1.0000
  H   H877      1.0  0.79753  0.46009  0.68893  1.0000
  C   C514      1.0  0.64870  0.36181  0.68660  1.0000
  Fe  Fe74      1.0  0.87032  0.89216  0.32733  1.0000
  S   S146      1.0  0.91062  0.86882  0.30730  1.0000
  Fe  Fe75      1.0  0.77741  0.90783  0.33069  1.0000
  S   S147      1.0  0.70714  0.90899  0.31061  1.0000
  H   H878      1.0  0.94755  0.00577  0.29883  1.0000
  H   H879      1.0  0.68312  0.82193  0.24362  1.0000
  S   S148      1.0  0.83044  0.93063  0.31664  1.0000
  S   S149      1.0  0.81580  0.86835  0.33935  1.0000
  C   C515      1.0  0.82006  0.01825  0.33564  1.0000
  H   H880      1.0  0.70740  0.87519  0.24532  1.0000
  S   S150      1.0  0.97682  0.92929  0.22812  1.0000
  H   H881      1.0  0.84262  0.83053  0.26509  1.0000
  H   H882      1.0  0.83383  0.85960  0.24610  1.0000
  H   H883      1.0  0.95938  0.82908  0.11549  1.0000
  N   N39       1.0  0.75675  0.85150  0.26799  1.0000
  C   C516      1.0  0.02693  0.02865  0.21779  1.0000
  H   H884      1.0  0.82831  0.82446  0.23646  1.0000
  H   H885      1.0  0.82846  0.83340  0.30189  1.0000
  H   H886      1.0  0.86985  0.81162  0.03360  1.0000
  H   H887      1.0  0.96302  0.83619  0.07745  1.0000
  H   H888      1.0  0.78307  0.89526  0.24319  1.0000
  C   C517      1.0  0.56163  0.66691  0.04965  1.0000
  Fe  Fe76      1.0  0.03724  0.91511  0.21619  1.0000
  H   H889      1.0  0.81004  0.80188  0.28628  1.0000
  H   H890      1.0  0.02069  0.99076  0.19708  1.0000
  H   H891      1.0  0.89915  0.82541  0.10903  1.0000
  H   H892      1.0  0.90518  0.84122  0.06955  1.0000
  H   H893      1.0  0.74432  0.84194  0.30012  1.0000
  H   H894      1.0  0.66487  0.82850  0.26889  1.0000
  H   H895      1.0  0.98380  0.73949  0.09924  1.0000
  Fe  Fe77      1.0  0.00393  0.74717  0.02619  1.0000
  H   H896      1.0  0.81135  0.91648  0.26543  1.0000
  H   H897      1.0  0.93075  0.77300  0.04575  1.0000
  H   H898      1.0  0.64271  0.84801  0.24480  1.0000
  C   C518      1.0  0.66924  0.88048  0.31094  1.0000
  C   C519      1.0  0.62700  0.88136  0.29715  1.0000
  C   C520      1.0  0.59666  0.85855  0.29645  1.0000
  C   C521      1.0  0.60851  0.83466  0.30954  1.0000
  C   C522      1.0  0.65083  0.83379  0.32324  1.0000
  C   C523      1.0  0.68101  0.85662  0.32402  1.0000
  H   H899      1.0  0.61768  0.89975  0.28695  1.0000
  H   H900      1.0  0.01932  0.03258  0.23407  1.0000
  H   H901      1.0  0.98714  0.02776  0.17173  1.0000
  H   H902      1.0  0.71329  0.85575  0.33480  1.0000
  C   C524      1.0  0.92997  0.88632  0.28583  1.0000
  C   C525      1.0  0.96069  0.87309  0.27590  1.0000
  C   C526      1.0  0.97608  0.88627  0.25847  1.0000
  C   C527      1.0  0.96009  0.91256  0.25061  1.0000
  C   C528      1.0  0.92915  0.92571  0.26046  1.0000
  C   C529      1.0  0.91449  0.91279  0.27816  1.0000
  H   H903      1.0  0.97282  0.85262  0.28176  1.0000
  C   C530      1.0  0.85677  0.76281  0.06063  1.0000
  H   H904      1.0  0.91663  0.94602  0.25443  1.0000
  H   H905      1.0  0.89103  0.92322  0.28575  1.0000
  H   H906      1.0  0.96925  0.80083  0.05214  1.0000
  C   C531      1.0  0.75658  0.83131  0.28687  1.0000
  C   C532      1.0  0.93389  0.79488  0.05161  1.0000
  C   C533      1.0  0.95677  0.78067  0.09020  1.0000
  H   H907      1.0  0.56419  0.85942  0.28583  1.0000
  C   C534      1.0  0.67357  0.83831  0.25403  1.0000
  H   H908      1.0  0.77596  0.88492  0.29120  1.0000
  H   H909      1.0  0.99981  0.87594  0.25095  1.0000
  H   H910      1.0  0.92631  0.85832  0.10526  1.0000
  C   C535      1.0  0.78524  0.87687  0.27623  1.0000
  C   C536      1.0  0.78257  0.90193  0.26000  1.0000
  H   H911      1.0  0.58466  0.54817  0.08813  1.0000
  H   H912      1.0  0.75220  0.91411  0.25978  1.0000
  H   H913      1.0  0.89423  0.99773  0.30446  1.0000
  H   H914      1.0  0.73342  0.81319  0.28196  1.0000
  C   C537      1.0  0.01001  0.99837  0.21179  1.0000
  H   H915      1.0  0.82068  0.87158  0.28148  1.0000
  H   H916      1.0  0.92497  0.73880  0.09085  1.0000
  H   H917      1.0  0.76053  0.81474  0.24854  1.0000
  H   H918      1.0  0.75538  0.84656  0.23334  1.0000
  C   C538      1.0  0.82187  0.83815  0.24959  1.0000
  H   H919      1.0  0.80697  0.99839  0.32861  1.0000
  C   C539      1.0  0.80103  0.81784  0.29720  1.0000
  C   C540      1.0  0.90569  0.81313  0.03352  1.0000
  C   C541      1.0  0.60145  0.66937  0.01977  1.0000
  C   C542      1.0  0.92388  0.01187  0.30894  1.0000
  H   H920      1.0  0.66016  0.81540  0.33344  1.0000
  N   N40       1.0  0.92366  0.79735  0.07403  1.0000
  H   H921      1.0  0.02471  0.98401  0.22543  1.0000
  S   S151      1.0  0.55084  0.68182  0.07350  1.0000
  H   H922      1.0  0.88091  0.74765  0.05721  1.0000
  C   C543      1.0  0.70987  0.86144  0.26009  1.0000
  H   H923      1.0  0.83561  0.76992  0.04495  1.0000
  H   H924      1.0  0.83407  0.75070  0.06921  1.0000
  H   H925      1.0  0.79738  0.80652  0.31244  1.0000
  H   H926      1.0  0.93798  0.00747  0.32644  1.0000
  H   H927      1.0  0.85378  0.80596  0.06909  1.0000
  S   S152      1.0  0.03683  0.91916  0.18022  1.0000
  C   C544      1.0  0.54908  0.54549  0.07991  1.0000
  C   C545      1.0  0.95573  0.74861  0.08729  1.0000
  H   H928      1.0  0.54811  0.54742  0.06207  1.0000
  H   H929      1.0  0.96026  0.74251  0.07097  1.0000
  C   C546      1.0  0.59508  0.67893  0.04000  1.0000
  C   C547      1.0  0.87666  0.78832  0.07476  1.0000
  H   H930      1.0  0.99105  0.78840  0.09000  1.0000
  H   H931      1.0  0.69983  0.87476  0.27257  1.0000
  S   S153      1.0  0.94557  0.71813  0.02836  1.0000
  H   H932      1.0  0.87370  0.78360  0.09190  1.0000
  C   C548      1.0  0.93044  0.82800  0.08019  1.0000
  H   H933      1.0  0.61544  0.69615  0.04795  1.0000
  C   C549      1.0  0.92846  0.83515  0.10392  1.0000
  C   C550      1.0  0.77156  0.83726  0.24940  1.0000
  H   H934      1.0  0.95214  0.78349  0.10716  1.0000
  H   H935      1.0  0.97355  0.99593  0.20965  1.0000
  H   H936      1.0  0.03902  0.88496  0.09194  1.0000
  H   H937      1.0  0.91711  0.83549  0.03490  1.0000
  H   H938      1.0  0.86550  0.68574  0.02535  1.0000
  C   C551      1.0  0.85743  0.01879  0.35270  1.0000
  S   S154      1.0  0.57221  0.80520  0.30924  1.0000
  Fe  Fe78      1.0  0.85623  0.94564  0.35081  1.0000
  H   H939      1.0  0.94138  0.03535  0.19608  1.0000
  H   H940      1.0  0.87086  0.85261  0.45018  1.0000
  H   H941      1.0  0.87910  0.79877  0.46305  1.0000
  Fe  Fe79      1.0  0.84327  0.88863  0.37165  1.0000
  S   S155      1.0  0.84731  0.86729  0.40476  1.0000
  Fe  Fe80      1.0  0.72603  0.66354  0.62506  1.0000
  S   S156      1.0  0.73661  0.70307  0.60667  1.0000
  S   S157      1.0  0.70098  0.66206  0.65668  1.0000
  Fe  Fe81      1.0  0.75044  0.62590  0.59086  1.0000
  S   S158      1.0  0.76294  0.66278  0.56964  1.0000
  S   S159      1.0  0.75851  0.58293  0.57722  1.0000
  Fe  Fe82      1.0  0.79804  0.68283  0.60072  1.0000
  S   S160      1.0  0.85966  0.71109  0.60465  1.0000
  Fe  Fe83      1.0  0.70084  0.68013  0.57698  1.0000
  S   S161      1.0  0.65552  0.70531  0.55087  1.0000
  S   S162      1.0  0.79053  0.64468  0.62170  1.0000
  S   S163      1.0  0.68513  0.64182  0.59565  1.0000
  Fe  Fe84      1.0  0.00183  0.77371  0.52618  1.0000
  S   S164      1.0  0.99200  0.82034  0.52239  1.0000
  S   S165      1.0  0.94409  0.74242  0.52275  1.0000
  H   H942      1.0  0.98271  0.96629  0.41481  1.0000
  C   C552      1.0  0.63821  0.74480  0.60677  1.0000
  C   C553      1.0  0.00921  0.77193  0.43719  1.0000
  H   H943      1.0  0.86274  0.74390  0.44087  1.0000
  H   H944      1.0  0.66180  0.75032  0.62215  1.0000
  H   H945      1.0  0.93849  0.70219  0.45791  1.0000
  C   C554      1.0  0.89648  0.73619  0.44076  1.0000
  H   H946      1.0  0.74152  0.57047  0.62064  1.0000
  C   C555      1.0  0.60030  0.69354  0.54181  1.0000
  H   H947      1.0  0.56695  0.63985  0.62259  1.0000
  H   H948      1.0  0.60248  0.66118  0.56649  1.0000
  C   C556      1.0  0.88588  0.71827  0.58249  1.0000
  C   C557      1.0  0.87893  0.70089  0.56427  1.0000
  C   C558      1.0  0.89761  0.70825  0.54620  1.0000
  C   C559      1.0  0.92408  0.73274  0.54637  1.0000
  C   C560      1.0  0.93225  0.74966  0.56488  1.0000
  C   C561      1.0  0.91313  0.74245  0.58286  1.0000
  H   H949      1.0  0.85900  0.68183  0.56409  1.0000
  H   H950      1.0  0.89175  0.69483  0.53208  1.0000
  H   H951      1.0  0.95268  0.76855  0.56519  1.0000
  H   H952      1.0  0.91896  0.75588  0.59697  1.0000
  H   H953      1.0  0.61696  0.65920  0.62243  1.0000
  Fe  Fe85      1.0  0.03879  0.81906  0.49942  1.0000
  H   H954      1.0  0.61604  0.70435  0.59296  1.0000
  C   C562      1.0  0.69218  0.69318  0.66986  1.0000
  C   C563      1.0  0.70502  0.71950  0.66267  1.0000
  C   C564      1.0  0.97284  0.74946  0.43867  1.0000
  H   H955      1.0  0.86875  0.91360  0.43641  1.0000
  H   H956      1.0  0.72186  0.72097  0.64919  1.0000
  C   C565      1.0  0.55568  0.68344  0.61214  1.0000
  H   H957      1.0  0.03890  0.76133  0.43403  1.0000
  C   C566      1.0  0.89918  0.86076  0.42191  1.0000
  C   C567      1.0  0.93840  0.86249  0.41404  1.0000
  C   C568      1.0  0.97922  0.85705  0.42813  1.0000
  C   C569      1.0  0.98111  0.84968  0.45012  1.0000
  C   C570      1.0  0.94196  0.84833  0.45809  1.0000
  C   C571      1.0  0.90110  0.85376  0.44398  1.0000
  H   H958      1.0  0.93728  0.86773  0.39704  1.0000
  C   C572      1.0  0.57352  0.70720  0.52396  1.0000
  H   H959      1.0  0.94321  0.84307  0.47509  1.0000
  C   C573      1.0  0.90694  0.71263  0.45830  1.0000
  H   H960      1.0  0.93306  0.80213  0.42896  1.0000
  C   C574      1.0  0.95124  0.93051  0.47504  1.0000
  H   H961      1.0  0.99908  0.78734  0.42368  1.0000
  C   C575      1.0  0.87219  0.93667  0.43933  1.0000
  H   H962      1.0  0.58745  0.72399  0.51541  1.0000
  H   H963      1.0  0.87390  0.76406  0.47489  1.0000
  H   H964      1.0  0.96072  0.79132  0.46631  1.0000
  C   C576      1.0  0.92352  0.97831  0.44143  1.0000
  H   H965      1.0  0.95932  0.98349  0.44768  1.0000
  S   S166      1.0  0.79996  0.92638  0.36404  1.0000
  H   H966      1.0  0.88203  0.75720  0.39765  1.0000
  C   C577      1.0  0.91973  0.94181  0.41250  1.0000
  C   C578      1.0  0.58047  0.75113  0.64580  1.0000
  C   C579      1.0  0.61730  0.71525  0.60868  1.0000
  H   H967      1.0  0.86919  0.93948  0.45654  1.0000
  C   C580      1.0  0.93826  0.77254  0.46531  1.0000
  C   C581      1.0  0.75281  0.55160  0.61431  1.0000
  H   H968      1.0  0.96718  0.73694  0.42346  1.0000
  H   H969      1.0  0.80094  0.93807  0.42778  1.0000
  H   H970      1.0  0.88029  0.69616  0.45496  1.0000
  H   H971      1.0  0.64256  0.70330  0.62042  1.0000
  N   N41       1.0  0.91656  0.94754  0.43572  1.0000
  H   H972      1.0  0.94855  0.95193  0.48124  1.0000
  S   S167      1.0  0.03288  0.84216  0.46697  1.0000
  H   H973      1.0  0.56101  0.72932  0.57050  1.0000
  H   H974      1.0  0.65695  0.74480  0.59340  1.0000
  H   H975      1.0  0.55717  0.57396  0.54815  1.0000
  H   H976      1.0  0.90800  0.79061  0.49006  1.0000
  H   H977      1.0  0.70615  0.76435  0.66735  1.0000
  H   H978      1.0  0.82688  0.97201  0.43114  1.0000
  H   H979      1.0  0.98267  0.92156  0.48435  1.0000
  H   H980      1.0  0.83021  0.95054  0.40781  1.0000
  C   C582      1.0  0.89698  0.78187  0.47342  1.0000
  H   H981      1.0  0.95025  0.90839  0.44529  1.0000
  H   H982      1.0  0.02094  0.82135  0.63732  1.0000
  N   N42       1.0  0.75946  0.74897  0.53243  1.0000
  C   C583      1.0  0.77164  0.73877  0.55584  1.0000
  C   C584      1.0  0.74718  0.72348  0.51820  1.0000
  C   C585      1.0  0.72008  0.76804  0.53054  1.0000
  C   C586      1.0  0.79904  0.76486  0.52726  1.0000
  C   C587      1.0  0.78450  0.76188  0.57320  1.0000
  C   C588      1.0  0.78434  0.70241  0.51808  1.0000
  C   C589      1.0  0.68571  0.76828  0.50871  1.0000
  C   C590      1.0  0.79520  0.77449  0.50337  1.0000
  H   H983      1.0  0.74398  0.72599  0.56019  1.0000
  H   H984      1.0  0.80007  0.72457  0.55837  1.0000
  H   H985      1.0  0.73513  0.72955  0.50082  1.0000
  H   H986      1.0  0.71911  0.71153  0.52305  1.0000
  H   H987      1.0  0.70006  0.76220  0.54297  1.0000
  H   H988      1.0  0.73126  0.79022  0.53416  1.0000
  H   H989      1.0  0.80632  0.78424  0.53717  1.0000
  H   H990      1.0  0.82950  0.75215  0.53196  1.0000
  H   H991      1.0  0.75945  0.77847  0.57170  1.0000
  H   H992      1.0  0.78743  0.75212  0.58968  1.0000
  H   H993      1.0  0.81755  0.77143  0.57280  1.0000
  H   H994      1.0  0.81336  0.71226  0.51277  1.0000
  H   H995      1.0  0.79504  0.69170  0.53406  1.0000
  H   H996      1.0  0.77131  0.68556  0.50625  1.0000
  H   H997      1.0  0.66624  0.74815  0.50657  1.0000
  H   H998      1.0  0.70065  0.77232  0.49433  1.0000
  H   H999      1.0  0.66164  0.78518  0.50905  1.0000
  H   H1000     1.0  0.79051  0.75658  0.49200  1.0000
  H   H1001     1.0  0.82667  0.78546  0.50183  1.0000
  H   H1002     1.0  0.76840  0.78978  0.49836  1.0000
  C   C591      1.0  0.95201  0.93070  0.45047  1.0000
  C   C592      1.0  0.96603  0.94697  0.40719  1.0000
  H   H1003     1.0  0.89596  0.95435  0.40062  1.0000
  H   H1004     1.0  0.98573  0.93855  0.44924  1.0000
  H   H1005     1.0  0.92409  0.91660  0.47862  1.0000
  C   C593      1.0  0.90558  0.77515  0.40209  1.0000
  H   H1006     1.0  0.90981  0.91960  0.40830  1.0000
  C   C594      1.0  0.69619  0.74403  0.67303  1.0000
  H   H1007     1.0  0.95612  0.75743  0.47762  1.0000
  C   C595      1.0  0.58207  0.67186  0.55277  1.0000
  H   H1008     1.0  0.92877  0.00040  0.41060  1.0000
  H   H1009     1.0  0.00944  0.85822  0.42190  1.0000
  C   C596      1.0  0.90759  0.00004  0.42292  1.0000
  H   H1010     1.0  0.98804  0.73469  0.45199  1.0000
  H   H1011     1.0  0.98753  0.92867  0.41254  1.0000
  H   H1012     1.0  0.87276  0.99665  0.41436  1.0000
  H   H1013     1.0  0.90719  0.98330  0.45515  1.0000
  H   H1014     1.0  0.89156  0.79348  0.39189  1.0000
  H   H1015     1.0  0.61423  0.76179  0.60229  1.0000
  H   H1016     1.0  0.96272  0.94934  0.38923  1.0000
  S   S168      1.0  0.90102  0.90893  0.36042  1.0000
  C   C597      1.0  0.83077  0.95043  0.42552  1.0000
  H   H1017     1.0  0.89329  0.72567  0.42477  1.0000
  H   H1018     1.0  0.87849  0.78960  0.42855  1.0000
  H   H1019     1.0  0.60731  0.76311  0.64025  1.0000
  H   H1020     1.0  0.90785  0.72018  0.47504  1.0000
  N   N43       1.0  0.92976  0.76028  0.44275  1.0000
  H   H1021     1.0  0.91010  0.02143  0.42995  1.0000
  H   H1022     1.0  0.66656  0.55789  0.54806  1.0000
  H   H1023     1.0  0.02016  0.78330  0.45271  1.0000
  H   H1024     1.0  0.54988  0.71046  0.64589  1.0000
  C   C598      1.0  0.91158  0.78291  0.42637  1.0000
  C   C599      1.0  0.76473  0.55238  0.59394  1.0000
  H   H1025     1.0  0.60832  0.71011  0.64916  1.0000
  H   H1026     1.0  0.93749  0.77057  0.39754  1.0000
  H   H1027     1.0  0.58759  0.75241  0.66392  1.0000
  C   C600      1.0  0.57810  0.71989  0.63939  1.0000
  N   N44       1.0  0.57310  0.71338  0.61544  1.0000
  C   C601      1.0  0.58362  0.66069  0.62626  1.0000
  H   H1028     1.0  0.58691  0.66396  0.64403  1.0000
  S   S169      1.0  0.88642  0.98805  0.36207  1.0000
  H   H1029     1.0  0.54722  0.75468  0.60443  1.0000
  H   H1030     1.0  0.54826  0.76152  0.64000  1.0000
  H   H1031     1.0  0.55300  0.67699  0.59492  1.0000
  H   H1032     1.0  0.03578  0.78456  0.63871  1.0000
  H   H1033     1.0  0.04045  0.80588  0.61554  1.0000
  H   H1034     1.0  0.04108  0.83019  0.67384  1.0000
  Fe  Fe86      1.0  0.65246  0.80551  0.77708  1.0000
  S   S170      1.0  0.68533  0.76837  0.76691  1.0000
  S   S171      1.0  0.69694  0.83671  0.79868  1.0000
  C   C602      1.0  0.94632  0.01811  0.80890  1.0000
  S   S172      1.0  0.58745  0.74384  0.74433  1.0000
  Fe  Fe87      1.0  0.63179  0.74293  0.77784  1.0000
  S   S173      1.0  0.65990  0.70574  0.79887  1.0000
  Fe  Fe88      1.0  0.63865  0.77287  0.73460  1.0000
  S   S174      1.0  0.66497  0.77377  0.70332  1.0000
  S   S175      1.0  0.60093  0.77997  0.79002  1.0000
  S   S176      1.0  0.60918  0.81253  0.74385  1.0000
  Fe  Fe89      1.0  0.64166  0.67169  0.92003  1.0000
  S   S177      1.0  0.71588  0.67035  0.92824  1.0000
  S   S178      1.0  0.59857  0.68902  0.88908  1.0000
  Fe  Fe90      1.0  0.63269  0.65305  0.96611  1.0000
  S   S179      1.0  0.70653  0.65123  0.97836  1.0000
  C   C603      1.0  0.83927  0.63727  0.97999  1.0000
  Fe  Fe91      1.0  0.71049  0.69149  0.95932  1.0000
  S   S180      1.0  0.75493  0.73020  0.96746  1.0000
  Fe  Fe92      1.0  0.70632  0.63024  0.94650  1.0000
  S   S181      1.0  0.75077  0.59286  0.94933  1.0000
  S   S182      1.0  0.63635  0.69542  0.95002  1.0000
  S   S183      1.0  0.63245  0.62938  0.93534  1.0000
  Fe  Fe93      1.0  0.98515  0.87964  0.86437  1.0000
  S   S184      1.0  0.92497  0.89047  0.83871  1.0000
  H   H1035     1.0  0.83473  0.75329  0.78025  1.0000
  H   H1036     1.0  0.04188  0.90530  0.93612  1.0000
  S   S185      1.0  0.98946  0.88792  0.80329  1.0000
  Fe  Fe94      1.0  0.96983  0.92027  0.82481  1.0000
  S   S186      1.0  0.94914  0.96072  0.80623  1.0000
  Fe  Fe95      1.0  0.94867  0.85745  0.81912  1.0000
  S   S187      1.0  0.90119  0.82782  0.79734  1.0000
  S   S188      1.0  0.00646  0.84460  0.84559  1.0000
  H   H1037     1.0  0.82443  0.77934  0.72888  1.0000
  H   H1038     1.0  0.01010  0.99896  0.77862  1.0000
  H   H1039     1.0  0.62681  0.67905  0.01226  1.0000
  H   H1040     1.0  0.67409  0.56726  0.97092  1.0000
  H   H1041     1.0  0.77542  0.76316  0.75661  1.0000
  H   H1042     1.0  0.84024  0.68236  0.72488  1.0000
  C   C604      1.0  0.95609  0.99269  0.82049  1.0000
  H   H1043     1.0  0.86155  0.64853  0.99338  1.0000
  C   C605      1.0  0.97120  0.99313  0.84313  1.0000
  H   H1044     1.0  0.76148  0.73230  0.78080  1.0000
  H   H1045     1.0  0.97865  0.97367  0.85221  1.0000
  C   C606      1.0  0.99624  0.84847  0.93905  1.0000
  C   C607      1.0  0.04317  0.94115  0.91569  1.0000
  H   H1046     1.0  0.97578  0.86391  0.94440  1.0000
  H   H1047     1.0  0.80524  0.68216  0.69818  1.0000
  C   C608      1.0  0.03938  0.95129  0.76005  1.0000
  H   H1048     1.0  0.88886  0.74064  0.78185  1.0000
  Fe  Fe96      1.0  0.56022  0.78339  0.75565  1.0000
  H   H1049     1.0  0.03221  0.82908  0.89380  1.0000
  C   C609      1.0  0.72492  0.56062  0.94023  1.0000
  C   C610      1.0  0.68889  0.55963  0.92250  1.0000
  H   H1050     1.0  0.56126  0.71899  0.84998  1.0000
  H   H1051     1.0  0.67669  0.57886  0.91412  1.0000
  C   C611      1.0  0.85963  0.74926  0.77037  1.0000
  C   C612      1.0  0.80718  0.72744  0.98522  1.0000
  C   C613      1.0  0.81626  0.70522  0.00029  1.0000
  H   H1052     1.0  0.85572  0.98139  0.77602  1.0000
  H   H1053     1.0  0.86299  0.73585  0.73838  1.0000
  C   C614      1.0  0.88310  0.74538  0.99730  1.0000
  C   C615      1.0  0.84050  0.74775  0.98399  1.0000
  H   H1054     1.0  0.77510  0.77195  0.70805  1.0000
  H   H1055     1.0  0.80708  0.72954  0.70843  1.0000
  H   H1056     1.0  0.83359  0.76505  0.97241  1.0000
  C   C616      1.0  0.04340  0.00407  0.78857  1.0000
  N   N45       1.0  0.79586  0.72601  0.74159  1.0000
  C   C617      1.0  0.75359  0.83392  0.79825  1.0000
  C   C618      1.0  0.76718  0.82245  0.78036  1.0000
  C   C619      1.0  0.81254  0.82046  0.78035  1.0000
  C   C620      1.0  0.84461  0.83001  0.79816  1.0000
  C   C621      1.0  0.83102  0.84146  0.81606  1.0000
  C   C622      1.0  0.78563  0.84372  0.81597  1.0000
  H   H1057     1.0  0.74277  0.81589  0.76624  1.0000
  H   H1058     1.0  0.82284  0.81203  0.76634  1.0000
  H   H1059     1.0  0.85542  0.84835  0.83005  1.0000
  H   H1060     1.0  0.77532  0.85287  0.82973  1.0000
  C   C623      1.0  0.64240  0.70064  0.82378  1.0000
  C   C624      1.0  0.66733  0.68386  0.84038  1.0000
  C   C625      1.0  0.65456  0.68020  0.86060  1.0000
  C   C626      1.0  0.61626  0.69288  0.86412  1.0000
  C   C627      1.0  0.59108  0.70930  0.84740  1.0000
  C   C628      1.0  0.60425  0.71334  0.82737  1.0000
  H   H1061     1.0  0.69668  0.67378  0.83761  1.0000
  H   H1062     1.0  0.67390  0.66729  0.87334  1.0000
  H   H1063     1.0  0.78310  0.66925  0.72054  1.0000
  H   H1064     1.0  0.58447  0.72596  0.81459  1.0000
  H   H1065     1.0  0.64573  0.71470  0.71175  1.0000
  C   C629      1.0  0.66226  0.71612  0.69810  1.0000
  N   N46       1.0  0.81340  0.92578  0.78025  1.0000
  C   C630      1.0  0.84955  0.92349  0.76740  1.0000
  C   C631      1.0  0.79543  0.95506  0.77635  1.0000
  C   C632      1.0  0.77777  0.90404  0.77155  1.0000
  C   C633      1.0  0.83353  0.92002  0.80395  1.0000
  C   C634      1.0  0.87031  0.89426  0.76751  1.0000
  C   C635      1.0  0.82838  0.97929  0.78502  1.0000
  C   C636      1.0  0.73112  0.90831  0.77608  1.0000
  C   C637      1.0  0.80492  0.92531  0.82090  1.0000
  H   H1066     1.0  0.83708  0.92967  0.74997  1.0000
  H   H1067     1.0  0.87774  0.93818  0.77362  1.0000
  H   H1068     1.0  0.76614  0.95790  0.78368  1.0000
  H   H1069     1.0  0.78291  0.95890  0.75853  1.0000
  H   H1070     1.0  0.77288  0.90261  0.75344  1.0000
  H   H1071     1.0  0.78805  0.88275  0.77801  1.0000
  H   H1072     1.0  0.84299  0.89766  0.80634  1.0000
  H   H1073     1.0  0.86564  0.93169  0.80919  1.0000
  H   H1074     1.0  0.89585  0.89530  0.75734  1.0000
  H   H1075     1.0  0.88765  0.88782  0.78413  1.0000
  H   H1076     1.0  0.84576  0.87771  0.76049  1.0000
  H   H1077     1.0  0.81061  0.99950  0.78262  1.0000
  H   H1078     1.0  0.84246  0.97709  0.80277  1.0000
  C   C638      1.0  0.57448  0.64764  0.00919  1.0000
  H   H1079     1.0  0.71011  0.88941  0.77048  1.0000
  H   H1080     1.0  0.71459  0.92645  0.76663  1.0000
  H   H1081     1.0  0.73108  0.91049  0.79359  1.0000
  H   H1082     1.0  0.78643  0.90587  0.82407  1.0000
  H   H1083     1.0  0.78157  0.94270  0.81660  1.0000
  H   H1084     1.0  0.82704  0.93165  0.83653  1.0000
  C   C639      1.0  0.77262  0.75369  0.74037  1.0000
  C   C640      1.0  0.77487  0.71152  0.77843  1.0000
  C   C641      1.0  0.67482  0.74244  0.69075  1.0000
  C   C642      1.0  0.78789  0.77656  0.72559  1.0000
  H   H1085     1.0  0.96414  0.66000  0.97031  1.0000
  H   H1086     1.0  0.03448  0.90565  0.76721  1.0000
  C   C643      1.0  0.01832  0.82856  0.95414  1.0000
  C   C644      1.0  0.97616  0.01888  0.85413  1.0000
  H   H1087     1.0  0.01480  0.82873  0.97097  1.0000
  H   H1088     1.0  0.00500  0.91659  0.74097  1.0000
  C   C645      1.0  0.66849  0.57045  0.98757  1.0000
  H   H1089     1.0  0.63105  0.55370  0.01041  1.0000
  H   H1090     1.0  0.95767  0.68605  0.98940  1.0000
  H   H1091     1.0  0.79065  0.68966  0.00153  1.0000
  N   N47       1.0  0.71550  0.77627  0.86315  1.0000
  C   C646      1.0  0.73484  0.75424  0.85112  1.0000
  C   C647      1.0  0.72355  0.76812  0.88705  1.0000
  C   C648      1.0  0.73694  0.80474  0.86095  1.0000
  C   C649      1.0  0.66661  0.77803  0.85340  1.0000
  C   C650      1.0  0.73383  0.76070  0.82675  1.0000
  C   C651      1.0  0.70013  0.74074  0.89271  1.0000
  C   C652      1.0  0.78813  0.80604  0.86721  1.0000
  C   C653      1.0  0.63964  0.79654  0.86563  1.0000
  H   H1092     1.0  0.76970  0.74986  0.85928  1.0000
  H   H1093     1.0  0.71662  0.73383  0.85150  1.0000
  H   H1094     1.0  0.71403  0.78529  0.89690  1.0000
  H   H1095     1.0  0.75946  0.76506  0.89373  1.0000
  H   H1096     1.0  0.72677  0.81327  0.84400  1.0000
  H   H1097     1.0  0.72533  0.82033  0.87141  1.0000
  H   H1098     1.0  0.66108  0.78661  0.83640  1.0000
  H   H1099     1.0  0.65068  0.75674  0.85197  1.0000
  H   H1100     1.0  0.74870  0.74293  0.81977  1.0000
  H   H1101     1.0  0.69947  0.76241  0.81717  1.0000
  H   H1102     1.0  0.75318  0.77995  0.82417  1.0000
  H   H1103     1.0  0.70737  0.73766  0.91075  1.0000
  H   H1104     1.0  0.66357  0.74137  0.88745  1.0000
  H   H1105     1.0  0.71255  0.72200  0.88582  1.0000
  H   H1106     1.0  0.80094  0.79982  0.88447  1.0000
  H   H1107     1.0  0.79966  0.82812  0.86542  1.0000
  H   H1108     1.0  0.80361  0.79326  0.85632  1.0000
  H   H1109     1.0  0.63883  0.78809  0.88217  1.0000
  H   H1110     1.0  0.60473  0.79673  0.85637  1.0000
  H   H1111     1.0  0.65198  0.81865  0.86675  1.0000
  N   N48       1.0  0.86803  0.66232  0.94833  1.0000
  C   C654      1.0  0.85007  0.67714  0.92686  1.0000
  C   C655      1.0  0.89105  0.63630  0.94346  1.0000
  C   C656      1.0  0.90080  0.68217  0.96235  1.0000
  C   C657      1.0  0.82936  0.65515  0.95889  1.0000
  C   C658      1.0  0.83014  0.70639  0.92840  1.0000
  C   C659      1.0  0.86215  0.61464  0.92841  1.0000
  H   H1112     1.0  0.02492  0.92912  0.90147  1.0000
  H   H1113     1.0  0.00823  0.95550  0.76568  1.0000
  H   H1114     1.0  0.87657  0.68001  0.91725  1.0000
  H   H1115     1.0  0.82314  0.66438  0.91656  1.0000
  H   H1116     1.0  0.90562  0.62458  0.95866  1.0000
  H   H1117     1.0  0.91956  0.64232  0.93580  1.0000
  H   H1118     1.0  0.91734  0.69649  0.95203  1.0000
  H   H1119     1.0  0.88337  0.69627  0.97155  1.0000
  H   H1120     1.0  0.81368  0.67450  0.96300  1.0000
  H   H1121     1.0  0.80281  0.64386  0.94725  1.0000
  H   H1122     1.0  0.80018  0.70503  0.93553  1.0000
  H   H1123     1.0  0.85420  0.72164  0.93780  1.0000
  H   H1124     1.0  0.81951  0.71537  0.91167  1.0000
  H   H1125     1.0  0.88244  0.59605  0.92705  1.0000
  H   H1126     1.0  0.83355  0.60679  0.93513  1.0000
  H   H1127     1.0  0.85054  0.62296  0.91158  1.0000
  H   H1128     1.0  0.03762  0.96430  0.74492  1.0000
  C   C660      1.0  0.77318  0.70503  0.75426  1.0000
  H   H1129     1.0  0.93460  0.01790  0.79137  1.0000
  C   C661      1.0  0.89228  0.72291  0.01214  1.0000
  H   H1130     1.0  0.87157  0.76961  0.76443  1.0000
  H   H1131     1.0  0.80892  0.70950  0.78836  1.0000
  H   H1132     1.0  0.73632  0.75033  0.73430  1.0000
  C   C662      1.0  0.93974  0.66914  0.97883  1.0000
  C   C663      1.0  0.78963  0.71547  0.71848  1.0000
  H   H1133     1.0  0.85245  0.61643  0.97743  1.0000
  C   C664      1.0  0.02790  0.82891  0.91050  1.0000
  S   S189      1.0  0.57948  0.63591  0.98334  1.0000
  C   C665      1.0  0.84493  0.72858  0.75123  1.0000
  S   S190      1.0  0.97710  0.87628  0.89954  1.0000
  C   C666      1.0  0.80582  0.68557  0.71577  1.0000
  H   H1134     1.0  0.70156  0.57125  0.99878  1.0000
  C   C667      1.0  0.63972  0.54662  0.99497  1.0000
  H   H1135     1.0  0.77351  0.79695  0.72859  1.0000
  H   H1136     1.0  0.75408  0.71575  0.71028  1.0000
  C   C668      1.0  0.00127  0.84891  0.91724  1.0000
  H   H1137     1.0  0.01782  0.95266  0.92214  1.0000
  H   H1138     1.0  0.98744  0.01911  0.87169  1.0000
  H   H1139     1.0  0.90893  0.76066  0.99582  1.0000
  H   H1140     1.0  0.85843  0.70758  0.75684  1.0000
  H   H1141     1.0  0.78796  0.68392  0.75457  1.0000
  H   H1142     1.0  0.75370  0.69574  0.78504  1.0000
  H   H1143     1.0  0.73750  0.70228  0.74614  1.0000
  S   S191      1.0  0.02795  0.91299  0.85233  1.0000
  C   C669      1.0  0.57237  0.56395  0.97139  1.0000
  H   H1144     1.0  0.04235  0.94959  0.80254  1.0000
  H   H1145     1.0  0.92928  0.65300  0.98974  1.0000
  H   H1146     1.0  0.65353  0.59132  0.98831  1.0000
  H   H1147     1.0  0.59182  0.57929  0.96328  1.0000
  C   C670      1.0  0.85861  0.70308  0.01380  1.0000
  H   H1148     1.0  0.80770  0.63312  0.98552  1.0000
  S   S192      1.0  0.00406  0.79091  0.01200  1.0000
  H   H1149     1.0  0.56529  0.57487  0.98585  1.0000
  C   C671      1.0  0.67097  0.69156  0.68767  1.0000
  H   H1150     1.0  0.90996  0.80597  0.01732  1.0000
  H   H1151     1.0  0.66092  0.67124  0.69330  1.0000
  C   C672      1.0  0.03612  0.92008  0.75332  1.0000
  H   H1152     1.0  0.62263  0.54072  0.94856  1.0000
