data_image0
_chemical_formula_structural       FeS2HFeSHSC2FeSCFeS2FeS2FeSFeS3CH2SHCHFeSFeSHFe2S2FeS2FeSFeS4HSCFeCH2C8H2CHCHC2H6CH5C11H4C6H2NC2NHC5H3C6H4CHFeH2CH2CHCHCSNHC2SCH4CH3FeHCH3CH5CHC2H5CHCH2CHCH6CH2CHCH2FeH3SH6CH5NHC2H2CH3CHSHCH3CH3SH9NC7H17C3NC8H9CNH11CH2CH3SFeNH3CSH7C4HSHCSCH3C2SHCHC2HFeHCHCFeS2FeS2FeSFeS3HS2H2CHSHFeS2FeSFeS3FeS2FeSCFeSFeS3HNHCFeCH3CFeH2S2H3CFeSH2SCH2CHC6H4CHCH4C2H2C9H4CHC3HCH2C7H4C6H4C6H6C2H8C2SNC8H21CH5CHC3HCHCH2FeCH4C3H3CHC2H5CSHC3HSCHCSH3CH2SHNC8H20C2H7NH4CH3C2H5NCHNCHCH5FeCHFeSHSFe2NH2CH4CHCH3CHCH2C4H4CH3FeS2H6CH4CH5SCSH3C2H3FeS2FeS2FeSFeS3H2SHFeS2CNH2SHFeS2FeS2FeS2FeSFeS6H4CFeH3SC6HCH2CH4C2HCHC5H4C6H6C6H4CH3C4SC6H5C6H4C3H3C2HC4H9CHCSHCHCH2C2SH5SCHCH9NC8H9CH2CH8C2SH3C3H2NC8H19CH2C2H2CHC2HC2H2C2HCH2CNH3FeH2CH2NHC3H4FeH2NC2HCSC2H3CH7SH6NCHC3H2CH2CHCH6CH3CHCNH2CH2CH2CH2CH5NHCH2CH6CFeH2CHCHCHCFeHCHC5H5CH3CH2SFeCH5CH2FeH5CH2C2HCNFeSHFeCSHCSHFeS2FeSHFeSFeS3FeS2FeSHFeSFeS3H2FeH2FeS2HFeS3C6H4C2H3SHC2H2SH2NC7H2C6H4CHC6H4CHSNC8H20CH2CH3CHSH3CH3CHC2H3CHCH2NH4CHCH2CH4CHSHCH2CH5CHCNH6CHFeC2HCHSCH2CHCH6C2HCHCH3FeNH3SH2CHCNH10CH4CH3CHCHCH2CSH5NH2CH3CH2CH2CHCFeCHC3H2CHCHNHCHFeH2SH3FeS2FeS2FeSFeS3CHCH3C3FeS2FeS2FeSFeS3HC2HSH2CHC2H3C2H2C2H4C6H4C6H4C4H3CHCH2CHCH3CH3CHCFeH4NCHC2H3CSH2C2H7C2HSH2NH4CH2CH3SH5CH2CHC4H2CH2CH2FeH2CH2CFeHC2HCHCNC2H3CH4NH2C2HC2H8C2H3CH6SHCH2CNH3C2H3CH3SCHSH3CNCSH5CH2CH5CSH2C4H4CH5C2H2C2H4FeSH2SCHSFeSCHFeS2FeS2FeSFeS3CSHFeS2FeS2FeSFeS3FeS2FeS2FeSFeS3CH2CHCH3C4HC2H2C2H2C7H4C6H7C3H3C7H4CHC3HCH3NHCHC3H2CH2FeHC6H4C6H4CH4NCHC6H5CH15NC8H24CNC5HC2HCH4S2H17CHCHSNC8H20CH2CHCH4CH8CSHNH3C2HCH5C2FeCHCHCH2CNCHC2H5NH2CH4CHC2HC2H2CHC2HCFeC2H5CHCH4CHCH8CHCHSCH3SHFeS2FeS2FeHFeS3H2NFeS2FeS2FeS2C2FeS3FeS2FeS2FeSFeS4C3H3C6H4C6H4C7H3C6H4C7H5C6H4FeH4NC3HNH4CH11CH3NCH4C2HCHCHCH7C2H2CH2CH4CH5C4FeHCH3NHSCHCHC2H2CH4CH2SCHNC8H22CHSNH3CH2CH2SH7C2HCHC2H8CHCHCNH5CH6CH2C3H10CH2CHC2HFeC2HC2H3CH3NCH4C3H2FeH2CHC2H2CHCH2NC2H6C2HSCHC2H6CHCSFeHSCH4CH2S2CH2NSCFeS2FeS2FeCFeS3FeS2FeS2FeSFeS3HC4H3NH2C3SC2HCHC2HCHCHC6H4CH2C6H4C6H4C3H4FeCH6CH4C2SC3SHCHCHNC8H20NH4CHCSH3CH2CFeCH5C2H2CH12FeHCH2CSH3SH3CHCH2CNCH7CH6C3HS2CHFeHNC8H19CHCH5CH5CH2CHC2HCHCH2FeS2FeS2FeSFeS4CSFeS2FeS2FeSFeS3NH2FeS2FeC2HFeHS2HSHCSHFeS2FeCH2FeS2HC6H4C4H2CHC3H3CHC7H4C6H9C6H4C6H4C6H4CHSHCHNC8H24NH2CH5CH3CHFeHSH3CH4NCHC4HCHCH4C2H3C2H3CHCH3CH3C2H2CHSFeHCN2HC3H2CHCHC2SH5CH10CHCSH6FeCHFeCH5CH2CSCH3CH4FeHCH2CH3C2HCH5CH2C2HNSCSH3SC3H2CHCHCH2CH5NH9C2H4CH3CH4CH6SCHCHSHFeS2FeS2FeSFeSFeS2HCFeSFeS2FeHSC3SC6H4C3HSCNFeH2C6H4C4H2C4H4CN2SHCH6SC5HSCH2CH2SHSH2CHCHCH4CH5SH4CHCH2C2H2CH3FeHCH2NCH4CHNH7C2HCHCHC2H7C4H2C2NC8H24CFeHNC8H21C2H2C3H3CHC3H5SCHCH3C2H4SH3CH2SCH2C2HSFeHCHCHCSHCHFeCH7SHCHCFeSHFeS2FeSFeS3H2SCH2FeHSH2SFeC2HCFeSHSC6H6C2H6C2H5C4SCH3C6H2NHCH3CN2H3SC4H3CH4C2HC2H14CH3CHCH3CH2CSH3C2HSH5C2HCH2SHCH2C2HC2H5C3H2CH10NCH4CH4CHCSC2FeSCH3NHC4H5CH3CHFeH2S2FeSNCHFeC3FeS2FeS2FeSFeS3C2FeSHSFeS2FeS2FeSFeS3CHCH2CSH2FeS2FeS2FeSFeS3HSH2C2H6C4SCHCH2C6H7C6H4C2H3C6H4C2H5SHC6HCH2C6H4C2FeHC2HCH3C4H2CH2FeCH4C3H9SCSH2CHCH2CH5CH2C2H5NC8H20CHSCH2CH2CNHCH3CFeC2H6CH3CH6CH2C3FeH3N2H3NC8H21CH2CH2C3H6CHCH4CH2NCH2NHCHSHSHCHCHCNC8H5CH3CNC5HC2H3FeH7CHCHCH4CSCH2C3HCSCH5C3HC2HSHCHC2H4NHCH2CH5SH4C2HCHFeS2FeS2FeSFeS3CHSH3CHCFeSHFeS2FeSFeHS2FeS2CH2FeS2FeS2FeSFeCS2H4CH2CNH2SC6H4FeHC7H4FeC6H4CHC4H4C6H4C3H6CH3SH3CH2C2SHC2HCH2C2HCHCH4NH2NHCH2CH2CH5SHC2H3NC2H6C2H6CHSNCH5CSH3CH4C4HNC6SH2CH3CH8NC5HC2HCH19C2H3CH3SCH7CHCH2CH3CHC3H2CHCH6CHCH3CH3CHC2H2C2H3C2H3CH5CH4CH3CH5NH2C2HCH3NH2CH2CHS2CH3SH4SFeS2FeS2FeSFeS3FeS2FeS2NFeSHSHCH3C5HCH4C6H4CHC3H4C6H4FeCHCH2C4H3C6H3NHC7HCHC3H3C2HC3SCH7CH6CH4FeH4CHCHC2H3CH3C3H4FeH2CH2CSCHCH4C2HSH7C2H2C4H4CH4C2H9N2HNH3CH4CH2CFeHCNHC2HSH4SHNH2CH2CHSC4HCH2CH2CFeHCH13FeH3C3H2CHFeH2FeHSCHSH7CH2CH2FeS2FeSFeS2FeSFeHS2HCHSH2SH2SFeCHCH3C2HFeH2C6H3C6H8CHCH3C5H2SNC4HC3H7FeH2CH2CH6CSCH3NCHCHCH2CH3SH2CHCH4CH2CHC2SHNHCH2NH2CH4CSC2H2CSFeH3CHCHC3HNSCH2CH4CSH3FeC2SH3CHCSH3C3H9C2H3SH7CSHC2H2CHC2HC2FeS2CSCFeS2FeS2FeSFeS3FeSHCH3C2HCSFeS2FeS2FeS2FeSFeS3FeS2FeS2FeSFeS3H3C4H5SH4CH2C6H4C6H4C6H4C6H4C6H4C3H3CHC3H2CH2C4HCHC6H6NC8H13CH3CH2NC8H20NC2SC3H16SCHCHC3H2CH7CHCHFeH4CHSHCSH4CHCH3NC3H6CH3C2H5CH6NH4C2H2C3H5CH3CH5SHC3HC3NCHNC4H13CHCHNC2SH4SHCH6C2H2CH2CH2C2FeNCHFeH4CHSHCHC2HSHFe2HCH6CHSC2H6SH2C2SH5NH2CH2SCFeH3CFeSHFeS2FeSFeS3FeSCH2CHSHCFeSHFeS2FeS2FeSFeS3CSH2FeHC2H6C2HNC6H3C6H5SHCH2C2H2C6H4C6H6SHC3H2CHC2HCH2SH4CHCH7NC8H20NC8H22CH14CH2SCHCH2FeSH2NCHFeCHCH2CH2C3HSCH4CHCHC2H3NHC3H7CFeH3SCSH3CHSHCHCH2CHCNHFeS2FeS2FeSFeS2H3FeS2FeS2FeSFeS3FeS2FeS2FeSFeS3HNH3FeHSH3CH2CHC3HCHC2HC6H6CH4C6H4C3HC6H2CHC6H4C6H4C3NHCHSH2CHCH7C2H2CH2CNC7H13CH4C2HSC2H3CHC2H4CHCSCH6NC2HNH4CHCHCH3CH5CNCHCHCH2CH2CH2C2H2CHCH4SCHC4H4C2H2C4HNH3CH4SCH3C2H7CH3CH2CH2NC2H2SC2H7CH4SH5CH2NH3CH2CH6CFeCHSH2C3HCH4CH7CHSFeS2FeS2FeSFeS3FeHSC2SFeS2FeS2FeSFeS3FeS2FeS2FeSFeS3CSH2CH2CH2CHC6H4C6H2C2HCH2C6H4CH6C8H4C6H4C2H2FeCH4C6H4C6H4FeH3NHC2H9FeHCFeCH6FeHCHCH4SHCH3FeNC8H16CNC8H20CH3CH11SCSHC3H5CH4CHNC2HCHNHS2H3C2H3CH7CFeHCHSHCH3CH6CHNC8H3CH3CH2CNHCH2CH2SH3CH6CH2CHSH5CH3FeS2FeS2FeSFeS3HNCS2FeSC2H3CSHFeS2FeS2FeSFeHS2CH2CHC2H2CHC4H2CHNHCHC4H5C6H5CH2FeH2C6H4C6H4C6H6C2H2NH3CH3CHCHSH2CHCH4CHC2H6NC5HCH3C2H9CH2CHFeC2H2CH2CHCHSCHCHSH2NH2CHSHSHCH3CSHSCH6CHC2HC2HNC8H20C3HCH3CS2H2C4HCH4CHNH2CH2C2H4FeH4CH4C2HCHCNH3C2H2SCHNH2NH3C2HFeH2CH9CH2NCH4C2H3FeS2FeS2FeSFeS3FeS2HFeSHFeS2FeSFeS3CSCFeS2FeSFeS3CFeCH3CH5C6H8C7H4C6H4C6H4C6H4C6H3SC2HCHC2NCH2C2HCH3CHSC2H3NC2H2CHCH3C2HC2FeCHNC2HC3HCH18CHCH4CHSH5SC2NC8H20CH2CNCH5CH4CHCNC2HC3H5FeHCH2CHCH3C2HCH2FeCH2CSH2CHNCHSCH4CH2C2H6CH6CH5FeH2CH3SH3FeS2FeS2FeSFeS3HFeS2C2SH2SCH5FeS2FeS2FeSHFeSFeNS2H2CH2SHCHC2HSHFeCH2C3HCH2C5H4CSC6H4C6H4C7H4C6H4C6H5C2H4CH6CHCH3C2H2CH3SH6C3FeC2H4CH4SC2HC2H8C2H2C3H3SHSNC4H2C2H8CHFeCHCH6NC4HC3H24CHCNC3H2C2H4C2SHCHCFeHCH2NC2H2NHFeHCSNCSH2CH2SHSCH3CH3CHCHSNCHCH2NH2CHSHCNH8FeH2SH3FeHCH5CH3C2H3NCH2FeS2FeS2FeSFeS3FeS2HFeHSH2FeS2FeSHSCFeS2FeCSFeSH2S2FeS2FeS2FeSFeS3CSHFeS2FeHCHFeSHSH2CNH3C8H4C6H7C6H6CH3C2H3C7H4C6H4C6H4C6H6CH2C3H5CNC8H20NC8H21CHCH2CHCHNHNHCH7CSH3CHNC8H8SH4CH5CHCHNC8H22C2HCHCH2NHCH3CHCH2CH11FeHC3HCFeCHC3H2SC2H3CHSH2SH2CH3SHCHCH2C2H3C2HCH2CH3CH10NCH2C2HSC3HC2SH2C2H2CHCH2FeH5CNH4CH4CH3CHFeCH3C2HCH4CH3CHSH2CHFeSHFeS2FeSFeCS3HSH2CFeS2C3H2SHSCSHFeH2CHSC6H4SH2CH2C6H2SHC6H8CH4FeC3HCH3C2HCHCSH4CH2CNHC2H6CH3CH2FeH2CH3CHCHC2HNH4Fe2HCH3CFeH3NC2SHSCH3CHC5H7C2FeH6CSH2CH2CH3SHCHCHCNH5CH4C3HC2H4SH2SH3CHFeHNH2C2H3NC2HSH3CH2C3HCFeH3
_chemical_formula_sum              "Fe384 S768 H4608 C2688 N192"
_cell_length_a       85.2664
_cell_length_b       85.5907
_cell_length_c       85.7902
_cell_angle_alpha    74.6421
_cell_angle_beta     74.6566
_cell_angle_gamma    74.6961

_space_group_name_H-M_alt    "P 1"
_space_group_IT_number       1

loop_
  _space_group_symop_operation_xyz
  'x, y, z'

loop_
  _atom_site_type_symbol
  _atom_site_label
  _atom_site_symmetry_multiplicity
  _atom_site_fract_x
  _atom_site_fract_y
  _atom_site_fract_z
  _atom_site_occupancy
  Fe  Fe1       1.0  0.41461  0.26644  0.05995  1.0000
  S   S1        1.0  0.41598  0.28473  0.03576  1.0000
  S   S2        1.0  0.41591  0.23932  0.06317  1.0000
  H   H1        1.0  0.48261  0.25190  0.07495  1.0000
  Fe  Fe2       1.0  0.43279  0.29455  0.04528  1.0000
  S   S3        1.0  0.45740  0.30081  0.03145  1.0000
  H   H2        1.0  0.48925  0.26489  0.09519  1.0000
  S   S4        1.0  0.43346  0.27451  0.06803  1.0000
  C   C1        1.0  0.47253  0.24623  0.07443  1.0000
  C   C2        1.0  0.42459  0.24408  0.13782  1.0000
  Fe  Fe3       1.0  0.47895  0.28124  0.17137  1.0000
  S   S5        1.0  0.47050  0.25825  0.18827  1.0000
  C   C3        1.0  0.43053  0.99344  0.19139  1.0000
  Fe  Fe4       1.0  0.41075  0.19251  0.14874  1.0000
  S   S6        1.0  0.40738  0.18213  0.17589  1.0000
  S   S7        1.0  0.39065  0.21229  0.13898  1.0000
  Fe  Fe5       1.0  0.44616  0.17348  0.14188  1.0000
  S   S8        1.0  0.44549  0.16158  0.16857  1.0000
  S   S9        1.0  0.46961  0.16718  0.12330  1.0000
  Fe  Fe6       1.0  0.42035  0.15784  0.16846  1.0000
  S   S10       1.0  0.41115  0.13427  0.18244  1.0000
  Fe  Fe7       1.0  0.43274  0.18710  0.17292  1.0000
  S   S11       1.0  0.43751  0.19818  0.19201  1.0000
  S   S12       1.0  0.42196  0.16808  0.14129  1.0000
  S   S13       1.0  0.43504  0.19924  0.14627  1.0000
  C   C4        1.0  0.41143  0.25136  0.18885  1.0000
  H   H3        1.0  0.31688  0.01968  0.20778  1.0000
  H   H4        1.0  0.31416  0.02342  0.17189  1.0000
  S   S14       1.0  0.27881  0.29401  0.02368  1.0000
  H   H5        1.0  0.38848  0.99885  0.20224  1.0000
  C   C5        1.0  0.31746  0.01455  0.19701  1.0000
  H   H6        1.0  0.40910  0.22164  0.17336  1.0000
  Fe  Fe8       1.0  0.27427  0.28875  0.00097  1.0000
  S   S15       1.0  0.13666  0.30833  0.01179  1.0000
  Fe  Fe9       1.0  0.30606  0.28922  0.01182  1.0000
  S   S16       1.0  0.32788  0.27510  0.02388  1.0000
  H   H7        1.0  0.49274  0.20064  0.05523  1.0000
  Fe  Fe10      1.0  0.39538  0.30117  0.05011  1.0000
  Fe  Fe11      1.0  0.37645  0.06982  0.15860  1.0000
  S   S17       1.0  0.35255  0.06391  0.15737  1.0000
  S   S18       1.0  0.38588  0.09337  0.14524  1.0000
  Fe  Fe12      1.0  0.38704  0.03656  0.18071  1.0000
  S   S19       1.0  0.36420  0.02765  0.18207  1.0000
  S   S20       1.0  0.40908  0.02325  0.19223  1.0000
  Fe  Fe13      1.0  0.36754  0.03852  0.15486  1.0000
  S   S21       1.0  0.36497  0.02212  0.13930  1.0000
  Fe  Fe14      1.0  0.35073  0.05346  0.18451  1.0000
  S   S22       1.0  0.32602  0.05625  0.20196  1.0000
  S   S23       1.0  0.39175  0.04529  0.15323  1.0000
  S   S24       1.0  0.37323  0.06139  0.18603  1.0000
  S   S25       1.0  0.29158  0.01894  0.13900  1.0000
  H   H8        1.0  0.35909  0.27702  0.09449  1.0000
  S   S26       1.0  0.30172  0.28112  0.99068  1.0000
  C   C6        1.0  0.48363  0.17927  0.12238  1.0000
  Fe  Fe15      1.0  0.48695  0.31405  0.17362  1.0000
  C   C7        1.0  0.45038  0.22158  0.08670  1.0000
  H   H9        1.0  0.46451  0.32197  0.08454  1.0000
  H   H10       1.0  0.34147  0.22148  0.11516  1.0000
  C   C8        1.0  0.47173  0.28879  0.08900  1.0000
  C   C9        1.0  0.48912  0.20232  0.13001  1.0000
  C   C10       1.0  0.34456  0.02171  0.13870  1.0000
  C   C11       1.0  0.34087  0.00674  0.13855  1.0000
  C   C12       1.0  0.32467  0.00590  0.13857  1.0000
  C   C13       1.0  0.31215  0.02021  0.13792  1.0000
  C   C14       1.0  0.31603  0.03544  0.13697  1.0000
  C   C15       1.0  0.33208  0.03611  0.13789  1.0000
  H   H11       1.0  0.46854  0.28559  0.07860  1.0000
  H   H12       1.0  0.47802  0.27406  0.11279  1.0000
  C   C16       1.0  0.39664  0.27130  0.14811  1.0000
  H   H13       1.0  0.30659  0.04669  0.13574  1.0000
  C   C17       1.0  0.43601  0.15138  0.21887  1.0000
  H   H14       1.0  0.45224  0.21810  0.04035  1.0000
  C   C18       1.0  0.49639  0.25278  0.03049  1.0000
  C   C19       1.0  0.39147  0.24408  0.16336  1.0000
  H   H15       1.0  0.44377  0.21175  0.21568  1.0000
  H   H16       1.0  0.46854  0.03329  0.15616  1.0000
  H   H17       1.0  0.44075  0.12427  0.21968  1.0000
  H   H18       1.0  0.35248  0.05433  0.21809  1.0000
  H   H19       1.0  0.40449  0.99861  0.16257  1.0000
  H   H20       1.0  0.38706  0.26301  0.18382  1.0000
  C   C20       1.0  0.32896  0.04745  0.22208  1.0000
  H   H21       1.0  0.35123  0.99532  0.22352  1.0000
  H   H22       1.0  0.43916  0.16188  0.20852  1.0000
  H   H23       1.0  0.35173  0.23333  0.12258  1.0000
  H   H24       1.0  0.45513  0.20561  0.11050  1.0000
  H   H25       1.0  0.46772  0.26459  0.10348  1.0000
  C   C21       1.0  0.41387  0.00163  0.19453  1.0000
  C   C22       1.0  0.40136  0.99247  0.19988  1.0000
  C   C23       1.0  0.26468  0.02322  0.18930  1.0000
  C   C24       1.0  0.48993  0.30151  0.09726  1.0000
  C   C25       1.0  0.42032  0.24947  0.15449  1.0000
  C   C26       1.0  0.40318  0.12385  0.17192  1.0000
  C   C27       1.0  0.40682  0.12651  0.15465  1.0000
  C   C28       1.0  0.40114  0.11732  0.14666  1.0000
  C   C29       1.0  0.39182  0.10535  0.15582  1.0000
  C   C30       1.0  0.38794  0.10288  0.17309  1.0000
  C   C31       1.0  0.39364  0.11206  0.18109  1.0000
  H   H26       1.0  0.41426  0.13541  0.14741  1.0000
  H   H27       1.0  0.40416  0.11936  0.13331  1.0000
  H   H28       1.0  0.38055  0.09392  0.18029  1.0000
  H   H29       1.0  0.39069  0.10994  0.19444  1.0000
  C   C32       1.0  0.46144  0.24201  0.18765  1.0000
  C   C33       1.0  0.46022  0.23825  0.17306  1.0000
  C   C34       1.0  0.45349  0.22444  0.17390  1.0000
  C   C35       1.0  0.44729  0.21493  0.18934  1.0000
  C   C36       1.0  0.44840  0.21897  0.20371  1.0000
  C   C37       1.0  0.45554  0.23221  0.20287  1.0000
  H   H30       1.0  0.46455  0.24585  0.16124  1.0000
  H   H31       1.0  0.45297  0.22127  0.16267  1.0000
  N   N1        1.0  0.40222  0.25633  0.16091  1.0000
  C   C38       1.0  0.45552  0.21193  0.05254  1.0000
  C   C39       1.0  0.37895  0.28157  0.15301  1.0000
  N   N2        1.0  0.29113  0.03361  0.18723  1.0000
  H   H32       1.0  0.19200  0.27001  0.02851  1.0000
  C   C40       1.0  0.35994  0.30392  0.03613  1.0000
  C   C41       1.0  0.33429  0.30325  0.02894  1.0000
  C   C42       1.0  0.33999  0.28642  0.02860  1.0000
  C   C43       1.0  0.35576  0.27842  0.03193  1.0000
  C   C44       1.0  0.36568  0.28710  0.03577  1.0000
  H   H33       1.0  0.47700  0.31258  0.05024  1.0000
  H   H34       1.0  0.36039  0.26549  0.03139  1.0000
  H   H35       1.0  0.37786  0.28085  0.03823  1.0000
  C   C45       1.0  0.40977  0.23132  0.08430  1.0000
  C   C46       1.0  0.40627  0.24157  0.09557  1.0000
  C   C47       1.0  0.40014  0.23575  0.11232  1.0000
  C   C48       1.0  0.39846  0.21930  0.11804  1.0000
  C   C49       1.0  0.40290  0.20865  0.10698  1.0000
  C   C50       1.0  0.40826  0.21476  0.09001  1.0000
  H   H36       1.0  0.40836  0.25400  0.09148  1.0000
  H   H37       1.0  0.39685  0.24399  0.12081  1.0000
  H   H38       1.0  0.40173  0.19585  0.11146  1.0000
  H   H39       1.0  0.41122  0.20669  0.08137  1.0000
  C   C51       1.0  0.47263  0.28260  0.03010  1.0000
  H   H40       1.0  0.41134  0.23801  0.19171  1.0000
  Fe  Fe16      1.0  0.14469  0.30411  0.98576  1.0000
  H   H41       1.0  0.40279  0.27463  0.17400  1.0000
  H   H42       1.0  0.28836  0.07185  0.15898  1.0000
  C   C52       1.0  0.46885  0.26877  0.02731  1.0000
  H   H43       1.0  0.45977  0.29514  0.09574  1.0000
  H   H44       1.0  0.36128  0.21259  0.12061  1.0000
  C   C53       1.0  0.24100  0.27346  0.99191  1.0000
  H   H45       1.0  0.45666  0.26950  0.02527  1.0000
  C   C54       1.0  0.40016  0.26196  0.17676  1.0000
  H   H46       1.0  0.34067  0.30084  0.99433  1.0000
  C   C55       1.0  0.34427  0.31197  0.03260  1.0000
  S   S27       1.0  0.48703  0.28572  0.14372  1.0000
  N   N3        1.0  0.48399  0.30015  0.08267  1.0000
  H   H47       1.0  0.32197  0.99420  0.13876  1.0000
  C   C56       1.0  0.44398  0.30023  0.12862  1.0000
  C   C57       1.0  0.47416  0.19972  0.07913  1.0000
  S   S28       1.0  0.49509  0.32097  0.14600  1.0000
  C   C58       1.0  0.30983  0.02804  0.18362  1.0000
  H   H48       1.0  0.37656  0.99682  0.16403  1.0000
  H   H49       1.0  0.49061  0.22540  0.06706  1.0000
  H   H50       1.0  0.27380  0.03682  0.22876  1.0000
  H   H51       1.0  0.42446  0.25302  0.18398  1.0000
  C   C59       1.0  0.22479  0.25816  0.98432  1.0000
  H   H52       1.0  0.47812  0.24359  0.02421  1.0000
  H   H53       1.0  0.22918  0.30723  0.01095  1.0000
  H   H54       1.0  0.25319  0.31667  0.03980  1.0000
  Fe  Fe17      1.0  0.47314  0.31187  0.14459  1.0000
  H   H55       1.0  0.45593  0.23588  0.05557  1.0000
  C   C60       1.0  0.46389  0.22320  0.05762  1.0000
  H   H56       1.0  0.48554  0.21131  0.13776  1.0000
  H   H57       1.0  0.28884  0.04146  0.16160  1.0000
  H   H58       1.0  0.44340  0.15074  0.22804  1.0000
  C   C61       1.0  0.29485  0.06183  0.16773  1.0000
  H   H59       1.0  0.19023  0.28227  0.00810  1.0000
  H   H60       1.0  0.46405  0.19989  0.05111  1.0000
  H   H61       1.0  0.17529  0.28725  0.02617  1.0000
  H   H62       1.0  0.46903  0.19003  0.14303  1.0000
  H   H63       1.0  0.31602  0.03851  0.18169  1.0000
  C   C62       1.0  0.44349  0.13586  0.21123  1.0000
  H   H64       1.0  0.16762  0.30914  0.06174  1.0000
  C   C63       1.0  0.46737  0.31723  0.06041  1.0000
  C   C64       1.0  0.28638  0.04683  0.17268  1.0000
  H   H65       1.0  0.49173  0.29258  0.03376  1.0000
  H   H66       1.0  0.36530  0.27751  0.98979  1.0000
  H   H67       1.0  0.22223  0.24638  0.98448  1.0000
  H   H68       1.0  0.46530  0.19201  0.07957  1.0000
  H   H69       1.0  0.37733  0.28656  0.16414  1.0000
  C   C65       1.0  0.19993  0.29351  0.02289  1.0000
  H   H70       1.0  0.33493  0.04783  0.13748  1.0000
  C   C66       1.0  0.48094  0.25406  0.02689  1.0000
  H   H71       1.0  0.41558  0.19542  0.22890  1.0000
  H   H72       1.0  0.41488  0.06450  0.20949  1.0000
  C   C67       1.0  0.42534  0.30012  0.11140  1.0000
  H   H73       1.0  0.16911  0.23513  0.99707  1.0000
  C   C68       1.0  0.49114  0.19365  0.06818  1.0000
  H   H74       1.0  0.47619  0.19616  0.09191  1.0000
  H   H75       1.0  0.44217  0.21361  0.08634  1.0000
  H   H76       1.0  0.41248  0.13523  0.21741  1.0000
  H   H77       1.0  0.47940  0.30229  0.10814  1.0000
  H   H78       1.0  0.20495  0.28792  0.03432  1.0000
  H   H79       1.0  0.28951  0.01346  0.17729  1.0000
  C   C69       1.0  0.28506  0.04100  0.20249  1.0000
  H   H80       1.0  0.28619  0.00906  0.19897  1.0000
  H   H81       1.0  0.31194  0.00343  0.20095  1.0000
  C   C70       1.0  0.41134  0.17307  0.22462  1.0000
  H   H82       1.0  0.44383  0.20975  0.06137  1.0000
  C   C71       1.0  0.44491  0.31660  0.12076  1.0000
  H   H83       1.0  0.39689  0.26768  0.13649  1.0000
  H   H84       1.0  0.41239  0.17927  0.21131  1.0000
  Fe  Fe18      1.0  0.41189  0.29167  0.08016  1.0000
  H   H85       1.0  0.39022  0.21818  0.17208  1.0000
  H   H86       1.0  0.25783  0.03160  0.19788  1.0000
  H   H87       1.0  0.39037  0.22800  0.18817  1.0000
  S   S29       1.0  0.39276  0.28212  0.07366  1.0000
  H   H88       1.0  0.43383  0.17948  0.22772  1.0000
  H   H89       1.0  0.35731  0.00932  0.23165  1.0000
  H   H90       1.0  0.32210  0.30953  0.02659  1.0000
  H   H91       1.0  0.42257  0.25473  0.12737  1.0000
  H   H92       1.0  0.29448  0.04727  0.20364  1.0000
  H   H93       1.0  0.46914  0.25198  0.06228  1.0000
  C   C72       1.0  0.39567  0.22720  0.17505  1.0000
  H   H94       1.0  0.43805  0.22272  0.11201  1.0000
  H   H95       1.0  0.45862  0.22635  0.10721  1.0000
  H   H96       1.0  0.30589  0.03910  0.22992  1.0000
  H   H97       1.0  0.44361  0.23454  0.08286  1.0000
  H   H98       1.0  0.18963  0.30714  0.05653  1.0000
  N   N4        1.0  0.19239  0.31170  0.02163  1.0000
  H   H99       1.0  0.17663  0.31335  0.00495  1.0000
  C   C73       1.0  0.37216  0.30623  0.98978  1.0000
  C   C74       1.0  0.18866  0.28279  0.02125  1.0000
  H   H100      1.0  0.45247  0.03034  0.17409  1.0000
  H   H101      1.0  0.38250  0.29672  0.98464  1.0000
  C   C75       1.0  0.17905  0.30490  0.05281  1.0000
  H   H102      1.0  0.21115  0.29163  0.01293  1.0000
  H   H103      1.0  0.25997  0.01153  0.19374  1.0000
  H   H104      1.0  0.38435  0.14595  0.21528  1.0000
  C   C76       1.0  0.28067  0.02928  0.21936  1.0000
  H   H105      1.0  0.27275  0.05205  0.17514  1.0000
  S   S30       1.0  0.27214  0.31487  0.98651  1.0000
  H   H106      1.0  0.27180  0.02184  0.21952  1.0000
  C   C77       1.0  0.17724  0.31458  0.03524  1.0000
  H   H107      1.0  0.20911  0.31462  0.03517  1.0000
  H   H108      1.0  0.41130  0.15467  0.20364  1.0000
  H   H109      1.0  0.47570  0.22417  0.04845  1.0000
  C   C78       1.0  0.47962  0.19039  0.13288  1.0000
  H   H110      1.0  0.16633  0.31163  0.03273  1.0000
  H   H111      1.0  0.18026  0.29142  0.05409  1.0000
  H   H112      1.0  0.37832  0.24933  0.16861  1.0000
  S   S31       1.0  0.25650  0.27238  0.00271  1.0000
  H   H113      1.0  0.37681  0.29242  0.14271  1.0000
  H   H114      1.0  0.38982  0.31093  0.00131  1.0000
  H   H115      1.0  0.24355  0.24699  0.99875  1.0000
  H   H116      1.0  0.27393  0.05127  0.20158  1.0000
  H   H117      1.0  0.33088  0.01037  0.19185  1.0000
  H   H118      1.0  0.44026  0.00046  0.18730  1.0000
  H   H119      1.0  0.42530  0.23853  0.16332  1.0000
  H   H120      1.0  0.42792  0.25867  0.15328  1.0000
  H   H121      1.0  0.43801  0.23821  0.13517  1.0000
  N   N5        1.0  0.35347  0.24489  0.08667  1.0000
  C   C79       1.0  0.34049  0.23925  0.08173  1.0000
  C   C80       1.0  0.36287  0.23012  0.09703  1.0000
  C   C81       1.0  0.36561  0.25171  0.07179  1.0000
  C   C82       1.0  0.34490  0.25841  0.09614  1.0000
  C   C83       1.0  0.33102  0.25204  0.06914  1.0000
  C   C84       1.0  0.37451  0.24004  0.05972  1.0000
  C   C85       1.0  0.35628  0.26529  0.10285  1.0000
  H   H122      1.0  0.34604  0.22793  0.07648  1.0000
  H   H123      1.0  0.33089  0.23548  0.09276  1.0000
  H   H124      1.0  0.37471  0.23251  0.09790  1.0000
  H   H125      1.0  0.36676  0.21925  0.09104  1.0000
  H   H126      1.0  0.35945  0.26358  0.06474  1.0000
  H   H127      1.0  0.37562  0.25497  0.07563  1.0000
  H   H128      1.0  0.33839  0.26933  0.08817  1.0000
  H   H129      1.0  0.33472  0.25456  0.10650  1.0000
  H   H130      1.0  0.32379  0.26326  0.07386  1.0000
  H   H131      1.0  0.33935  0.25566  0.05713  1.0000
  H   H132      1.0  0.32192  0.24636  0.06655  1.0000
  H   H133      1.0  0.36576  0.23691  0.05408  1.0000
  H   H134      1.0  0.38216  0.22854  0.06572  1.0000
  H   H135      1.0  0.38320  0.24640  0.04944  1.0000
  H   H136      1.0  0.22481  0.31575  0.05681  1.0000
  H   H137      1.0  0.36824  0.25670  0.10439  1.0000
  H   H138      1.0  0.48288  0.22248  0.08857  1.0000
  C   C86       1.0  0.22111  0.31981  0.00975  1.0000
  C   C87       1.0  0.43416  0.29208  0.12400  1.0000
  C   C88       1.0  0.47724  0.27219  0.10073  1.0000
  N   N6        1.0  0.43570  0.06516  0.16879  1.0000
  C   C89       1.0  0.45303  0.05657  0.16179  1.0000
  C   C90       1.0  0.43536  0.08344  0.16565  1.0000
  C   C91       1.0  0.42310  0.06284  0.16062  1.0000
  C   C92       1.0  0.43144  0.05776  0.18699  1.0000
  C   C93       1.0  0.45532  0.03810  0.16153  1.0000
  C   C94       1.0  0.44398  0.08867  0.17655  1.0000
  C   C95       1.0  0.42631  0.06875  0.14163  1.0000
  C   C96       1.0  0.41426  0.06541  0.19650  1.0000
  H   H139      1.0  0.45759  0.06304  0.14891  1.0000
  H   H140      1.0  0.46197  0.05715  0.16889  1.0000
  H   H141      1.0  0.42245  0.09079  0.16699  1.0000
  H   H142      1.0  0.44126  0.08814  0.15258  1.0000
  H   H143      1.0  0.42195  0.04966  0.16373  1.0000
  H   H144      1.0  0.41044  0.06968  0.16551  1.0000
  H   H145      1.0  0.43141  0.04440  0.18901  1.0000
  H   H146      1.0  0.44116  0.05773  0.19348  1.0000
  H   H147      1.0  0.29440  0.06690  0.17851  1.0000
  C   C97       1.0  0.47888  0.22733  0.07651  1.0000
  N   N7        1.0  0.41754  0.15458  0.22639  1.0000
  H   H148      1.0  0.44384  0.10215  0.17223  1.0000
  H   H149      1.0  0.43719  0.08689  0.18963  1.0000
  H   H150      1.0  0.45713  0.08205  0.17572  1.0000
  H   H151      1.0  0.42562  0.08231  0.13785  1.0000
  H   H152      1.0  0.41641  0.06633  0.13696  1.0000
  H   H153      1.0  0.43830  0.06206  0.13535  1.0000
  H   H154      1.0  0.40470  0.05876  0.19651  1.0000
  H   H155      1.0  0.41004  0.07869  0.19146  1.0000
  H   H156      1.0  0.43909  0.13728  0.19975  1.0000
  H   H157      1.0  0.39075  0.24183  0.15139  1.0000
  H   H158      1.0  0.45642  0.23494  0.21419  1.0000
  C   C98       1.0  0.45090  0.21887  0.10507  1.0000
  H   H159      1.0  0.35045  0.99568  0.13848  1.0000
  H   H160      1.0  0.34992  0.26786  0.11527  1.0000
  C   C99       1.0  0.35356  0.22423  0.11482  1.0000
  H   H161      1.0  0.40714  0.25563  0.20072  1.0000
  H   H162      1.0  0.19735  0.31447  0.99496  1.0000
  H   H163      1.0  0.30797  0.05861  0.16111  1.0000
  S   S32       1.0  0.41206  0.28995  0.10693  1.0000
  Fe  Fe19      1.0  0.27852  0.31972  0.00827  1.0000
  N   N8        1.0  0.46686  0.21796  0.07500  1.0000
  H   H164      1.0  0.26184  0.02889  0.17685  1.0000
  H   H165      1.0  0.44782  0.03623  0.15366  1.0000
  H   H166      1.0  0.41759  0.23474  0.13819  1.0000
  C   C100      1.0  0.28362  0.01916  0.18829  1.0000
  S   S33       1.0  0.30584  0.31537  0.99816  1.0000
  H   H167      1.0  0.46183  0.24954  0.08443  1.0000
  H   H168      1.0  0.40528  0.27998  0.14468  1.0000
  H   H169      1.0  0.45074  0.29388  0.13832  1.0000
  H   H170      1.0  0.43363  0.27941  0.13002  1.0000
  H   H171      1.0  0.38354  0.16543  0.21944  1.0000
  H   H172      1.0  0.36924  0.27448  0.15473  1.0000
  H   H173      1.0  0.36604  0.29956  0.00190  1.0000
  C   C101      1.0  0.48855  0.28173  0.03230  1.0000
  C   C102      1.0  0.23699  0.25850  0.99232  1.0000
  C   C103      1.0  0.38016  0.31826  0.99419  1.0000
  C   C104      1.0  0.38923  0.15204  0.22242  1.0000
  H   H174      1.0  0.49228  0.18056  0.06764  1.0000
  S   S34       1.0  0.37231  0.31536  0.04026  1.0000
  H   H175      1.0  0.49124  0.23174  0.14905  1.0000
  C   C105      1.0  0.42652  0.31639  0.10332  1.0000
  S   S35       1.0  0.41242  0.31263  0.05788  1.0000
  C   C106      1.0  0.40835  0.14874  0.21696  1.0000
  H   H176      1.0  0.29173  0.02101  0.22364  1.0000
  H   H177      1.0  0.39792  0.17619  0.23043  1.0000
  H   H178      1.0  0.45723  0.13438  0.20762  1.0000
  C   C107      1.0  0.34331  0.04797  0.22677  1.0000
  C   C108      1.0  0.20503  0.32026  0.02329  1.0000
  S   S36       1.0  0.46365  0.30702  0.17210  1.0000
  H   H179      1.0  0.18139  0.31553  0.11212  1.0000
  C   C109      1.0  0.42016  0.18181  0.23237  1.0000
  H   H180      1.0  0.49363  0.28793  0.06176  1.0000
  C   C110      1.0  0.18726  0.31851  0.00522  1.0000
  C   C111      1.0  0.31702  0.03944  0.23345  1.0000
  H   H181      1.0  0.38550  0.01263  0.22835  1.0000
  Fe  Fe20      1.0  0.28814  0.99258  0.14873  1.0000
  H   H182      1.0  0.45727  0.31020  0.06425  1.0000
  C   C112      1.0  0.47484  0.31687  0.07503  1.0000
  H   H183      1.0  0.18546  0.22403  0.98388  1.0000
  C   C113      1.0  0.17514  0.23508  0.98390  1.0000
  Fe  Fe21      1.0  0.30091  0.06012  0.39303  1.0000
  S   S37       1.0  0.30362  0.08599  0.39146  1.0000
  S   S38       1.0  0.31252  0.04739  0.37128  1.0000
  Fe  Fe22      1.0  0.28333  0.05643  0.42927  1.0000
  S   S39       1.0  0.28391  0.08199  0.43084  1.0000
  S   S40       1.0  0.27371  0.03726  0.45068  1.0000
  Fe  Fe23      1.0  0.27736  0.08938  0.40582  1.0000
  S   S41       1.0  0.26057  0.11397  0.39937  1.0000
  Fe  Fe24      1.0  0.31004  0.07668  0.41647  1.0000
  S   S42       1.0  0.33138  0.08296  0.42282  1.0000
  S   S43       1.0  0.27393  0.06432  0.40561  1.0000
  S   S44       1.0  0.31013  0.05035  0.41677  1.0000
  H   H184      1.0  0.40103  0.15125  0.25043  1.0000
  S   S45       1.0  0.30161  0.18294  0.46771  1.0000
  S   S46       1.0  0.32928  0.14940  0.44350  1.0000
  H   H185      1.0  0.38725  0.17561  0.47773  1.0000
  H   H186      1.0  0.13134  0.20082  0.44602  1.0000
  C   C114      1.0  0.01645  0.13988  0.34990  1.0000
  H   H187      1.0  0.36706  0.00922  0.25388  1.0000
  S   S47       1.0  0.15725  0.17391  0.46048  1.0000
  H   H188      1.0  0.31197  0.08278  0.26626  1.0000
  Fe  Fe25      1.0  0.17608  0.13363  0.44434  1.0000
  S   S48       1.0  0.17458  0.15870  0.42762  1.0000
  S   S49       1.0  0.18629  0.11076  0.43388  1.0000
  Fe  Fe26      1.0  0.18338  0.16577  0.44681  1.0000
  S   S50       1.0  0.20136  0.18323  0.43893  1.0000
  Fe  Fe27      1.0  0.14872  0.16439  0.44264  1.0000
  S   S51       1.0  0.12899  0.17852  0.42778  1.0000
  S   S52       1.0  0.18717  0.14006  0.46224  1.0000
  S   S53       1.0  0.14969  0.13873  0.45812  1.0000
  Fe  Fe28      1.0  0.05877  0.15356  0.40225  1.0000
  S   S54       1.0  0.06455  0.14671  0.37742  1.0000
  S   S55       1.0  0.07560  0.14248  0.42077  1.0000
  Fe  Fe29      1.0  0.02548  0.17644  0.39656  1.0000
  S   S56       1.0  0.02856  0.17157  0.37141  1.0000
  C   C115      1.0  0.00978  0.20113  0.32550  1.0000
  Fe  Fe30      1.0  0.03763  0.14516  0.38289  1.0000
  S   S57       1.0  0.02921  0.12431  0.37811  1.0000
  Fe  Fe31      1.0  0.05497  0.17373  0.36815  1.0000
  S   S58       1.0  0.06650  0.18904  0.34445  1.0000
  S   S59       1.0  0.03249  0.14964  0.40864  1.0000
  S   S60       1.0  0.05130  0.18077  0.39249  1.0000
  H   H189      1.0  0.30712  0.04691  0.28220  1.0000
  N   N9        1.0  0.21335  0.06133  0.46956  1.0000
  H   H190      1.0  0.01920  0.22867  0.36631  1.0000
  C   C116      1.0  0.41422  0.14677  0.24457  1.0000
  Fe  Fe32      1.0  0.01702  0.29440  0.28583  1.0000
  C   C117      1.0  0.33381  0.03222  0.25411  1.0000
  H   H191      1.0  0.03878  0.21662  0.30986  1.0000
  H   H192      1.0  0.31056  0.02489  0.25773  1.0000
  H   H193      1.0  0.06292  0.17733  0.29840  1.0000
  C   C118      1.0  0.02374  0.11034  0.33877  1.0000
  Fe  Fe33      1.0  0.00797  0.26160  0.28591  1.0000
  H   H194      1.0  0.20427  0.03866  0.48144  1.0000
  H   H195      1.0  0.32817  0.06422  0.26666  1.0000
  S   S61       1.0  0.29023  0.02059  0.28904  1.0000
  S   S62       1.0  0.33672  0.02258  0.27411  1.0000
  H   H196      1.0  0.22566  0.09046  0.45066  1.0000
  H   H197      1.0  0.01200  0.21385  0.32023  1.0000
  H   H198      1.0  0.33187  0.06011  0.45993  1.0000
  C   C119      1.0  0.31470  0.06922  0.26727  1.0000
  Fe  Fe34      1.0  0.28785  0.00497  0.31465  1.0000
  S   S63       1.0  0.27362  0.01741  0.33611  1.0000
  H   H199      1.0  0.39317  0.19002  0.42105  1.0000
  H   H200      1.0  0.29513  0.10309  0.28302  1.0000
  S   S64       1.0  0.00374  0.19545  0.40638  1.0000
  C   C120      1.0  0.30381  0.06025  0.28269  1.0000
  H   H201      1.0  0.03162  0.16023  0.31404  1.0000
  H   H202      1.0  0.05771  0.15148  0.31844  1.0000
  C   C121      1.0  0.32004  0.05595  0.46227  1.0000
  H   H203      1.0  0.26602  0.05527  0.32267  1.0000
  C   C122      1.0  0.05370  0.20882  0.34350  1.0000
  C   C123      1.0  0.05642  0.22173  0.32979  1.0000
  C   C124      1.0  0.04533  0.23722  0.32913  1.0000
  C   C125      1.0  0.03187  0.23978  0.34237  1.0000
  C   C126      1.0  0.02948  0.22695  0.35607  1.0000
  C   C127      1.0  0.04020  0.21153  0.35653  1.0000
  H   H204      1.0  0.06690  0.21971  0.31967  1.0000
  H   H205      1.0  0.04740  0.24721  0.31859  1.0000
  H   H206      1.0  0.33838  0.04488  0.31982  1.0000
  H   H207      1.0  0.03786  0.20181  0.36711  1.0000
  C   C128      1.0  0.02471  0.12524  0.35890  1.0000
  H   H208      1.0  0.18772  0.04777  0.46343  1.0000
  C   C129      1.0  0.21805  0.09154  0.46309  1.0000
  H   H209      1.0  0.15452  0.19557  0.42687  1.0000
  H   H210      1.0  0.41398  0.12375  0.26280  1.0000
  H   H211      1.0  0.06718  0.30855  0.26577  1.0000
  H   H212      1.0  0.28691  0.01466  0.47734  1.0000
  C   C130      1.0  0.35403  0.99700  0.23482  1.0000
  C   C131      1.0  0.02619  0.18804  0.32550  1.0000
  H   H213      1.0  0.13089  0.23828  0.43368  1.0000
  H   H214      1.0  0.16728  0.23508  0.39992  1.0000
  C   C132      1.0  0.36267  0.17531  0.47380  1.0000
  C   C133      1.0  0.29221  0.05468  0.31262  1.0000
  C   C134      1.0  0.19966  0.06878  0.46001  1.0000
  C   C135      1.0  0.11317  0.16913  0.42678  1.0000
  C   C136      1.0  0.10974  0.15468  0.43803  1.0000
  C   C137      1.0  0.09765  0.14707  0.43644  1.0000
  C   C138      1.0  0.08897  0.15373  0.42355  1.0000
  C   C139      1.0  0.09211  0.16841  0.41253  1.0000
  C   C140      1.0  0.10414  0.17610  0.41419  1.0000
  H   H215      1.0  0.11640  0.14933  0.44795  1.0000
  H   H216      1.0  0.09518  0.13580  0.44509  1.0000
  H   H217      1.0  0.08554  0.17364  0.40252  1.0000
  H   H218      1.0  0.10663  0.18732  0.40547  1.0000
  C   C141      1.0  0.13440  0.22558  0.43105  1.0000
  H   H219      1.0  0.04232  0.19704  0.28315  1.0000
  C   C142      1.0  0.22453  0.16880  0.45922  1.0000
  C   C143      1.0  0.21662  0.18317  0.44958  1.0000
  C   C144      1.0  0.22123  0.19816  0.44784  1.0000
  H   H220      1.0  0.18783  0.21986  0.41534  1.0000
  C   C145      1.0  0.02813  0.11050  0.35335  1.0000
  H   H221      1.0  0.22125  0.15711  0.46039  1.0000
  H   H222      1.0  0.21547  0.20930  0.44025  1.0000
  C   C146      1.0  0.03190  0.17143  0.30390  1.0000
  C   C147      1.0  0.30130  0.03811  0.36286  1.0000
  C   C148      1.0  0.31019  0.02768  0.35186  1.0000
  C   C149      1.0  0.30185  0.02100  0.34390  1.0000
  C   C150      1.0  0.28447  0.02458  0.34692  1.0000
  C   C151      1.0  0.27553  0.03476  0.35817  1.0000
  C   C152      1.0  0.28390  0.04152  0.36610  1.0000
  H   H223      1.0  0.32364  0.02488  0.34936  1.0000
  H   H224      1.0  0.30891  0.01316  0.33538  1.0000
  H   H225      1.0  0.26209  0.03762  0.36058  1.0000
  H   H226      1.0  0.27691  0.04956  0.37452  1.0000
  C   C153      1.0  0.23974  0.11307  0.40792  1.0000
  C   C154      1.0  0.23362  0.09914  0.40882  1.0000
  C   C155      1.0  0.21688  0.09871  0.41612  1.0000
  C   C156      1.0  0.20662  0.11182  0.42320  1.0000
  C   C157      1.0  0.21280  0.12568  0.42223  1.0000
  C   C158      1.0  0.22919  0.12647  0.41423  1.0000
  H   H227      1.0  0.24168  0.08887  0.40363  1.0000
  H   H228      1.0  0.21199  0.08814  0.41650  1.0000
  H   H229      1.0  0.20506  0.13582  0.42770  1.0000
  H   H230      1.0  0.23376  0.13732  0.41330  1.0000
  C   C159      1.0  0.32971  0.10196  0.42809  1.0000
  C   C160      1.0  0.31492  0.11010  0.43698  1.0000
  C   C161      1.0  0.31477  0.12428  0.44254  1.0000
  C   C162      1.0  0.32911  0.13088  0.43828  1.0000
  C   C163      1.0  0.34365  0.12299  0.42895  1.0000
  C   C164      1.0  0.34406  0.10840  0.42425  1.0000
  H   H231      1.0  0.30382  0.10517  0.43995  1.0000
  H   H232      1.0  0.30359  0.13022  0.44988  1.0000
  H   H233      1.0  0.35477  0.12802  0.42556  1.0000
  H   H234      1.0  0.35553  0.10214  0.41745  1.0000
  H   H235      1.0  0.31798  0.05500  0.32836  1.0000
  H   H236      1.0  0.29090  0.06424  0.28076  1.0000
  C   C165      1.0  0.01505  0.17564  0.29873  1.0000
  C   C166      1.0  0.27308  0.03948  0.47058  1.0000
  H   H237      1.0  0.99882  0.24865  0.37636  1.0000
  H   H238      1.0  0.04146  0.16731  0.29328  1.0000
  H   H239      1.0  0.25896  0.06455  0.46755  1.0000
  H   H240      1.0  0.22631  0.04000  0.45841  1.0000
  H   H241      1.0  0.24343  0.99562  0.25535  1.0000
  H   H242      1.0  0.34242  0.99696  0.24442  1.0000
  H   H243      1.0  0.01400  0.18634  0.28818  1.0000
  H   H244      1.0  0.32215  0.03857  0.30461  1.0000
  C   C167      1.0  0.27382  0.06315  0.31295  1.0000
  C   C168      1.0  0.99729  0.22665  0.25658  1.0000
  S   S65       1.0  0.31496  0.99330  0.31179  1.0000
  N   N10       1.0  0.27281  0.15203  0.41816  1.0000
  C   C169      1.0  0.29042  0.15018  0.40811  1.0000
  C   C170      1.0  0.27011  0.16552  0.42751  1.0000
  C   C171      1.0  0.26118  0.15720  0.40625  1.0000
  C   C172      1.0  0.27103  0.13543  0.42935  1.0000
  C   C173      1.0  0.29557  0.13752  0.39678  1.0000
  C   C174      1.0  0.28057  0.16179  0.44068  1.0000
  C   C175      1.0  0.24325  0.16641  0.41233  1.0000
  C   C176      1.0  0.25491  0.13462  0.44256  1.0000
  H   H245      1.0  0.29269  0.16232  0.40016  1.0000
  H   H246      1.0  0.29961  0.14616  0.41622  1.0000
  H   H247      1.0  0.25704  0.16874  0.43411  1.0000
  H   H248      1.0  0.27253  0.17725  0.41874  1.0000
  H   H249      1.0  0.26621  0.16563  0.39473  1.0000
  H   H250      1.0  0.26017  0.14631  0.40212  1.0000
  H   H251      1.0  0.27182  0.12623  0.42198  1.0000
  H   H252      1.0  0.28164  0.12994  0.43566  1.0000
  H   H253      1.0  0.30831  0.13808  0.38933  1.0000
  H   H254      1.0  0.29617  0.12460  0.40400  1.0000
  H   H255      1.0  0.28730  0.14014  0.38795  1.0000
  H   H256      1.0  0.29404  0.16074  0.43526  1.0000
  H   H257      1.0  0.27677  0.17223  0.44723  1.0000
  H   H258      1.0  0.27827  0.15054  0.45013  1.0000
  H   H259      1.0  0.23711  0.15994  0.42445  1.0000
  H   H260      1.0  0.23560  0.16740  0.40332  1.0000
  H   H261      1.0  0.24293  0.17928  0.41300  1.0000
  H   H262      1.0  0.24501  0.13271  0.43752  1.0000
  H   H263      1.0  0.25040  0.14556  0.44813  1.0000
  H   H264      1.0  0.25741  0.12408  0.45301  1.0000
  H   H265      1.0  0.31865  0.05455  0.45022  1.0000
  C   C177      1.0  0.30398  0.08002  0.29976  1.0000
  H   H266      1.0  0.37488  0.19530  0.44691  1.0000
  H   H267      1.0  0.08500  0.31399  0.28035  1.0000
  H   H268      1.0  0.24275  0.15856  0.47481  1.0000
  H   H269      1.0  0.31589  0.08391  0.29299  1.0000
  H   H270      1.0  0.02685  0.09891  0.33442  1.0000
  C   C178      1.0  0.23638  0.06087  0.44271  1.0000
  H   H271      1.0  0.28222  0.08850  0.28718  1.0000
  C   C179      1.0  0.28985  0.09325  0.29272  1.0000
  C   C180      1.0  0.23676  0.16962  0.46730  1.0000
  C   C181      1.0  0.36582  0.14082  0.46877  1.0000
  H   H272      1.0  0.05887  0.18791  0.31469  1.0000
  C   C182      1.0  0.19399  0.05661  0.45334  1.0000
  H   H273      1.0  0.02275  0.20585  0.29403  1.0000
  C   C183      1.0  0.26986  0.99388  0.24756  1.0000
  H   H274      1.0  0.05688  0.21107  0.29420  1.0000
  H   H275      1.0  0.17420  0.21067  0.39298  1.0000
  Fe  Fe35      1.0  0.31698  0.00767  0.28575  1.0000
  C   C184      1.0  0.22853  0.05174  0.45985  1.0000
  H   H276      1.0  0.30256  0.08112  0.31276  1.0000
  H   H277      1.0  0.24512  0.06802  0.44363  1.0000
  H   H278      1.0  0.22719  0.06894  0.43562  1.0000
  H   H279      1.0  0.24345  0.05162  0.43506  1.0000
  C   C185      1.0  0.41773  0.12773  0.24917  1.0000
  C   C186      1.0  0.03575  0.20023  0.29534  1.0000
  C   C187      1.0  0.01120  0.13952  0.33572  1.0000
  H   H280      1.0  0.00354  0.23335  0.24506  1.0000
  H   H281      1.0  0.39929  0.01114  0.24166  1.0000
  H   H282      1.0  0.03436  0.09913  0.36028  1.0000
  C   C188      1.0  0.16348  0.22074  0.43323  1.0000
  H   H283      1.0  0.37861  0.15070  0.44475  1.0000
  C   C189      1.0  0.30489  0.06863  0.46905  1.0000
  C   C190      1.0  0.34561  0.04059  0.24289  1.0000
  H   H284      1.0  0.23862  0.04728  0.46686  1.0000
  H   H285      1.0  0.12976  0.24403  0.40027  1.0000
  H   H286      1.0  0.41727  0.17836  0.24606  1.0000
  H   H287      1.0  0.33899  0.19886  0.45743  1.0000
  H   H288      1.0  0.03912  0.22574  0.28849  1.0000
  C   C191      1.0  0.35221  0.17522  0.44988  1.0000
  S   S66       1.0  0.25293  0.18769  0.47861  1.0000
  H   H289      1.0  0.26994  0.06436  0.30129  1.0000
  C   C192      1.0  0.39148  0.00439  0.23850  1.0000
  C   C193      1.0  0.15432  0.23656  0.40724  1.0000
  C   C194      1.0  0.34341  0.19362  0.44615  1.0000
  H   H290      1.0  0.20441  0.04984  0.44518  1.0000
  S   S67       1.0  0.26983  0.00491  0.26238  1.0000
  C   C195      1.0  0.00067  0.24159  0.40173  1.0000
  H   H291      1.0  0.42180  0.15059  0.25109  1.0000
  C   C196      1.0  0.23281  0.19908  0.45633  1.0000
  S   S68       1.0  0.01041  0.12392  0.31138  1.0000
  H   H292      1.0  0.35659  0.04121  0.24657  1.0000
  H   H293      1.0  0.14472  0.22898  0.38936  1.0000
  H   H294      1.0  0.29408  0.05421  0.32506  1.0000
  C   C197      1.0  0.32766  0.05498  0.31687  1.0000
  H   H295      1.0  0.16615  0.20785  0.44061  1.0000
  H   H296      1.0  0.35128  0.20137  0.43651  1.0000
  S   S69       1.0  0.02913  0.26753  0.29297  1.0000
  H   H297      1.0  0.13749  0.21310  0.45669  1.0000
  N   N11       1.0  0.14163  0.12378  0.40613  1.0000
  C   C198      1.0  0.13430  0.11356  0.42242  1.0000
  C   C199      1.0  0.12743  0.13321  0.39769  1.0000
  C   C200      1.0  0.14940  0.13586  0.41000  1.0000
  C   C201      1.0  0.15453  0.11227  0.39621  1.0000
  C   C202      1.0  0.14635  0.10441  0.43412  1.0000
  C   C203      1.0  0.11651  0.12263  0.39525  1.0000
  C   C204      1.0  0.15589  0.14909  0.39541  1.0000
  C   C205      1.0  0.15860  0.11847  0.37722  1.0000
  H   H298      1.0  0.12370  0.12141  0.42947  1.0000
  H   H299      1.0  0.12904  0.10383  0.42043  1.0000
  H   H300      1.0  0.13164  0.14073  0.38536  1.0000
  H   H301      1.0  0.11908  0.14244  0.40480  1.0000
  H   H302      1.0  0.14040  0.14258  0.41927  1.0000
  H   H303      1.0  0.16022  0.12927  0.41580  1.0000
  H   H304      1.0  0.16644  0.10881  0.40058  1.0000
  H   H305      1.0  0.15039  0.10044  0.39826  1.0000
  H   H306      1.0  0.14014  0.09574  0.44453  1.0000
  H   H307      1.0  0.15790  0.09701  0.42790  1.0000
  H   H308      1.0  0.14948  0.11316  0.43974  1.0000
  H   H309      1.0  0.12400  0.11190  0.38983  1.0000
  H   H310      1.0  0.10812  0.11831  0.40707  1.0000
  H   H311      1.0  0.10826  0.13042  0.38675  1.0000
  H   H312      1.0  0.14626  0.15669  0.38845  1.0000
  H   H313      1.0  0.16716  0.14351  0.38716  1.0000
  H   H314      1.0  0.15975  0.15789  0.40037  1.0000
  H   H315      1.0  0.17191  0.11330  0.37244  1.0000
  H   H316      1.0  0.15680  0.13203  0.37285  1.0000
  H   H317      1.0  0.15147  0.11349  0.37123  1.0000
  C   C206      1.0  0.24066  0.18491  0.46614  1.0000
  C   C207      1.0  0.17210  0.20121  0.40451  1.0000
  H   H318      1.0  0.14540  0.20630  0.40973  1.0000
  H   H319      1.0  0.17219  0.18974  0.40070  1.0000
  H   H320      1.0  0.05019  0.16231  0.33542  1.0000
  H   H321      1.0  0.14651  0.25011  0.38433  1.0000
  H   H322      1.0  0.01385  0.16487  0.29450  1.0000
  H   H323      1.0  0.33220  0.19456  0.44138  1.0000
  H   H324      1.0  0.12565  0.22520  0.42361  1.0000
  N   N12       1.0  0.03667  0.18488  0.30895  1.0000
  H   H325      1.0  0.00450  0.17735  0.30927  1.0000
  H   H326      1.0  0.11679  0.21763  0.45348  1.0000
  H   H327      1.0  0.18254  0.19823  0.41091  1.0000
  H   H328      1.0  0.27074  0.07523  0.31663  1.0000
  C   C208      1.0  0.05459  0.17875  0.31060  1.0000
  H   H329      1.0  0.22345  0.09923  0.46801  1.0000
  H   H330      1.0  0.41044  0.12241  0.24370  1.0000
  H   H331      1.0  0.33200  0.06681  0.31343  1.0000
  C   C209      1.0  0.32190  0.05210  0.30239  1.0000
  C   C210      1.0  0.37591  0.15354  0.45724  1.0000
  H   H332      1.0  0.38501  0.14673  0.23568  1.0000
  H   H333      1.0  0.18777  0.22257  0.43523  1.0000
  H   H334      1.0  0.29346  0.04155  0.31199  1.0000
  H   H335      1.0  0.39155  0.17846  0.45065  1.0000
  H   H336      1.0  0.33206  0.05433  0.29146  1.0000
  N   N13       1.0  0.30516  0.06229  0.29921  1.0000
  C   C211      1.0  0.05842  0.16219  0.32302  1.0000
  H   H337      1.0  0.28133  0.09942  0.30261  1.0000
  N   N14       1.0  0.15223  0.22214  0.42167  1.0000
  C   C212      1.0  0.14307  0.23988  0.39477  1.0000
  H   H338      1.0  0.23556  0.21097  0.45545  1.0000
  C   C213      1.0  0.31962  0.03152  0.24930  1.0000
  H   H339      1.0  0.20526  0.09848  0.46200  1.0000
  H   H340      1.0  0.18471  0.06381  0.44572  1.0000
  H   H341      1.0  0.17859  0.23964  0.42109  1.0000
  H   H342      1.0  0.03334  0.19220  0.33226  1.0000
  H   H343      1.0  0.37411  0.18482  0.42155  1.0000
  Fe  Fe36      1.0  0.31265  0.15625  0.46694  1.0000
  C   C214      1.0  0.13006  0.21350  0.44771  1.0000
  H   H344      1.0  0.36234  0.14222  0.48179  1.0000
  Fe  Fe37      1.0  0.01133  0.26880  0.31728  1.0000
  S   S70       1.0  0.01766  0.25873  0.34209  1.0000
  H   H345      1.0  0.34270  0.16866  0.45870  1.0000
  S   S71       1.0  0.01204  0.24218  0.27081  1.0000
  Fe  Fe38      1.0  0.16046  0.14758  0.47463  1.0000
  Fe  Fe39      1.0  0.28665  0.99923  0.28064  1.0000
  N   N15       1.0  0.36765  0.17151  0.45675  1.0000
  H   H346      1.0  0.39204  0.16874  0.42578  1.0000
  H   H347      1.0  0.32063  0.09042  0.46717  1.0000
  C   C215      1.0  0.37977  0.18205  0.44610  1.0000
  H   H348      1.0  0.29283  0.10724  0.47153  1.0000
  H   H349      1.0  0.15725  0.22865  0.44249  1.0000
  H   H350      1.0  0.30357  0.07946  0.45861  1.0000
  H   H351      1.0  0.20318  0.07852  0.44918  1.0000
  C   C216      1.0  0.07389  0.31876  0.25932  1.0000
  H   H352      1.0  0.35479  0.17035  0.43843  1.0000
  C   C217      1.0  0.99859  0.22922  0.27158  1.0000
  H   H353      1.0  0.18850  0.07533  0.46773  1.0000
  H   H354      1.0  0.01371  0.15129  0.35416  1.0000
  H   H355      1.0  0.00297  0.20099  0.33850  1.0000
  C   C218      1.0  0.04309  0.21410  0.29726  1.0000
  H   H356      1.0  0.15199  0.24818  0.41181  1.0000
  C   C219      1.0  0.15529  0.20611  0.41608  1.0000
  H   H357      1.0  0.07136  0.16011  0.32469  1.0000
  H   H358      1.0  0.31204  0.06716  0.25604  1.0000
  C   C220      1.0  0.38487  0.18119  0.42763  1.0000
  C   C221      1.0  0.18033  0.22600  0.42552  1.0000
  C   C222      1.0  0.26424  0.05398  0.47610  1.0000
  C   C223      1.0  0.01507  0.12474  0.33000  1.0000
  H   H359      1.0  0.02300  0.17635  0.33369  1.0000
  H   H360      1.0  0.11180  0.31987  0.26307  1.0000
  H   H361      1.0  0.33192  0.07391  0.47986  1.0000
  H   H362      1.0  0.02778  0.31398  0.30640  1.0000
  C   C224      1.0  0.31977  0.08286  0.47999  1.0000
  H   H363      1.0  0.27921  0.09640  0.46741  1.0000
  H   H364      1.0  0.00144  0.19875  0.31894  1.0000
  H   H365      1.0  0.37351  0.12814  0.46864  1.0000
  Fe  Fe40      1.0  0.27867  0.17373  0.48290  1.0000
  S   S72       1.0  0.02955  0.31576  0.27152  1.0000
  S   S73       1.0  0.00069  0.29586  0.31074  1.0000
  H   H366      1.0  0.32073  0.04348  0.47049  1.0000
  H   H367      1.0  0.22997  0.07024  0.47883  1.0000
  H   H368      1.0  0.35197  0.16969  0.48139  1.0000
  H   H369      1.0  0.35818  0.18887  0.47306  1.0000
  H   H370      1.0  0.38822  0.15066  0.46069  1.0000
  H   H371      1.0  0.38231  0.99941  0.26510  1.0000
  C   C225      1.0  0.21770  0.07467  0.47523  1.0000
  H   H372      1.0  0.35453  0.14136  0.46439  1.0000
  H   H373      1.0  0.00445  0.15067  0.32906  1.0000
  H   H374      1.0  0.43116  0.12235  0.24581  1.0000
  H   H375      1.0  0.01427  0.23758  0.39717  1.0000
  C   C226      1.0  0.37828  0.99908  0.25393  1.0000
  H   H376      1.0  0.18932  0.16842  0.48107  1.0000
  H   H377      1.0  0.08480  0.31350  0.25053  1.0000
  H   H378      1.0  0.99787  0.15366  0.40848  1.0000
  H   H379      1.0  0.29375  0.06326  0.47130  1.0000
  H   H380      1.0  0.99846  0.25367  0.40522  1.0000
  S   S74       1.0  0.28927  0.14742  0.48042  1.0000
  C   C227      1.0  0.28312  0.09983  0.47719  1.0000
  S   S75       1.0  0.99784  0.28847  0.27596  1.0000
  H   H381      1.0  0.34913  0.99120  0.26874  1.0000
  H   H382      1.0  0.29597  0.99090  0.23625  1.0000
  H   H383      1.0  0.27209  0.10790  0.48345  1.0000
  C   C228      1.0  0.25456  0.99151  0.24662  1.0000
  C   C229      1.0  0.28015  0.02591  0.48157  1.0000
  H   H384      1.0  0.99707  0.23205  0.41284  1.0000
  H   H385      1.0  0.40014  0.99370  0.23378  1.0000
  H   H386      1.0  0.31406  0.10799  0.48486  1.0000
  Fe  Fe41      1.0  0.41797  0.22477  0.54473  1.0000
  S   S76       1.0  0.40903  0.23707  0.56639  1.0000
  S   S77       1.0  0.44552  0.22134  0.53317  1.0000
  Fe  Fe42      1.0  0.38411  0.21574  0.54809  1.0000
  S   S78       1.0  0.37307  0.22740  0.57039  1.0000
  S   S79       1.0  0.36790  0.20075  0.54274  1.0000
  Fe  Fe43      1.0  0.38610  0.24805  0.55620  1.0000
  S   S80       1.0  0.37145  0.27405  0.55688  1.0000
  Fe  Fe44      1.0  0.39695  0.21549  0.57874  1.0000
  S   S81       1.0  0.39870  0.20590  0.60545  1.0000
  S   S82       1.0  0.39568  0.23751  0.53313  1.0000
  S   S83       1.0  0.40730  0.20212  0.55780  1.0000
  H   H387      1.0  0.44867  0.29742  0.55637  1.0000
  H   H388      1.0  0.27278  0.00866  0.54763  1.0000
  S   S84       1.0  0.47978  0.21443  0.66333  1.0000
  H   H389      1.0  0.22097  0.05121  0.50231  1.0000
  Fe  Fe45      1.0  0.48417  0.17352  0.62844  1.0000
  S   S85       1.0  0.47401  0.17396  0.60679  1.0000
  S   S86       1.0  0.47030  0.17521  0.65422  1.0000
  C   C230      1.0  0.37013  0.31466  0.57301  1.0000
  N   N16       1.0  0.33151  0.25362  0.54230  1.0000
  H   H390      1.0  0.44554  0.20867  0.72191  1.0000
  H   H391      1.0  0.48676  0.17081  0.55553  1.0000
  S   S87       1.0  0.38979  0.30794  0.63791  1.0000
  H   H392      1.0  0.38939  0.26783  0.61130  1.0000
  Fe  Fe46      1.0  0.41429  0.28980  0.63715  1.0000
  S   S88       1.0  0.41409  0.26249  0.64433  1.0000
  S   S89       1.0  0.42412  0.29883  0.61019  1.0000
  Fe  Fe47      1.0  0.24238  0.05437  0.53649  1.0000
  S   S90       1.0  0.22702  0.07758  0.52442  1.0000
  S   S91       1.0  0.26749  0.04167  0.52436  1.0000
  Fe  Fe48      1.0  0.21739  0.05197  0.56931  1.0000
  S   S92       1.0  0.19978  0.07522  0.56024  1.0000
  S   S93       1.0  0.21451  0.03743  0.59557  1.0000
  Fe  Fe49      1.0  0.20558  0.06517  0.53723  1.0000
  S   S94       1.0  0.18715  0.06582  0.52263  1.0000
  Fe  Fe50      1.0  0.22280  0.08551  0.54833  1.0000
  S   S95       1.0  0.22428  0.11148  0.54769  1.0000
  S   S96       1.0  0.22132  0.04100  0.54722  1.0000
  S   S97       1.0  0.23993  0.06317  0.55953  1.0000
  S   S98       1.0  0.48546  0.27126  0.54057  1.0000
  S   S99       1.0  0.28651  0.17092  0.50689  1.0000
  S   S100      1.0  0.29838  0.12101  0.52117  1.0000
  H   H393      1.0  0.09553  0.00267  0.72919  1.0000
  H   H394      1.0  0.43951  0.13918  0.59297  1.0000
  H   H395      1.0  0.07237  0.09647  0.72665  1.0000
  H   H396      1.0  0.22974  0.00587  0.57071  1.0000
  C   C231      1.0  0.21819  0.04170  0.49741  1.0000
  Fe  Fe51      1.0  0.31066  0.17778  0.49146  1.0000
  H   H397      1.0  0.25461  0.06558  0.49719  1.0000
  H   H398      1.0  0.29466  0.06675  0.52029  1.0000
  H   H399      1.0  0.01530  0.02665  0.72663  1.0000
  S   S101      1.0  0.06472  0.04553  0.71736  1.0000
  C   C232      1.0  0.11973  0.02792  0.69637  1.0000
  C   C233      1.0  0.11485  0.03337  0.71128  1.0000
  C   C234      1.0  0.09792  0.03881  0.71783  1.0000
  C   C235      1.0  0.08597  0.03974  0.70896  1.0000
  C   C236      1.0  0.09100  0.03543  0.69348  1.0000
  C   C237      1.0  0.10780  0.02909  0.68742  1.0000
  H   H400      1.0  0.05443  0.10124  0.70693  1.0000
  C   C238      1.0  0.04141  0.10394  0.71398  1.0000
  H   H401      1.0  0.08187  0.03649  0.68639  1.0000
  H   H402      1.0  0.18640  0.99585  0.63519  1.0000
  C   C239      1.0  0.20149  0.02320  0.60125  1.0000
  H   H403      1.0  0.49637  0.23844  0.53272  1.0000
  H   H404      1.0  0.43848  0.16760  0.71067  1.0000
  H   H405      1.0  0.47117  0.20851  0.58415  1.0000
  H   H406      1.0  0.09412  0.04230  0.72972  1.0000
  C   C240      1.0  0.19931  0.01372  0.61740  1.0000
  C   C241      1.0  0.46799  0.22882  0.60612  1.0000
  H   H407      1.0  0.19772  0.13978  0.49483  1.0000
  C   C242      1.0  0.30722  0.06023  0.51499  1.0000
  H   H408      1.0  0.20603  0.01493  0.62594  1.0000
  C   C243      1.0  0.16126  0.11971  0.50846  1.0000
  C   C244      1.0  0.16242  0.11272  0.52494  1.0000
  C   C245      1.0  0.17035  0.09610  0.52939  1.0000
  C   C246      1.0  0.17623  0.08624  0.51756  1.0000
  C   C247      1.0  0.17401  0.09293  0.50137  1.0000
  H   H409      1.0  0.31873  0.23355  0.54700  1.0000
  H   H410      1.0  0.15772  0.12028  0.53414  1.0000
  H   H411      1.0  0.17176  0.09088  0.54199  1.0000
  H   H412      1.0  0.34131  0.22132  0.56276  1.0000
  C   C248      1.0  0.24490  0.11416  0.54030  1.0000
  C   C249      1.0  0.25786  0.10064  0.53733  1.0000
  C   C250      1.0  0.27433  0.10274  0.53191  1.0000
  C   C251      1.0  0.27781  0.11850  0.52858  1.0000
  C   C252      1.0  0.26483  0.13214  0.53103  1.0000
  C   C253      1.0  0.24844  0.12990  0.53726  1.0000
  H   H413      1.0  0.25529  0.08852  0.53937  1.0000
  H   H414      1.0  0.28436  0.09219  0.53018  1.0000
  H   H415      1.0  0.26750  0.14433  0.52862  1.0000
  H   H416      1.0  0.23860  0.14036  0.53985  1.0000
  H   H417      1.0  0.22997  0.03377  0.49225  1.0000
  H   H418      1.0  0.31437  0.26560  0.50747  1.0000
  C   C254      1.0  0.46141  0.22773  0.65826  1.0000
  C   C255      1.0  0.45832  0.24456  0.65863  1.0000
  C   C256      1.0  0.44390  0.25540  0.65418  1.0000
  C   C257      1.0  0.43228  0.24931  0.64990  1.0000
  C   C258      1.0  0.43524  0.23243  0.64980  1.0000
  C   C259      1.0  0.44991  0.22173  0.65366  1.0000
  H   H419      1.0  0.46723  0.24931  0.66202  1.0000
  H   H420      1.0  0.44172  0.26842  0.65425  1.0000
  H   H421      1.0  0.42627  0.22766  0.64651  1.0000
  H   H422      1.0  0.45220  0.20884  0.65321  1.0000
  C   C260      1.0  0.35699  0.19913  0.52819  1.0000
  H   H423      1.0  0.41853  0.26723  0.60556  1.0000
  H   H424      1.0  0.47966  0.26499  0.62821  1.0000
  H   H425      1.0  0.48457  0.31639  0.55957  1.0000
  C   C261      1.0  0.33755  0.18586  0.52212  1.0000
  C   C262      1.0  0.34710  0.18713  0.53278  1.0000
  C   C263      1.0  0.47016  0.29086  0.61908  1.0000
  C   C264      1.0  0.26152  0.99166  0.54244  1.0000
  S   S102      1.0  0.48348  0.13306  0.68171  1.0000
  C   C265      1.0  0.39423  0.24187  0.62074  1.0000
  C   C266      1.0  0.38318  0.31005  0.58140  1.0000
  C   C267      1.0  0.39342  0.29420  0.58181  1.0000
  C   C268      1.0  0.39043  0.28300  0.57392  1.0000
  C   C269      1.0  0.37702  0.28764  0.56585  1.0000
  C   C270      1.0  0.36700  0.30352  0.56542  1.0000
  H   H426      1.0  0.32114  0.22135  0.57556  1.0000
  H   H427      1.0  0.40358  0.29067  0.58816  1.0000
  H   H428      1.0  0.39832  0.27081  0.57426  1.0000
  H   H429      1.0  0.35669  0.30727  0.55919  1.0000
  H   H430      1.0  0.46216  0.31591  0.53653  1.0000
  C   C271      1.0  0.41979  0.19814  0.60597  1.0000
  C   C272      1.0  0.42575  0.19664  0.62016  1.0000
  C   C273      1.0  0.44263  0.18978  0.62045  1.0000
  C   C274      1.0  0.45332  0.18409  0.60670  1.0000
  C   C275      1.0  0.44734  0.18580  0.59256  1.0000
  C   C276      1.0  0.43073  0.19306  0.59211  1.0000
  H   H431      1.0  0.41735  0.20074  0.63088  1.0000
  H   H432      1.0  0.44722  0.18859  0.63139  1.0000
  H   H433      1.0  0.45552  0.18145  0.58188  1.0000
  H   H434      1.0  0.42633  0.19423  0.58112  1.0000
  C   C277      1.0  0.35701  0.25431  0.51796  1.0000
  C   C278      1.0  0.48242  0.27626  0.61978  1.0000
  C   C279      1.0  0.47358  0.30535  0.60788  1.0000
  H   H435      1.0  0.02469  0.04550  0.69151  1.0000
  H   H436      1.0  0.31575  0.26410  0.57346  1.0000
  H   H437      1.0  0.25010  0.01384  0.59049  1.0000
  C   C280      1.0  0.20644  0.14290  0.50065  1.0000
  C   C281      1.0  0.47467  0.25722  0.53833  1.0000
  H   H438      1.0  0.17821  0.08527  0.49230  1.0000
  C   C282      1.0  0.47395  0.23108  0.53263  1.0000
  C   C283      1.0  0.45653  0.23538  0.53507  1.0000
  C   C284      1.0  0.44823  0.25073  0.53896  1.0000
  C   C285      1.0  0.45729  0.26172  0.54025  1.0000
  H   H439      1.0  0.33162  0.09476  0.49194  1.0000
  H   H440      1.0  0.48041  0.21942  0.52922  1.0000
  H   H441      1.0  0.43485  0.25433  0.54054  1.0000
  H   H442      1.0  0.30334  0.25334  0.52552  1.0000
  H   H443      1.0  0.45905  0.20451  0.70320  1.0000
  H   H444      1.0  0.28129  0.01364  0.57476  1.0000
  H   H445      1.0  0.26808  0.03252  0.57970  1.0000
  H   H446      1.0  0.47496  0.22642  0.56796  1.0000
  H   H447      1.0  0.03530  0.99033  0.68552  1.0000
  C   C286      1.0  0.34767  0.20857  0.50202  1.0000
  H   H448      1.0  0.24901  0.98992  0.54269  1.0000
  C   C287      1.0  0.26047  0.00505  0.55192  1.0000
  S   S103      1.0  0.15403  0.14109  0.50227  1.0000
  H   H449      1.0  0.45047  0.31259  0.57760  1.0000
  C   C288      1.0  0.30868  0.05819  0.49734  1.0000
  H   H450      1.0  0.48333  0.18754  0.56587  1.0000
  C   C289      1.0  0.27855  0.02681  0.49799  1.0000
  H   H451      1.0  0.20082  0.18007  0.48701  1.0000
  H   H452      1.0  0.02889  0.12419  0.72647  1.0000
  C   C290      1.0  0.18224  0.01031  0.59525  1.0000
  C   C291      1.0  0.48299  0.24182  0.53455  1.0000
  S   S104      1.0  0.13079  0.00290  0.65479  1.0000
  H   H453      1.0  0.12408  0.03270  0.71812  1.0000
  H   H454      1.0  0.43615  0.18612  0.68390  1.0000
  H   H455      1.0  0.44233  0.18205  0.72950  1.0000
  H   H456      1.0  0.23177  0.99839  0.60139  1.0000
  H   H457      1.0  0.45802  0.29079  0.62703  1.0000
  S   S105      1.0  0.16436  0.98925  0.61843  1.0000
  C   C292      1.0  0.44421  0.18777  0.69137  1.0000
  H   H458      1.0  0.17238  0.16315  0.50857  1.0000
  C   C293      1.0  0.44253  0.31890  0.56837  1.0000
  H   H459      1.0  0.45512  0.16163  0.69440  1.0000
  H   H460      1.0  0.06547  0.00567  0.68796  1.0000
  H   H461      1.0  0.21166  0.03366  0.50822  1.0000
  H   H462      1.0  0.34789  0.21701  0.49013  1.0000
  H   H463      1.0  0.35604  0.23773  0.54159  1.0000
  H   H464      1.0  0.48945  0.17941  0.71858  1.0000
  H   H465      1.0  0.35000  0.25944  0.50789  1.0000
  H   H466      1.0  0.36525  0.21866  0.50858  1.0000
  H   H467      1.0  0.16593  0.06023  0.59821  1.0000
  N   N17       1.0  0.15502  0.04887  0.63415  1.0000
  C   C294      1.0  0.15422  0.06587  0.62304  1.0000
  C   C295      1.0  0.13979  0.04934  0.64798  1.0000
  C   C296      1.0  0.15539  0.03620  0.62470  1.0000
  C   C297      1.0  0.17077  0.04413  0.64071  1.0000
  C   C298      1.0  0.16747  0.06719  0.60674  1.0000
  C   C299      1.0  0.13884  0.05961  0.66064  1.0000
  C   C300      1.0  0.14059  0.03939  0.61635  1.0000
  C   C301      1.0  0.17253  0.02817  0.65439  1.0000
  H   H468      1.0  0.14180  0.07087  0.61974  1.0000
  H   H469      1.0  0.15564  0.07486  0.62959  1.0000
  H   H470      1.0  0.13845  0.03665  0.65497  1.0000
  H   H471      1.0  0.12829  0.05459  0.64296  1.0000
  H   H472      1.0  0.16691  0.03493  0.61500  1.0000
  H   H473      1.0  0.15590  0.02367  0.63283  1.0000
  H   H474      1.0  0.18188  0.04241  0.63054  1.0000
  H   H475      1.0  0.17205  0.05440  0.64569  1.0000
  H   H476      1.0  0.18035  0.06309  0.60885  1.0000
  C   C302      1.0  0.18893  0.17604  0.48989  1.0000
  H   H477      1.0  0.16610  0.08037  0.60012  1.0000
  H   H478      1.0  0.13911  0.07275  0.65479  1.0000
  C   C303      1.0  0.49312  0.17217  0.70877  1.0000
  H   H479      1.0  0.14878  0.05424  0.66780  1.0000
  H   H480      1.0  0.13929  0.05136  0.60732  1.0000
  H   H481      1.0  0.12877  0.03865  0.62555  1.0000
  H   H482      1.0  0.14277  0.02949  0.60936  1.0000
  H   H483      1.0  0.18507  0.02025  0.65146  1.0000
  H   H484      1.0  0.16346  0.02042  0.65609  1.0000
  H   H485      1.0  0.17166  0.03125  0.66642  1.0000
  H   H486      1.0  0.28435  0.01636  0.50631  1.0000
  C   C304      1.0  0.46571  0.25322  0.58267  1.0000
  C   C305      1.0  0.33756  0.19675  0.50674  1.0000
  S   S106      1.0  0.14055  0.01870  0.68953  1.0000
  H   H487      1.0  0.17916  0.18736  0.48750  1.0000
  H   H488      1.0  0.30933  0.27171  0.53745  1.0000
  H   H489      1.0  0.44373  0.23902  0.57732  1.0000
  C   C306      1.0  0.46633  0.15282  0.72231  1.0000
  C   C307      1.0  0.17952  0.00136  0.61163  1.0000
  C   C308      1.0  0.03605  0.03671  0.69485  1.0000
  H   H490      1.0  0.07220  0.99069  0.72328  1.0000
  H   H491      1.0  0.20867  0.07760  0.48666  1.0000
  N   N18       1.0  0.43816  0.13503  0.62783  1.0000
  C   C309      1.0  0.44465  0.13157  0.64346  1.0000
  C   C310      1.0  0.43087  0.12055  0.62850  1.0000
  C   C311      1.0  0.42445  0.15036  0.62801  1.0000
  C   C312      1.0  0.45225  0.13771  0.61306  1.0000
  C   C313      1.0  0.45133  0.14562  0.64601  1.0000
  C   C314      1.0  0.44258  0.10336  0.63143  1.0000
  C   C315      1.0  0.41519  0.15585  0.61367  1.0000
  C   C316      1.0  0.45138  0.13335  0.59699  1.0000
  H   H492      1.0  0.43485  0.12841  0.65460  1.0000
  H   H493      1.0  0.45517  0.12062  0.64386  1.0000
  H   H494      1.0  0.42655  0.12185  0.61701  1.0000
  H   H495      1.0  0.41948  0.12009  0.63853  1.0000
  H   H496      1.0  0.41492  0.14883  0.63973  1.0000
  H   H497      1.0  0.42935  0.16126  0.62769  1.0000
  H   H498      1.0  0.45351  0.15083  0.60983  1.0000
  H   H499      1.0  0.46446  0.13051  0.61597  1.0000
  H   H500      1.0  0.45775  0.14081  0.65658  1.0000
  H   H501      1.0  0.46057  0.15012  0.63508  1.0000
  H   H502      1.0  0.44116  0.15613  0.64924  1.0000
  H   H503      1.0  0.45540  0.10341  0.62406  1.0000
  H   H504      1.0  0.44307  0.09889  0.64473  1.0000
  H   H505      1.0  0.43770  0.09422  0.62795  1.0000
  H   H506      1.0  0.40465  0.16636  0.61622  1.0000
  H   H507      1.0  0.40972  0.14607  0.61224  1.0000
  H   H508      1.0  0.42322  0.16078  0.60192  1.0000
  H   H509      1.0  0.45366  0.11978  0.59808  1.0000
  H   H510      1.0  0.11147  0.02517  0.67579  1.0000
  C   C317      1.0  0.02093  0.01419  0.73305  1.0000
  H   H511      1.0  0.37123  0.17393  0.49593  1.0000
  H   H512      1.0  0.27917  0.07692  0.49406  1.0000
  C   C318      1.0  0.33641  0.26377  0.55145  1.0000
  C   C319      1.0  0.43771  0.30547  0.56265  1.0000
  H   H513      1.0  0.43329  0.26952  0.58638  1.0000
  H   H514      1.0  0.46136  0.13789  0.58685  1.0000
  C   C320      1.0  0.46534  0.21969  0.57605  1.0000
  H   H515      1.0  0.36862  0.24604  0.51293  1.0000
  C   C321      1.0  0.35748  0.20961  0.51253  1.0000
  C   C322      1.0  0.27004  0.02306  0.57227  1.0000
  H   H516      1.0  0.47404  0.29984  0.56191  1.0000
  C   C323      1.0  0.31553  0.25683  0.51944  1.0000
  C   C324      1.0  0.03405  0.01876  0.69718  1.0000
  H   H517      1.0  0.36392  0.28402  0.60061  1.0000
  H   H518      1.0  0.48474  0.24360  0.60753  1.0000
  C   C325      1.0  0.03967  0.00928  0.72563  1.0000
  C   C326      1.0  0.49294  0.17760  0.56071  1.0000
  H   H519      1.0  0.34467  0.23384  0.52932  1.0000
  C   C327      1.0  0.45009  0.17094  0.70242  1.0000
  H   H520      1.0  0.35658  0.28829  0.63672  1.0000
  H   H521      1.0  0.31159  0.09237  0.50367  1.0000
  C   C328      1.0  0.19313  0.02135  0.59008  1.0000
  N   N19       1.0  0.46257  0.17030  0.71231  1.0000
  H   H522      1.0  0.26712  0.99594  0.52920  1.0000
  H   H523      1.0  0.22636  0.12236  0.49414  1.0000
  H   H524      1.0  0.21258  0.11664  0.51322  1.0000
  Fe  Fe52      1.0  0.49086  0.15449  0.66197  1.0000
  H   H525      1.0  0.32452  0.24564  0.51619  1.0000
  H   H526      1.0  0.34581  0.25603  0.55873  1.0000
  C   C329      1.0  0.31883  0.09501  0.49091  1.0000
  H   H527      1.0  0.32717  0.27535  0.52258  1.0000
  H   H528      1.0  0.36073  0.26439  0.52110  1.0000
  N   N20       1.0  0.04400  0.00575  0.70849  1.0000
  H   H529      1.0  0.25139  0.01613  0.54721  1.0000
  C   C330      1.0  0.18826  0.00290  0.62263  1.0000
  C   C331      1.0  0.32219  0.27279  0.56337  1.0000
  C   C332      1.0  0.04017  0.98918  0.70982  1.0000
  H   H530      1.0  0.02059  0.01837  0.70088  1.0000
  H   H531      1.0  0.03684  0.09230  0.71874  1.0000
  H   H532      1.0  0.45991  0.21524  0.56802  1.0000
  H   H533      1.0  0.47706  0.18566  0.69209  1.0000
  Fe  Fe53      1.0  0.48754  0.19150  0.65285  1.0000
  H   H534      1.0  0.29984  0.05026  0.49831  1.0000
  H   H535      1.0  0.46423  0.26761  0.60179  1.0000
  N   N21       1.0  0.36519  0.26141  0.61956  1.0000
  C   C333      1.0  0.35851  0.27973  0.61386  1.0000
  C   C334      1.0  0.36489  0.25288  0.60635  1.0000
  H   H536      1.0  0.46130  0.21943  0.61509  1.0000
  C   C335      1.0  0.35422  0.25565  0.63595  1.0000
  S   S107      1.0  0.32502  0.19652  0.49309  1.0000
  C   C336      1.0  0.34766  0.25498  0.60259  1.0000
  C   C337      1.0  0.35738  0.23694  0.64357  1.0000
  H   H537      1.0  0.34269  0.27349  0.54262  1.0000
  H   H538      1.0  0.34485  0.28239  0.61467  1.0000
  H   H539      1.0  0.37010  0.23938  0.60922  1.0000
  C   C338      1.0  0.23279  0.98927  0.59395  1.0000
  H   H540      1.0  0.35508  0.30431  0.61858  1.0000
  H   H541      1.0  0.34666  0.17884  0.54478  1.0000
  H   H542      1.0  0.35541  0.26169  0.64546  1.0000
  H   H543      1.0  0.34079  0.25989  0.63553  1.0000
  H   H544      1.0  0.38871  0.23153  0.62893  1.0000
  H   H545      1.0  0.17548  0.00914  0.58670  1.0000
  H   H546      1.0  0.34276  0.26799  0.59682  1.0000
  S   S108      1.0  0.42622  0.30570  0.64568  1.0000
  H   H547      1.0  0.34887  0.24743  0.59346  1.0000
  H   H548      1.0  0.11547  0.99645  0.71714  1.0000
  H   H549      1.0  0.46609  0.24436  0.62375  1.0000
  H   H550      1.0  0.36695  0.23353  0.65119  1.0000
  H   H551      1.0  0.36091  0.22897  0.63443  1.0000
  H   H552      1.0  0.34564  0.23375  0.65167  1.0000
  N   N22       1.0  0.19678  0.15179  0.51437  1.0000
  C   C339      1.0  0.18726  0.13998  0.52731  1.0000
  H   H553      1.0  0.45078  0.27370  0.54290  1.0000
  C   C340      1.0  0.18423  0.16675  0.50797  1.0000
  C   C341      1.0  0.20793  0.15661  0.52253  1.0000
  C   C342      1.0  0.17531  0.14711  0.54193  1.0000
  H   H554      1.0  0.46723  0.20327  0.72092  1.0000
  H   H555      1.0  0.14230  0.00288  0.72346  1.0000
  C   C343      1.0  0.22168  0.16538  0.51110  1.0000
  H   H556      1.0  0.17986  0.13518  0.52151  1.0000
  H   H557      1.0  0.19576  0.12893  0.53296  1.0000
  C   C344      1.0  0.16688  0.10973  0.49673  1.0000
  H   H558      1.0  0.48295  0.16442  0.69230  1.0000
  C   C345      1.0  0.32971  0.22954  0.56781  1.0000
  H   H559      1.0  0.18071  0.17603  0.51592  1.0000
  H   H560      1.0  0.20054  0.16486  0.53114  1.0000
  H   H561      1.0  0.21423  0.14548  0.53041  1.0000
  H   H562      1.0  0.16874  0.13737  0.55019  1.0000
  H   H563      1.0  0.18213  0.15052  0.54947  1.0000
  H   H564      1.0  0.16562  0.15784  0.53788  1.0000
  C   C346      1.0  0.25432  0.01570  0.57690  1.0000
  H   H565      1.0  0.12686  0.05940  0.66978  1.0000
  H   H566      1.0  0.22784  0.12850  0.51193  1.0000
  H   H567      1.0  0.05091  0.12017  0.72253  1.0000
  C   C347      1.0  0.14419  0.98929  0.72836  1.0000
  H   H568      1.0  0.24432  0.02569  0.57216  1.0000
  C   C348      1.0  0.10752  0.99366  0.72956  1.0000
  N   N23       1.0  0.25607  0.00033  0.57058  1.0000
  H   H569      1.0  0.47892  0.22180  0.59871  1.0000
  H   H570      1.0  0.44318  0.22258  0.59503  1.0000
  C   C349      1.0  0.47896  0.31034  0.55311  1.0000
  H   H571      1.0  0.19457  0.05542  0.49156  1.0000
  H   H572      1.0  0.48241  0.22654  0.62436  1.0000
  C   C350      1.0  0.32105  0.26510  0.53052  1.0000
  H   H573      1.0  0.22871  0.16828  0.51882  1.0000
  H   H574      1.0  0.44393  0.25570  0.61376  1.0000
  C   C351      1.0  0.06219  0.00572  0.70140  1.0000
  H   H575      1.0  0.42152  0.25341  0.59218  1.0000
  H   H576      1.0  0.43524  0.23889  0.61519  1.0000
  C   C352      1.0  0.45134  0.23075  0.58623  1.0000
  H   H577      1.0  0.47517  0.15169  0.73023  1.0000
  H   H578      1.0  0.42848  0.31082  0.55466  1.0000
  H   H579      1.0  0.38052  0.15620  0.48705  1.0000
  H   H580      1.0  0.47853  0.24712  0.57739  1.0000
  H   H581      1.0  0.27229  0.02961  0.55912  1.0000
  N   N24       1.0  0.45676  0.24070  0.59527  1.0000
  H   H582      1.0  0.39802  0.23982  0.60790  1.0000
  C   C353      1.0  0.26909  0.04097  0.50374  1.0000
  H   H583      1.0  0.06508  0.01737  0.70218  1.0000
  H   H584      1.0  0.32990  0.17667  0.52599  1.0000
  C   C354      1.0  0.44128  0.24861  0.60604  1.0000
  H   H585      1.0  0.45946  0.25832  0.57202  1.0000
  H   H586      1.0  0.37487  0.29172  0.62079  1.0000
  H   H587      1.0  0.40574  0.24126  0.62480  1.0000
  H   H588      1.0  0.38307  0.26224  0.63312  1.0000
  H   H589      1.0  0.47986  0.27071  0.58363  1.0000
  H   H590      1.0  0.49003  0.09924  0.69905  1.0000
  C   C355      1.0  0.46700  0.26849  0.58835  1.0000
  Fe  Fe54      1.0  0.29883  0.14513  0.50303  1.0000
  H   H591      1.0  0.33860  0.25055  0.61375  1.0000
  H   H592      1.0  0.03776  0.01618  0.68451  1.0000
  C   C356      1.0  0.26179  0.05454  0.49283  1.0000
  H   H593      1.0  0.45455  0.19286  0.68246  1.0000
  C   C357      1.0  0.28894  0.08440  0.49003  1.0000
  H   H594      1.0  0.28844  0.08890  0.50114  1.0000
  C   C358      1.0  0.36150  0.29144  0.62323  1.0000
  H   H595      1.0  0.31703  0.06615  0.51568  1.0000
  C   C359      1.0  0.38285  0.25910  0.62138  1.0000
  Fe  Fe55      1.0  0.14170  0.99830  0.67707  1.0000
  H   H596      1.0  0.33230  0.23610  0.57608  1.0000
  C   C360      1.0  0.47860  0.17342  0.70060  1.0000
  H   H597      1.0  0.30914  0.04771  0.52314  1.0000
  C   C361      1.0  0.21895  0.12672  0.50552  1.0000
  C   C362      1.0  0.47553  0.23652  0.61592  1.0000
  C   C363      1.0  0.42802  0.26034  0.59679  1.0000
  C   C364      1.0  0.23943  0.99536  0.57538  1.0000
  C   C365      1.0  0.07452  0.99141  0.70980  1.0000
  H   H598      1.0  0.45879  0.27981  0.58282  1.0000
  H   H599      1.0  0.04707  0.03929  0.68501  1.0000
  H   H600      1.0  0.19478  0.02862  0.57758  1.0000
  H   H601      1.0  0.30906  0.24806  0.55974  1.0000
  H   H602      1.0  0.47262  0.14390  0.71404  1.0000
  C   C366      1.0  0.32147  0.24151  0.55393  1.0000
  H   H603      1.0  0.31308  0.28218  0.55681  1.0000
  H   H604      1.0  0.03727  0.03955  0.70626  1.0000
  H   H605      1.0  0.49211  0.31664  0.58923  1.0000
  C   C367      1.0  0.34722  0.24409  0.53324  1.0000
  H   H606      1.0  0.37320  0.25750  0.59452  1.0000
  H   H607      1.0  0.32762  0.27959  0.56930  1.0000
  S   S109      1.0  0.32333  0.15160  0.48939  1.0000
  Fe  Fe56      1.0  0.40043  0.31773  0.61130  1.0000
  C   C368      1.0  0.48937  0.30539  0.59773  1.0000
  H   H608      1.0  0.43649  0.19694  0.69884  1.0000
  H   H609      1.0  0.32135  0.05061  0.49385  1.0000
  H   H610      1.0  0.23090  0.15732  0.50328  1.0000
  H   H611      1.0  0.21668  0.17733  0.50348  1.0000
  H   H612      1.0  0.48924  0.30492  0.54379  1.0000
  C   C369      1.0  0.20675  0.04934  0.48479  1.0000
  H   H613      1.0  0.43162  0.29740  0.57369  1.0000
  H   H614      1.0  0.08733  0.99358  0.70436  1.0000
  Fe  Fe57      1.0  0.43350  0.31655  0.61865  1.0000
  H   H615      1.0  0.04561  0.01917  0.72618  1.0000
  H   H616      1.0  0.21367  0.15097  0.49067  1.0000
  H   H617      1.0  0.03402  0.11170  0.70472  1.0000
  H   H618      1.0  0.01391  0.00503  0.73298  1.0000
  H   H619      1.0  0.02679  0.98916  0.71520  1.0000
  C   C370      1.0  0.45717  0.20047  0.71678  1.0000
  H   H620      1.0  0.44369  0.14292  0.72719  1.0000
  H   H621      1.0  0.26040  0.98936  0.60287  1.0000
  C   C371      1.0  0.04009  0.11398  0.72705  1.0000
  C   C372      1.0  0.45570  0.18213  0.72396  1.0000
  H   H622      1.0  0.16580  0.11493  0.48405  1.0000
  C   C373      1.0  0.37639  0.16985  0.48397  1.0000
  N   N25       1.0  0.30567  0.07381  0.48433  1.0000
  Fe  Fe58      1.0  0.17617  0.28781  0.96520  1.0000
  S   S110      1.0  0.16856  0.31217  0.97273  1.0000
  H   H623      1.0  0.04847  0.07957  0.73927  1.0000
  Fe  Fe59      1.0  0.14193  0.29049  0.95693  1.0000
  C   C374      1.0  0.36876  0.31549  0.96061  1.0000
  S   S111      1.0  0.13061  0.28015  0.94111  1.0000
  H   H624      1.0  0.00431  0.22397  0.83017  1.0000
  C   C375      1.0  0.11514  0.99584  0.74306  1.0000
  S   S112      1.0  0.16613  0.29748  0.94201  1.0000
  H   H625      1.0  0.00390  0.32179  0.76791  1.0000
  Fe  Fe60      1.0  0.06320  0.23644  0.92558  1.0000
  S   S113      1.0  0.06789  0.24656  0.89807  1.0000
  S   S114      1.0  0.07804  0.23724  0.94415  1.0000
  Fe  Fe61      1.0  0.02994  0.22812  0.92548  1.0000
  S   S115      1.0  0.03227  0.23785  0.89830  1.0000
  H   H626      1.0  0.21288  0.29940  0.96941  1.0000
  Fe  Fe62      1.0  0.05887  0.22453  0.89643  1.0000
  S   S116      1.0  0.06993  0.21154  0.87490  1.0000
  Fe  Fe63      1.0  0.04079  0.25862  0.90247  1.0000
  S   S117      1.0  0.02867  0.28458  0.89217  1.0000
  S   S118      1.0  0.05620  0.21324  0.92367  1.0000
  S   S119      1.0  0.03646  0.25010  0.92987  1.0000
  Fe  Fe64      1.0  0.03486  0.15582  0.84138  1.0000
  S   S120      1.0  0.05345  0.15952  0.81753  1.0000
  S   S121      1.0  0.03920  0.15480  0.86658  1.0000
  Fe  Fe65      1.0  0.00878  0.15329  0.82434  1.0000
  S   S122      1.0  0.02506  0.15735  0.79900  1.0000
  H   H627      1.0  0.05841  0.29708  0.77461  1.0000
  Fe  Fe66      1.0  0.04477  0.13956  0.81151  1.0000
  S   S123      1.0  0.06234  0.11799  0.80146  1.0000
  Fe  Fe67      1.0  0.03188  0.17687  0.80755  1.0000
  S   S124      1.0  0.03508  0.20244  0.79365  1.0000
  S   S125      1.0  0.02803  0.13425  0.83636  1.0000
  S   S126      1.0  0.01375  0.17432  0.83180  1.0000
  H   H628      1.0  0.03558  0.31361  0.79189  1.0000
  H   H629      1.0  0.02188  0.09803  0.76705  1.0000
  Fe  Fe68      1.0  0.04166  0.01124  0.77144  1.0000
  H   H630      1.0  0.00274  0.19991  0.85252  1.0000
  H   H631      1.0  0.23848  0.29317  0.92442  1.0000
  Fe  Fe69      1.0  0.04211  0.04521  0.77752  1.0000
  S   S127      1.0  0.06800  0.04499  0.76247  1.0000
  S   S128      1.0  0.02707  0.06681  0.78924  1.0000
  H   H632      1.0  0.00347  0.25922  0.79236  1.0000
  Fe  Fe70      1.0  0.07314  0.01830  0.77523  1.0000
  S   S129      1.0  0.09637  0.00617  0.78480  1.0000
  S   S130      1.0  0.31491  0.31446  0.95239  1.0000
  S   S131      1.0  0.04787  0.01911  0.79179  1.0000
  C   C376      1.0  0.05252  0.10320  0.79918  1.0000
  C   C377      1.0  0.06216  0.08877  0.79387  1.0000
  C   C378      1.0  0.05452  0.07721  0.79131  1.0000
  C   C379      1.0  0.03717  0.08005  0.79397  1.0000
  C   C380      1.0  0.02755  0.09433  0.79958  1.0000
  C   C381      1.0  0.03518  0.10586  0.80216  1.0000
  H   H633      1.0  0.07558  0.08659  0.79161  1.0000
  H   H634      1.0  0.06206  0.06618  0.78715  1.0000
  H   H635      1.0  0.01413  0.09662  0.80168  1.0000
  H   H636      1.0  0.02760  0.11694  0.80625  1.0000
  C   C382      1.0  0.01654  0.21752  0.79547  1.0000
  C   C383      1.0  0.01731  0.23424  0.79228  1.0000
  H   H637      1.0  0.03000  0.31403  0.91070  1.0000
  H   H638      1.0  0.04116  0.28738  0.78604  1.0000
  H   H639      1.0  0.02251  0.07786  0.74948  1.0000
  S   S132      1.0  0.03302  0.03766  0.75877  1.0000
  H   H640      1.0  0.02927  0.23776  0.78823  1.0000
  C   C384      1.0  0.08751  0.30561  0.92308  1.0000
  C   C385      1.0  0.07285  0.29724  0.93287  1.0000
  H   H641      1.0  0.18467  0.24578  0.92404  1.0000
  H   H642      1.0  0.25954  0.27653  0.94004  1.0000
  S   S133      1.0  0.02326  0.28600  0.81991  1.0000
  H   H643      1.0  0.99977  0.25545  0.92177  1.0000
  H   H644      1.0  0.46212  0.17787  0.73458  1.0000
  N   N26       1.0  0.27196  0.29578  0.93963  1.0000
  C   C386      1.0  0.02756  0.28559  0.87183  1.0000
  C   C387      1.0  0.01464  0.29676  0.86500  1.0000
  C   C388      1.0  0.01316  0.29687  0.84906  1.0000
  C   C389      1.0  0.02499  0.28626  0.83973  1.0000
  C   C390      1.0  0.03818  0.27546  0.84639  1.0000
  C   C391      1.0  0.03926  0.27486  0.86257  1.0000
  C   C392      1.0  0.27628  0.28811  0.95634  1.0000
  H   H645      1.0  0.04771  0.23187  0.81033  1.0000
  H   H646      1.0  0.04926  0.26619  0.86779  1.0000
  C   C393      1.0  0.04769  0.17066  0.86880  1.0000
  C   C394      1.0  0.05768  0.17921  0.85533  1.0000
  C   C395      1.0  0.06462  0.19150  0.85746  1.0000
  C   C396      1.0  0.06116  0.19580  0.87291  1.0000
  C   C397      1.0  0.05094  0.18743  0.88633  1.0000
  C   C398      1.0  0.04446  0.17473  0.88433  1.0000
  H   H647      1.0  0.06017  0.17633  0.84326  1.0000
  H   H648      1.0  0.07253  0.19791  0.84704  1.0000
  H   H649      1.0  0.04827  0.19058  0.89831  1.0000
  H   H650      1.0  0.03674  0.16821  0.89484  1.0000
  C   C399      1.0  0.16214  0.23414  0.97486  1.0000
  H   H651      1.0  0.25380  0.31756  0.96207  1.0000
  C   C400      1.0  0.11564  0.26841  0.94242  1.0000
  C   C401      1.0  0.10602  0.26176  0.95746  1.0000
  C   C402      1.0  0.09463  0.25224  0.95774  1.0000
  C   C403      1.0  0.09254  0.24940  0.94304  1.0000
  C   C404      1.0  0.10226  0.25596  0.92803  1.0000
  C   C405      1.0  0.11371  0.26538  0.92775  1.0000
  H   H652      1.0  0.03498  0.27624  0.95825  1.0000
  H   H653      1.0  0.08732  0.24710  0.96945  1.0000
  H   H654      1.0  0.10116  0.25350  0.91668  1.0000
  H   H655      1.0  0.12121  0.27028  0.91605  1.0000
  C   C406      1.0  0.28170  0.26905  0.96031  1.0000
  H   H656      1.0  0.03059  0.13891  0.74492  1.0000
  S   S134      1.0  0.00558  0.22096  0.93968  1.0000
  N   N27       1.0  0.08404  0.12052  0.85048  1.0000
  C   C407      1.0  0.08069  0.11558  0.83618  1.0000
  C   C408      1.0  0.08277  0.13902  0.84593  1.0000
  C   C409      1.0  0.07053  0.11634  0.86533  1.0000
  C   C410      1.0  0.10098  0.11098  0.85347  1.0000
  C   C411      1.0  0.07949  0.09732  0.83887  1.0000
  C   C412      1.0  0.09475  0.14547  0.82997  1.0000
  C   C413      1.0  0.07062  0.12124  0.88133  1.0000
  C   C414      1.0  0.10972  0.11841  0.86263  1.0000
  H   H657      1.0  0.06889  0.12337  0.83272  1.0000
  H   H658      1.0  0.09058  0.11776  0.82488  1.0000
  H   H659      1.0  0.08464  0.14395  0.85584  1.0000
  H   H660      1.0  0.06995  0.14543  0.84444  1.0000
  H   H661      1.0  0.05806  0.12213  0.86228  1.0000
  H   H662      1.0  0.07107  0.10277  0.86884  1.0000
  H   H663      1.0  0.10034  0.09811  0.86045  1.0000
  H   H664      1.0  0.10972  0.10968  0.84144  1.0000
  H   H665      1.0  0.07962  0.09466  0.82683  1.0000
  H   H666      1.0  0.09010  0.08849  0.84362  1.0000
  H   H667      1.0  0.06755  0.09493  0.84713  1.0000
  H   H668      1.0  0.09438  0.15873  0.82921  1.0000
  H   H669      1.0  0.10778  0.13866  0.82965  1.0000
  H   H670      1.0  0.09084  0.14497  0.81878  1.0000
  H   H671      1.0  0.08139  0.11371  0.88673  1.0000
  H   H672      1.0  0.05929  0.11857  0.89065  1.0000
  H   H673      1.0  0.07000  0.13465  0.87974  1.0000
  H   H674      1.0  0.11650  0.10816  0.87098  1.0000
  H   H675      1.0  0.10147  0.12699  0.87041  1.0000
  H   H676      1.0  0.11941  0.12466  0.85374  1.0000
  C   C415      1.0  0.00104  0.21307  0.80025  1.0000
  H   H677      1.0  0.28618  0.29339  0.95806  1.0000
  H   H678      1.0  0.01929  0.01480  0.74617  1.0000
  C   C416      1.0  0.04721  0.27822  0.95036  1.0000
  H   H679      1.0  0.12722  0.01337  0.76291  1.0000
  H   H680      1.0  0.02509  0.19254  0.84889  1.0000
  H   H681      1.0  0.01654  0.14498  0.89823  1.0000
  C   C417      1.0  0.04811  0.29216  0.77351  1.0000
  H   H682      1.0  0.26748  0.32058  0.92432  1.0000
  S   S135      1.0  0.02776  0.99033  0.77791  1.0000
  H   H683      1.0  0.06566  0.31928  0.90500  1.0000
  H   H684      1.0  0.14884  0.00534  0.76391  1.0000
  H   H685      1.0  0.04450  0.24482  0.82466  1.0000
  C   C418      1.0  0.01493  0.09065  0.74828  1.0000
  H   H686      1.0  0.02794  0.24553  0.81487  1.0000
  H   H687      1.0  0.01234  0.09564  0.73571  1.0000
  H   H688      1.0  0.00209  0.24496  0.83023  1.0000
  C   C419      1.0  0.21950  0.28801  0.97595  1.0000
  H   H689      1.0  0.03496  0.29221  0.93071  1.0000
  C   C420      1.0  0.00868  0.10544  0.88282  1.0000
  C   C421      1.0  0.00437  0.15359  0.89789  1.0000
  H   H690      1.0  0.28508  0.26508  0.97263  1.0000
  H   H691      1.0  0.37721  0.30363  0.95822  1.0000
  H   H692      1.0  0.20038  0.23216  0.95796  1.0000
  C   C422      1.0  0.13908  0.00581  0.75732  1.0000
  H   H693      1.0  0.27139  0.26296  0.96130  1.0000
  C   C423      1.0  0.26867  0.31436  0.93725  1.0000
  H   H694      1.0  0.25873  0.29459  0.91200  1.0000
  H   H695      1.0  0.01614  0.12161  0.89327  1.0000
  N   N28       1.0  0.05976  0.29761  0.92378  1.0000
  H   H696      1.0  0.07025  0.27227  0.92110  1.0000
  H   H697      1.0  0.27942  0.31820  0.93902  1.0000
  H   H698      1.0  0.35991  0.31797  0.95228  1.0000
  H   H699      1.0  0.18163  0.21907  0.93996  1.0000
  C   C424      1.0  0.00257  0.23251  0.83857  1.0000
  H   H700      1.0  0.02135  0.09762  0.88288  1.0000
  C   C425      1.0  0.17586  0.25612  0.92921  1.0000
  H   H701      1.0  0.00560  0.30509  0.87216  1.0000
  H   H702      1.0  0.01892  0.31794  0.73913  1.0000
  C   C426      1.0  0.15267  0.23464  0.95032  1.0000
  H   H703      1.0  0.06713  0.30337  0.94360  1.0000
  H   H704      1.0  0.01888  0.20625  0.91089  1.0000
  H   H705      1.0  0.09669  0.30296  0.93103  1.0000
  H   H706      1.0  0.09425  0.30082  0.91185  1.0000
  C   C427      1.0  0.03284  0.22312  0.83448  1.0000
  H   H707      1.0  0.04486  0.99832  0.73448  1.0000
  S   S136      1.0  0.13172  0.31529  0.96437  1.0000
  H   H708      1.0  0.26548  0.29116  0.96638  1.0000
  C   C428      1.0  0.30323  0.29328  0.92609  1.0000
  H   H709      1.0  0.28746  0.27727  0.92585  1.0000
  H   H710      1.0  0.04737  0.26725  0.83921  1.0000
  C   C429      1.0  0.04208  0.31672  0.90311  1.0000
  H   H711      1.0  0.00843  0.25960  0.86902  1.0000
  H   H712      1.0  0.10739  0.26386  0.96887  1.0000
  H   H713      1.0  0.24152  0.32061  0.94693  1.0000
  H   H714      1.0  0.07664  0.28204  0.88815  1.0000
  H   H715      1.0  0.14236  0.24541  0.95255  1.0000
  C   C430      1.0  0.02245  0.10243  0.75354  1.0000
  H   H716      1.0  0.09150  0.28072  0.90012  1.0000
  C   C431      1.0  0.01904  0.24260  0.85251  1.0000
  N   N29       1.0  0.01716  0.22801  0.84695  1.0000
  H   H717      1.0  0.07925  0.30030  0.89188  1.0000
  H   H718      1.0  0.00345  0.15521  0.87257  1.0000
  H   H719      1.0  0.18201  0.25429  0.95237  1.0000
  H   H720      1.0  0.11563  0.00914  0.74053  1.0000
  H   H721      1.0  0.36461  0.28235  0.96797  1.0000
  H   H722      1.0  0.03118  0.23982  0.85637  1.0000
  C   C432      1.0  0.24979  0.29792  0.92319  1.0000
  H   H723      1.0  0.16680  0.98926  0.73629  1.0000
  Fe  Fe71      1.0  0.05944  0.03570  0.74477  1.0000
  C   C433      1.0  0.03384  0.13082  0.75653  1.0000
  C   C434      1.0  0.17160  0.25222  0.94828  1.0000
  H   H724      1.0  0.01920  0.25360  0.84213  1.0000
  C   C435      1.0  0.05485  0.31477  0.91367  1.0000
  H   H725      1.0  0.04357  0.21732  0.84065  1.0000
  S   S137      1.0  0.20165  0.27105  0.96525  1.0000
  C   C436      1.0  0.02488  0.32000  0.78594  1.0000
  H   H726      1.0  0.05471  0.27945  0.95858  1.0000
  H   H727      1.0  0.18843  0.32066  0.94073  1.0000
  C   C437      1.0  0.03839  0.23727  0.82032  1.0000
  H   H728      1.0  0.02753  0.21021  0.86668  1.0000
  C   C438      1.0  0.28607  0.29055  0.92594  1.0000
  H   H729      1.0  0.24662  0.29262  0.94970  1.0000
  H   H730      1.0  0.20697  0.21120  0.95596  1.0000
  H   H731      1.0  0.00007  0.09952  0.89347  1.0000
  H   H732      1.0  0.30775  0.28620  0.93746  1.0000
  H   H733      1.0  0.44348  0.15472  0.74207  1.0000
  H   H734      1.0  0.04727  0.10668  0.76612  1.0000
  C   C439      1.0  0.07900  0.28721  0.89771  1.0000
  C   C440      1.0  0.01617  0.21349  0.86141  1.0000
  H   H735      1.0  0.03158  0.21358  0.82848  1.0000
  C   C441      1.0  0.19945  0.22338  0.95101  1.0000
  H   H736      1.0  0.05309  0.26695  0.94532  1.0000
  C   C442      1.0  0.04548  0.11417  0.75373  1.0000
  H   H737      1.0  0.30321  0.30658  0.92446  1.0000
  H   H738      1.0  0.05018  0.08080  0.75877  1.0000
  H   H739      1.0  0.24594  0.31157  0.92126  1.0000
  Fe  Fe72      1.0  0.15649  0.32122  0.95085  1.0000
  N   N30       1.0  0.03985  0.10443  0.74463  1.0000
  H   H740      1.0  0.16441  0.25949  0.92414  1.0000
  H   H741      1.0  0.05373  0.28129  0.76764  1.0000
  H   H742      1.0  0.01658  0.12850  0.87187  1.0000
  S   S138      1.0  0.06736  0.00878  0.75588  1.0000
  H   H743      1.0  0.16095  0.26213  0.95209  1.0000
  H   H744      1.0  0.31252  0.28887  0.91553  1.0000
  C   C443      1.0  0.04444  0.29386  0.93658  1.0000
  H   H745      1.0  0.15576  0.23549  0.93673  1.0000
  C   C444      1.0  0.06542  0.28447  0.91356  1.0000
  N   N31       1.0  0.16749  0.23544  0.95640  1.0000
  H   H746      1.0  0.99818  0.27760  0.91747  1.0000
  H   H747      1.0  0.04298  0.30603  0.74990  1.0000
  H   H748      1.0  0.18170  0.26710  0.92475  1.0000
  H   H749      1.0  0.00567  0.10530  0.87103  1.0000
  H   H750      1.0  0.17979  0.20959  0.96128  1.0000
  H   H751      1.0  0.14307  0.01241  0.74449  1.0000
  H   H752      1.0  0.02596  0.29855  0.76428  1.0000
  H   H753      1.0  0.07710  0.07536  0.73725  1.0000
  H   H754      1.0  0.28341  0.29750  0.91366  1.0000
  H   H755      1.0  0.00603  0.19323  0.89638  1.0000
  C   C445      1.0  0.05151  0.08768  0.74568  1.0000
  H   H756      1.0  0.10609  0.99392  0.75502  1.0000
  H   H757      1.0  0.02238  0.12890  0.76598  1.0000
  H   H758      1.0  0.04027  0.13754  0.76154  1.0000
  H   H759      1.0  0.05783  0.11708  0.74716  1.0000
  C   C446      1.0  0.25685  0.29016  0.93898  1.0000
  H   H760      1.0  0.03832  0.30440  0.94292  1.0000
  H   H761      1.0  0.05475  0.28216  0.90995  1.0000
  H   H762      1.0  0.15480  0.20740  0.95729  1.0000
  C   C447      1.0  0.18162  0.22130  0.95219  1.0000
  H   H763      1.0  0.07839  0.28425  0.93823  1.0000
  C   C448      1.0  0.07012  0.08797  0.73886  1.0000
  H   H764      1.0  0.20578  0.22691  0.93789  1.0000
  C   C449      1.0  0.00552  0.24860  0.86672  1.0000
  H   H765      1.0  0.15838  0.22215  0.98113  1.0000
  H   H766      1.0  0.34007  0.30552  0.97303  1.0000
  C   C450      1.0  0.00886  0.12316  0.88376  1.0000
  S   S139      1.0  0.15294  0.27871  0.97970  1.0000
  H   H767      1.0  0.29279  0.26434  0.95136  1.0000
  H   H768      1.0  0.04694  0.30885  0.89377  1.0000
  H   H769      1.0  0.00033  0.20021  0.80240  1.0000
  H   H770      1.0  0.18002  0.24658  0.97902  1.0000
  H   H771      1.0  0.00272  0.08960  0.75678  1.0000
  N   N32       1.0  0.35991  0.31350  0.97849  1.0000
  H   H772      1.0  0.07541  0.09138  0.74771  1.0000
  H   H773      1.0  0.00592  0.21633  0.87188  1.0000
  C   C451      1.0  0.45133  0.14609  0.73408  1.0000
  H   H774      1.0  0.45603  0.13434  0.74236  1.0000
  H   H775      1.0  0.01572  0.31190  0.79148  1.0000
  H   H776      1.0  0.00698  0.16621  0.89435  1.0000
  C   C452      1.0  0.14528  0.21899  0.95798  1.0000
  H   H777      1.0  0.13598  0.21909  0.95096  1.0000
  H   H778      1.0  0.00535  0.23923  0.87843  1.0000
  C   C453      1.0  0.21584  0.27282  0.97622  1.0000
  H   H779      1.0  0.01350  0.11456  0.75219  1.0000
  H   H780      1.0  0.13839  0.21894  0.97092  1.0000
  C   C454      1.0  0.00269  0.24641  0.79456  1.0000
  H   H781      1.0  0.00299  0.30529  0.84393  1.0000
  C   C455      1.0  0.03629  0.30484  0.76307  1.0000
  Fe  Fe73      1.0  0.29977  0.30773  0.97790  1.0000
  C   C456      1.0  0.00589  0.20562  0.91515  1.0000
  H   H782      1.0  0.15095  0.24399  0.97777  1.0000
  C   C457      1.0  0.99856  0.19825  0.90690  1.0000
  C   C458      1.0  0.01401  0.19774  0.85753  1.0000
  C   C459      1.0  0.35736  0.28339  0.98057  1.0000
  H   H783      1.0  0.08351  0.31929  0.91996  1.0000
  H   H784      1.0  0.01259  0.18813  0.86908  1.0000
  C   C460      1.0  0.25324  0.32227  0.94892  1.0000
  H   H785      1.0  0.21793  0.32199  0.93501  1.0000
  C   C461      1.0  0.34868  0.30145  0.98173  1.0000
  H   H786      1.0  0.06750  0.32051  0.75841  1.0000
  N   N33       1.0  0.02943  0.32170  0.76741  1.0000
  H   H787      1.0  0.23525  0.29993  0.98313  1.0000
  C   C462      1.0  0.23228  0.28830  0.98356  1.0000
  H   H788      1.0  0.34762  0.27598  0.98348  1.0000
  Fe  Fe74      1.0  0.99689  0.29375  0.81662  1.0000
  H   H789      1.0  0.11831  0.47479  0.10178  1.0000
  H   H790      1.0  0.20240  0.35132  0.08656  1.0000
  S   S140      1.0  0.04956  0.58278  0.18500  1.0000
  H   H791      1.0  0.17847  0.38078  0.11437  1.0000
  H   H792      1.0  0.14564  0.36540  0.09423  1.0000
  H   H793      1.0  0.08402  0.41477  0.21183  1.0000
  Fe  Fe75      1.0  0.18305  0.39904  0.02631  1.0000
  S   S141      1.0  0.18079  0.37512  0.02206  1.0000
  S   S142      1.0  0.20149  0.41400  0.00958  1.0000
  Fe  Fe76      1.0  0.15689  0.39726  0.05844  1.0000
  S   S143      1.0  0.15207  0.37313  0.05672  1.0000
  S   S144      1.0  0.14377  0.40865  0.08076  1.0000
  Fe  Fe77      1.0  0.17975  0.36605  0.04924  1.0000
  S   S145      1.0  0.19458  0.34112  0.05867  1.0000
  Fe  Fe78      1.0  0.15334  0.38433  0.02972  1.0000
  S   S146      1.0  0.13786  0.38168  0.01331  1.0000
  S   S147      1.0  0.18451  0.38919  0.05296  1.0000
  S   S148      1.0  0.15556  0.40929  0.03193  1.0000
  C   C463      1.0  0.23491  0.35721  0.02910  1.0000
  H   H794      1.0  0.48808  0.36985  0.17290  1.0000
  C   C464      1.0  0.25029  0.41477  0.99770  1.0000
  H   H795      1.0  0.07940  0.47797  0.21956  1.0000
  H   H796      1.0  0.05579  0.48285  0.19399  1.0000
  H   H797      1.0  0.03316  0.64023  0.16265  1.0000
  C   C465      1.0  0.02410  0.46173  0.22575  1.0000
  C   C466      1.0  0.19002  0.36222  0.13284  1.0000
  C   C467      1.0  0.16834  0.46960  0.21170  1.0000
  Fe  Fe79      1.0  0.14653  0.46196  0.15818  1.0000
  S   S149      1.0  0.17349  0.45097  0.15806  1.0000
  S   S150      1.0  0.13626  0.48750  0.14517  1.0000
  Fe  Fe80      1.0  0.13556  0.43012  0.17735  1.0000
  S   S151      1.0  0.16162  0.41640  0.17864  1.0000
  S   S152      1.0  0.11233  0.42002  0.18626  1.0000
  Fe  Fe81      1.0  0.16424  0.43963  0.18483  1.0000
  S   S153      1.0  0.17511  0.43711  0.20723  1.0000
  Fe  Fe82      1.0  0.16793  0.42917  0.15191  1.0000
  S   S154      1.0  0.18322  0.41775  0.13007  1.0000
  S   S155      1.0  0.13755  0.45230  0.18524  1.0000
  S   S156      1.0  0.14160  0.44119  0.15048  1.0000
  H   H798      1.0  0.19721  0.38261  0.08274  1.0000
  C   C468      1.0  0.08245  0.48658  0.20756  1.0000
  C   C469      1.0  0.14919  0.48501  0.08928  1.0000
  H   H799      1.0  0.20329  0.36178  0.12683  1.0000
  S   S157      1.0  0.26666  0.34367  0.01622  1.0000
  H   H800      1.0  0.17445  0.48914  0.07576  1.0000
  H   H801      1.0  0.04806  0.61794  0.19065  1.0000
  C   C470      1.0  0.14184  0.46065  0.10942  1.0000
  H   H802      1.0  0.15887  0.50715  0.07643  1.0000
  C   C471      1.0  0.18182  0.32822  0.10460  1.0000
  C   C472      1.0  0.11075  0.40866  0.20657  1.0000
  H   H803      1.0  0.01890  0.59143  0.12847  1.0000
  H   H804      1.0  0.13715  0.40005  0.20499  1.0000
  H   H805      1.0  0.45032  0.41562  0.13651  1.0000
  C   C473      1.0  0.02958  0.59518  0.18483  1.0000
  C   C474      1.0  0.02731  0.60788  0.17101  1.0000
  H   H806      1.0  0.12446  0.54759  0.20520  1.0000
  H   H807      1.0  0.06030  0.47613  0.17530  1.0000
  C   C475      1.0  0.25117  0.38362  0.98727  1.0000
  C   C476      1.0  0.01619  0.59310  0.19820  1.0000
  H   H808      1.0  0.03760  0.60940  0.16057  1.0000
  H   H809      1.0  0.20942  0.36773  0.03742  1.0000
  H   H810      1.0  0.16946  0.48337  0.11022  1.0000
  H   H811      1.0  0.01787  0.58332  0.20895  1.0000
  C   C477      1.0  0.11712  0.51284  0.18869  1.0000
  C   C478      1.0  0.10862  0.51774  0.17573  1.0000
  C   C479      1.0  0.11510  0.51084  0.16163  1.0000
  C   C480      1.0  0.12984  0.49878  0.16078  1.0000
  C   C481      1.0  0.13861  0.49438  0.17347  1.0000
  C   C482      1.0  0.13240  0.50163  0.18727  1.0000
  H   H812      1.0  0.09706  0.52676  0.17655  1.0000
  H   H813      1.0  0.10835  0.51429  0.15177  1.0000
  H   H814      1.0  0.15013  0.48521  0.17274  1.0000
  H   H815      1.0  0.23759  0.36886  0.02158  1.0000
  C   C483      1.0  0.15516  0.41063  0.09436  1.0000
  C   C484      1.0  0.14706  0.41160  0.11070  1.0000
  C   C485      1.0  0.15564  0.41342  0.12181  1.0000
  C   C486      1.0  0.17232  0.41473  0.11657  1.0000
  C   C487      1.0  0.18046  0.41373  0.10022  1.0000
  C   C488      1.0  0.17192  0.41168  0.08915  1.0000
  H   H816      1.0  0.13410  0.41077  0.11484  1.0000
  H   H817      1.0  0.14933  0.41372  0.13446  1.0000
  H   H818      1.0  0.19337  0.41471  0.09607  1.0000
  H   H819      1.0  0.17821  0.41130  0.07650  1.0000
  C   C489      1.0  0.13741  0.36123  0.01324  1.0000
  C   C490      1.0  0.13771  0.34874  0.02756  1.0000
  C   C491      1.0  0.47190  0.36078  0.15627  1.0000
  C   C492      1.0  0.13691  0.33262  0.02722  1.0000
  H   H820      1.0  0.17667  0.34081  0.98923  1.0000
  H   H821      1.0  0.48275  0.32621  0.07065  1.0000
  H   H822      1.0  0.13805  0.35161  0.03899  1.0000
  C   C493      1.0  0.17093  0.36471  0.09586  1.0000
  H   H823      1.0  0.45691  0.35933  0.18181  1.0000
  C   C494      1.0  0.21511  0.34169  0.04822  1.0000
  H   H824      1.0  0.45453  0.38517  0.14029  1.0000
  H   H825      1.0  0.02476  0.61763  0.11292  1.0000
  C   C495      1.0  0.24721  0.34277  0.02928  1.0000
  H   H826      1.0  0.16620  0.38065  0.98728  1.0000
  C   C496      1.0  0.21886  0.35659  0.03828  1.0000
  H   H827      1.0  0.18489  0.46555  0.11608  1.0000
  H   H828      1.0  0.18155  0.46456  0.08953  1.0000
  H   H829      1.0  0.20961  0.34887  0.10474  1.0000
  C   C497      1.0  0.13715  0.52260  0.22916  1.0000
  H   H830      1.0  0.46934  0.40674  0.12435  1.0000
  H   H831      1.0  0.18186  0.44671  0.07332  1.0000
  H   H832      1.0  0.17442  0.44803  0.10428  1.0000
  C   C498      1.0  0.13664  0.34118  0.99806  1.0000
  H   H833      1.0  0.13964  0.46774  0.11923  1.0000
  C   C499      1.0  0.18134  0.33968  0.11597  1.0000
  Fe  Fe83      1.0  0.05299  0.55905  0.20415  1.0000
  H   H834      1.0  0.23934  0.42031  0.99198  1.0000
  H   H835      1.0  0.22839  0.32808  0.01139  1.0000
  H   H836      1.0  0.12493  0.45399  0.09767  1.0000
  H   H837      1.0  0.16371  0.46552  0.12551  1.0000
  N   N34       1.0  0.15466  0.46652  0.09460  1.0000
  C   C500      1.0  0.48588  0.39628  0.16577  1.0000
  H   H838      1.0  0.23902  0.38991  0.99391  1.0000
  C   C501      1.0  0.46273  0.40744  0.13725  1.0000
  C   C502      1.0  0.03277  0.48739  0.22254  1.0000
  H   H839      1.0  0.17568  0.46762  0.06189  1.0000
  H   H840      1.0  0.48728  0.37528  0.12718  1.0000
  H   H841      1.0  0.17190  0.37772  0.08997  1.0000
  C   C503      1.0  0.17859  0.36756  0.12028  1.0000
  S   S158      1.0  0.03416  0.54769  0.22461  1.0000
  H   H842      1.0  0.20591  0.37965  0.10060  1.0000
  H   H843      1.0  0.16571  0.36748  0.12765  1.0000
  C   C504      1.0  0.17209  0.46965  0.11369  1.0000
  C   C505      1.0  0.43611  0.32467  0.10814  1.0000
  H   H844      1.0  0.46794  0.38127  0.17757  1.0000
  H   H845      1.0  0.13928  0.49817  0.19702  1.0000
  H   H846      1.0  0.48231  0.35126  0.16076  1.0000
  H   H847      1.0  0.07102  0.49553  0.20481  1.0000
  H   H848      1.0  0.16400  0.49446  0.21553  1.0000
  H   H849      1.0  0.18643  0.37149  0.14080  1.0000
  H   H850      1.0  0.01029  0.62821  0.15982  1.0000
  C   C506      1.0  0.20032  0.35694  0.09746  1.0000
  C   C507      1.0  0.17168  0.45580  0.06796  1.0000
  H   H851      1.0  0.18852  0.35008  0.14110  1.0000
  S   S159      1.0  0.06420  0.53581  0.19436  1.0000
  H   H852      1.0  0.08697  0.44625  0.20480  1.0000
  H   H853      1.0  0.16986  0.33932  0.12581  1.0000
  N   N35       1.0  0.03561  0.65350  0.17988  1.0000
  H   H854      1.0  0.15344  0.44496  0.08656  1.0000
  H   H855      1.0  0.17337  0.32793  0.03588  1.0000
  H   H856      1.0  0.13361  0.46519  0.21661  1.0000
  H   H857      1.0  0.25776  0.37597  0.99720  1.0000
  C   C508      1.0  0.13256  0.55051  0.21191  1.0000
  H   H858      1.0  0.06431  0.50148  0.16071  1.0000
  H   H859      1.0  0.19946  0.33348  0.02389  1.0000
  C   C509      1.0  0.15044  0.54778  0.20137  1.0000
  H   H860      1.0  0.45063  0.39228  0.15892  1.0000
  H   H861      1.0  0.17429  0.35867  0.08508  1.0000
  H   H862      1.0  0.20981  0.39098  0.98781  1.0000
  S   S160      1.0  0.45748  0.32700  0.12604  1.0000
  H   H863      1.0  0.12864  0.56405  0.21147  1.0000
  H   H864      1.0  0.45497  0.34489  0.17127  1.0000
  H   H865      1.0  0.01698  0.45491  0.22229  1.0000
  H   H866      1.0  0.47551  0.40677  0.16870  1.0000
  H   H867      1.0  0.48394  0.35013  0.21466  1.0000
  C   C510      1.0  0.46032  0.39020  0.14764  1.0000
  H   H868      1.0  0.47068  0.35746  0.14497  1.0000
  H   H869      1.0  0.15570  0.53461  0.20063  1.0000
  C   C511      1.0  0.18176  0.33751  0.00060  1.0000
  H   H870      1.0  0.15019  0.55481  0.18851  1.0000
  C   C512      1.0  0.22760  0.32731  0.04906  1.0000
  C   C513      1.0  0.20229  0.41692  0.98839  1.0000
  C   C514      1.0  0.24362  0.32780  0.03935  1.0000
  C   C515      1.0  0.17328  0.45269  0.21822  1.0000
  H   H871      1.0  0.44460  0.36591  0.16592  1.0000
  H   H872      1.0  0.15113  0.41066  0.98583  1.0000
  C   C516      1.0  0.09500  0.40854  0.21674  1.0000
  H   H873      1.0  0.00525  0.61757  0.10914  1.0000
  H   H874      1.0  0.10192  0.46750  0.19828  1.0000
  C   C517      1.0  0.16122  0.49407  0.07523  1.0000
  H   H875      1.0  0.16889  0.40524  0.99476  1.0000
  H   H876      1.0  0.99995  0.65189  0.18216  1.0000
  Fe  Fe84      1.0  0.08130  0.53026  0.21176  1.0000
  H   H877      1.0  0.05836  0.50841  0.17966  1.0000
  H   H878      1.0  0.27264  0.39639  0.99544  1.0000
  C   C518      1.0  0.06570  0.48140  0.18274  1.0000
  H   H879      1.0  0.12800  0.48428  0.22342  1.0000
  H   H880      1.0  0.14637  0.44745  0.11503  1.0000
  C   C519      1.0  0.01184  0.61866  0.17060  1.0000
  Fe  Fe85      1.0  0.04700  0.52395  0.21620  1.0000
  H   H881      1.0  0.46926  0.41355  0.14266  1.0000
  C   C520      1.0  0.06745  0.49915  0.17301  1.0000
  C   C521      1.0  0.49017  0.37845  0.13777  1.0000
  H   H882      1.0  0.29268  0.37754  0.98456  1.0000
  C   C522      1.0  0.15228  0.36545  0.10373  1.0000
  H   H883      1.0  0.05298  0.64320  0.19620  1.0000
  C   C523      1.0  0.13659  0.35743  0.99860  1.0000
  N   N36       1.0  0.47557  0.37791  0.15227  1.0000
  C   C524      1.0  0.20545  0.37386  0.09065  1.0000
  C   C525      1.0  0.07585  0.45556  0.20135  1.0000
  H   H884      1.0  0.13588  0.36702  0.98762  1.0000
  H   H885      1.0  0.07979  0.50202  0.17095  1.0000
  H   H886      1.0  0.01607  0.48439  0.20914  1.0000
  C   C526      1.0  0.16727  0.48142  0.22093  1.0000
  H   H887      1.0  0.06000  0.43754  0.21015  1.0000
  H   H888      1.0  0.09077  0.49378  0.20917  1.0000
  H   H889      1.0  0.24030  0.36298  0.98845  1.0000
  H   H890      1.0  0.13739  0.48807  0.08485  1.0000
  N   N37       1.0  0.08108  0.46947  0.18742  1.0000
  H   H891      1.0  0.15929  0.49396  0.06295  1.0000
  H   H892      1.0  0.11644  0.45711  0.11817  1.0000
  C   C527      1.0  0.09178  0.46188  0.17314  1.0000
  C   C528      1.0  0.02359  0.47842  0.21831  1.0000
  H   H893      1.0  0.43676  0.33735  0.10203  1.0000
  C   C529      1.0  0.45612  0.35790  0.16958  1.0000
  C   C530      1.0  0.09645  0.47396  0.15668  1.0000
  H   H894      1.0  0.13620  0.33838  0.98662  1.0000
  H   H895      1.0  0.24627  0.40652  0.00974  1.0000
  H   H896      1.0  0.16576  0.47357  0.19941  1.0000
  H   H897      1.0  0.09833  0.48567  0.18357  1.0000
  H   H898      1.0  0.19163  0.33357  0.12268  1.0000
  H   H899      1.0  0.10363  0.45419  0.17646  1.0000
  H   H900      1.0  0.08576  0.45335  0.17015  1.0000
  H   H901      1.0  0.17176  0.34249  0.01031  1.0000
  C   C531      1.0  0.17112  0.46169  0.09991  1.0000
  C   C532      1.0  0.99847  0.61688  0.18399  1.0000
  H   H902      1.0  0.13655  0.32312  0.03843  1.0000
  H   H903      1.0  0.16975  0.45064  0.05816  1.0000
  H   H904      1.0  0.19231  0.34376  0.99794  1.0000
  C   C533      1.0  0.47925  0.38066  0.16749  1.0000
  H   H905      1.0  0.14984  0.35465  0.11372  1.0000
  H   H906      1.0  0.08559  0.47965  0.15080  1.0000
  H   H907      1.0  0.10595  0.46694  0.14798  1.0000
  H   H908      1.0  0.10203  0.48368  0.15799  1.0000
  H   H909      1.0  0.14511  0.46407  0.07444  1.0000
  H   H910      1.0  0.06252  0.64960  0.17529  1.0000
  S   S161      1.0  0.07161  0.55436  0.21996  1.0000
  H   H911      1.0  0.48815  0.32809  0.09503  1.0000
  C   C534      1.0  0.12494  0.40018  0.21288  1.0000
  H   H912      1.0  0.14662  0.37690  0.10866  1.0000
  H   H913      1.0  0.05714  0.62413  0.16890  1.0000
  C   C535      1.0  0.15540  0.45782  0.08112  1.0000
  N   N38       1.0  0.18279  0.35722  0.10742  1.0000
  H   H914      1.0  0.14578  0.49129  0.09993  1.0000
  H   H915      1.0  0.06925  0.61957  0.18415  1.0000
  H   H916      1.0  0.41967  0.32276  0.09368  1.0000
  C   C536      1.0  0.05666  0.62537  0.18156  1.0000
  C   C537      1.0  0.12449  0.46184  0.10627  1.0000
  H   H917      1.0  0.34144  0.32724  0.99542  1.0000
  H   H918      1.0  0.15895  0.55253  0.20588  1.0000
  H   H919      1.0  0.21816  0.37201  0.08278  1.0000
  C   C538      1.0  0.09164  0.47718  0.19360  1.0000
  H   H920      1.0  0.07066  0.43808  0.18927  1.0000
  H   H921      1.0  0.02273  0.63338  0.19168  1.0000
  H   H922      1.0  0.05275  0.45426  0.19476  1.0000
  S   S162      1.0  0.10862  0.51979  0.20717  1.0000
  C   C539      1.0  0.06422  0.44603  0.19835  1.0000
  H   H923      1.0  0.13616  0.51974  0.21760  1.0000
  S   S163      1.0  0.03201  0.50810  0.21202  1.0000
  H   H924      1.0  0.25394  0.42536  1.00000  1.0000
  H   H925      1.0  0.46170  0.33023  0.05530  1.0000
  H   H926      1.0  0.06903  0.46031  0.21267  1.0000
  C   C540      1.0  0.00063  0.60395  0.19775  1.0000
  N   N39       1.0  0.13031  0.54077  0.22952  1.0000
  C   C541      1.0  0.05225  0.64359  0.18335  1.0000
  S   S164      1.0  0.06524  0.51608  0.23275  1.0000
  H   H927      1.0  0.19344  0.32726  0.09499  1.0000
  H   H928      1.0  0.17093  0.33228  0.09863  1.0000
  H   H929      1.0  0.19554  0.44348  0.98498  1.0000
  H   H930      1.0  0.13319  0.43729  0.22592  1.0000
  H   H931      1.0  0.10513  0.53992  0.22970  1.0000
  C   C542      1.0  0.02210  0.64622  0.19271  1.0000
  H   H932      1.0  0.00811  0.56514  0.17215  1.0000
  H   H933      1.0  0.00636  0.62921  0.12336  1.0000
  C   C543      1.0  0.12329  0.39173  0.22946  1.0000
  H   H934      1.0  0.15073  0.51927  0.22891  1.0000
  H   H935      1.0  0.02156  0.57576  0.15564  1.0000
  H   H936      1.0  0.10321  0.57034  0.22619  1.0000
  H   H937      1.0  0.05981  0.65060  0.14911  1.0000
  H   H938      1.0  0.01678  0.60443  0.14229  1.0000
  C   C544      1.0  0.03375  0.65287  0.16309  1.0000
  S   S165      1.0  0.48577  0.32999  0.19194  1.0000
  H   H939      1.0  0.33975  0.32499  0.03286  1.0000
  H   H940      1.0  0.02381  0.64453  0.20553  1.0000
  C   C545      1.0  0.00918  0.57240  0.15921  1.0000
  C   C546      1.0  0.26519  0.40525  0.98669  1.0000
  C   C547      1.0  0.12490  0.47193  0.22594  1.0000
  C   C548      1.0  0.13667  0.32874  0.01239  1.0000
  H   H941      1.0  0.11200  0.47413  0.22431  1.0000
  H   H942      1.0  0.37094  0.32593  0.00249  1.0000
  H   H943      1.0  0.21870  0.32432  0.99709  1.0000
  H   H944      1.0  0.15339  0.54379  0.23311  1.0000
  C   C549      1.0  0.49530  0.35106  0.20545  1.0000
  H   H945      1.0  0.10570  0.44847  0.23369  1.0000
  H   H946      1.0  0.49280  0.39104  0.13292  1.0000
  H   H947      1.0  0.08775  0.36379  0.23055  1.0000
  H   H948      1.0  0.49376  0.40019  0.15358  1.0000
  H   H949      1.0  0.00867  0.56411  0.15148  1.0000
  C   C550      1.0  0.01063  0.60232  0.13330  1.0000
  C   C551      1.0  0.01152  0.61751  0.11888  1.0000
  H   H950      1.0  0.49415  0.39357  0.17467  1.0000
  H   H951      1.0  0.99781  0.57846  0.12968  1.0000
  C   C552      1.0  0.09341  0.40088  0.23344  1.0000
  C   C553      1.0  0.00410  0.65544  0.19169  1.0000
  H   H952      1.0  0.16514  0.40254  0.32654  1.0000
  H   H953      1.0  0.01517  0.50660  0.30140  1.0000
  H   H954      1.0  0.19980  0.41676  0.36168  1.0000
  H   H955      1.0  0.20513  0.43016  0.33423  1.0000
  Fe  Fe86      1.0  0.15911  0.62431  0.47141  1.0000
  S   S166      1.0  0.27747  0.62887  0.42663  1.0000
  H   H956      1.0  0.37683  0.63392  0.38530  1.0000
  H   H957      1.0  0.23189  0.63003  0.38773  1.0000
  S   S167      1.0  0.31084  0.63400  0.39723  1.0000
  C   C554      1.0  0.02093  0.50960  0.26120  1.0000
  H   H958      1.0  0.14839  0.44790  0.37251  1.0000
  S   S168      1.0  0.26839  0.63761  0.38320  1.0000
  Fe  Fe87      1.0  0.30498  0.62376  0.42445  1.0000
  S   S169      1.0  0.31708  0.59825  0.43604  1.0000
  C   C555      1.0  0.25059  0.52533  0.47413  1.0000
  H   H959      1.0  0.16371  0.41452  0.36745  1.0000
  Fe  Fe88      1.0  0.20169  0.56988  0.39226  1.0000
  S   S170      1.0  0.19853  0.54361  0.39937  1.0000
  S   S171      1.0  0.18002  0.59138  0.39386  1.0000
  Fe  Fe89      1.0  0.23912  0.56054  0.38173  1.0000
  S   S172      1.0  0.23903  0.53336  0.38738  1.0000
  S   S173      1.0  0.26310  0.56967  0.37116  1.0000
  Fe  Fe90      1.0  0.21670  0.54040  0.37539  1.0000
  S   S174      1.0  0.21287  0.53238  0.35319  1.0000
  Fe  Fe91      1.0  0.22093  0.53903  0.41069  1.0000
  S   S175      1.0  0.22236  0.52289  0.43618  1.0000
  S   S176      1.0  0.21856  0.56731  0.36790  1.0000
  S   S177      1.0  0.22233  0.56570  0.40553  1.0000
  C   C556      1.0  0.37933  0.61645  0.41693  1.0000
  S   S178      1.0  0.04779  0.54307  0.26596  1.0000
  H   H960      1.0  0.06506  0.32851  0.25271  1.0000
  Fe  Fe92      1.0  0.04765  0.41905  0.26632  1.0000
  S   S179      1.0  0.07156  0.42342  0.26847  1.0000
  S   S180      1.0  0.03391  0.43272  0.24612  1.0000
  Fe  Fe93      1.0  0.04716  0.38950  0.29536  1.0000
  S   S181      1.0  0.07098  0.39177  0.30061  1.0000
  S   S182      1.0  0.03418  0.36833  0.30960  1.0000
  Fe  Fe94      1.0  0.06077  0.41925  0.29565  1.0000
  S   S183      1.0  0.06306  0.43847  0.30812  1.0000
  Fe  Fe95      1.0  0.07985  0.39585  0.27314  1.0000
  S   S184      1.0  0.10541  0.38424  0.26107  1.0000
  S   S185      1.0  0.03587  0.41676  0.29324  1.0000
  S   S186      1.0  0.05696  0.39174  0.26822  1.0000
  Fe  Fe96      1.0  0.12963  0.50344  0.29905  1.0000
  S   S187      1.0  0.15542  0.50842  0.28984  1.0000
  S   S188      1.0  0.10777  0.52462  0.30245  1.0000
  Fe  Fe97      1.0  0.14184  0.46621  0.30523  1.0000
  S   S189      1.0  0.16869  0.46821  0.29659  1.0000
  S   S190      1.0  0.13543  0.44092  0.31256  1.0000
  Fe  Fe98      1.0  0.16209  0.48833  0.31146  1.0000
  S   S191      1.0  0.17461  0.48806  0.33244  1.0000
  Fe  Fe99      1.0  0.15959  0.48806  0.27589  1.0000
  S   S192      1.0  0.16972  0.49162  0.24808  1.0000
  S   S193      1.0  0.13580  0.48455  0.32144  1.0000
  S   S194      1.0  0.13321  0.48474  0.28381  1.0000
  C   C557      1.0  0.20002  0.62756  0.38654  1.0000
  H   H961      1.0  0.36554  0.60642  0.39709  1.0000
  H   H962      1.0  0.20671  0.61656  0.36494  1.0000
  C   C558      1.0  0.48772  0.56754  0.37750  1.0000
  H   H963      1.0  0.18484  0.41738  0.32767  1.0000
  C   C559      1.0  0.21154  0.61286  0.41081  1.0000
  H   H964      1.0  0.36051  0.65164  0.38163  1.0000
  H   H965      1.0  0.10394  0.32780  0.24496  1.0000
  H   H966      1.0  0.20383  0.45174  0.32568  1.0000
  C   C560      1.0  0.17046  0.47646  0.23701  1.0000
  C   C561      1.0  0.10337  0.56186  0.23843  1.0000
  C   C562      1.0  0.03293  0.35379  0.29890  1.0000
  C   C563      1.0  0.03044  0.33799  0.30773  1.0000
  H   H967      1.0  0.18474  0.54404  0.46703  1.0000
  C   C564      1.0  0.03332  0.34592  0.27352  1.0000
  C   C565      1.0  0.03414  0.35775  0.28179  1.0000
  H   H968      1.0  0.03428  0.34914  0.26027  1.0000
  H   H969      1.0  0.03538  0.37004  0.27491  1.0000
  C   C566      1.0  0.10753  0.39258  0.23987  1.0000
  C   C567      1.0  0.29215  0.60789  0.48048  1.0000
  H   H970      1.0  0.48929  0.65347  0.39911  1.0000
  H   H971      1.0  0.37532  0.58496  0.42171  1.0000
  C   C568      1.0  0.15136  0.44165  0.34827  1.0000
  C   C569      1.0  0.08333  0.43910  0.30892  1.0000
  C   C570      1.0  0.08637  0.45358  0.31124  1.0000
  C   C571      1.0  0.10242  0.45440  0.31189  1.0000
  C   C572      1.0  0.11537  0.44047  0.31100  1.0000
  C   C573      1.0  0.11228  0.42589  0.30897  1.0000
  C   C574      1.0  0.09639  0.42532  0.30755  1.0000
  H   H972      1.0  0.07627  0.46417  0.31265  1.0000
  H   H973      1.0  0.10466  0.46566  0.31359  1.0000
  H   H974      1.0  0.12223  0.41505  0.30833  1.0000
  H   H975      1.0  0.09413  0.41407  0.30588  1.0000
  C   C575      1.0  0.06478  0.53735  0.27573  1.0000
  C   C576      1.0  0.06353  0.54408  0.28927  1.0000
  C   C577      1.0  0.07680  0.53994  0.29734  1.0000
  C   C578      1.0  0.09125  0.52860  0.29231  1.0000
  C   C579      1.0  0.09234  0.52131  0.27912  1.0000
  C   C580      1.0  0.07924  0.52599  0.27056  1.0000
  H   H976      1.0  0.05238  0.55279  0.29337  1.0000
  H   H977      1.0  0.07586  0.54556  0.30756  1.0000
  H   H978      1.0  0.10336  0.51237  0.27537  1.0000
  H   H979      1.0  0.08026  0.52072  0.26011  1.0000
  H   H980      1.0  0.37742  0.64148  0.42232  1.0000
  H   H981      1.0  0.35679  0.64646  0.41039  1.0000
  H   H982      1.0  0.01606  0.52110  0.26610  1.0000
  C   C581      1.0  0.03370  0.45381  0.23763  1.0000
  C   C582      1.0  0.04293  0.46271  0.24205  1.0000
  C   C583      1.0  0.36315  0.63829  0.38758  1.0000
  H   H983      1.0  0.38230  0.60670  0.42788  1.0000
  H   H984      1.0  0.47508  0.61696  0.35067  1.0000
  H   H985      1.0  0.05039  0.45659  0.25121  1.0000
  C   C584      1.0  0.11190  0.54388  0.23693  1.0000
  C   C585      1.0  0.20123  0.52049  0.34811  1.0000
  C   C586      1.0  0.19805  0.52454  0.33203  1.0000
  C   C587      1.0  0.18947  0.51518  0.32715  1.0000
  C   C588      1.0  0.18420  0.50136  0.33819  1.0000
  C   C589      1.0  0.18722  0.49742  0.35432  1.0000
  C   C590      1.0  0.19555  0.50695  0.35929  1.0000
  H   H986      1.0  0.20249  0.53487  0.32319  1.0000
  H   H987      1.0  0.18740  0.51835  0.31467  1.0000
  H   H988      1.0  0.18330  0.48674  0.36298  1.0000
  H   H989      1.0  0.19804  0.50348  0.37161  1.0000
  C   C591      1.0  0.19740  0.44135  0.32803  1.0000
  H   H990      1.0  0.16798  0.43160  0.32054  1.0000
  C   C592      1.0  0.02944  0.32619  0.29949  1.0000
  C   C593      1.0  0.23395  0.52448  0.44988  1.0000
  C   C594      1.0  0.23634  0.53964  0.45134  1.0000
  H   H991      1.0  0.30469  0.57073  0.45877  1.0000
  C   C595      1.0  0.07724  0.34733  0.29429  1.0000
  H   H992      1.0  0.23169  0.55098  0.44321  1.0000
  H   H993      1.0  0.22563  0.63924  0.40477  1.0000
  H   H994      1.0  0.08148  0.35139  0.30348  1.0000
  N   N40       1.0  0.08885  0.33818  0.26615  1.0000
  H   H995      1.0  0.34812  0.64401  0.43727  1.0000
  C   C596      1.0  0.17674  0.44778  0.23417  1.0000
  H   H996      1.0  0.08968  0.45389  0.26915  1.0000
  C   C597      1.0  0.30667  0.59573  0.45673  1.0000
  C   C598      1.0  0.17977  0.44602  0.33846  1.0000
  C   C599      1.0  0.19236  0.63961  0.41152  1.0000
  H   H997      1.0  0.35347  0.58585  0.43134  1.0000
  H   H998      1.0  0.09297  0.47074  0.25135  1.0000
  C   C600      1.0  0.30231  0.60905  0.46466  1.0000
  H   H999      1.0  0.14304  0.43267  0.35384  1.0000
  H   H1000     1.0  0.18884  0.62199  0.39155  1.0000
  Fe  Fe100     1.0  0.28308  0.64105  0.39994  1.0000
  H   H1001     1.0  0.30664  0.62033  0.45858  1.0000
  C   C601      1.0  0.26914  0.61731  0.38161  1.0000
  C   C602      1.0  0.27785  0.61203  0.36701  1.0000
  C   C603      1.0  0.27617  0.59722  0.36414  1.0000
  C   C604      1.0  0.26516  0.58795  0.37548  1.0000
  C   C605      1.0  0.25657  0.59305  0.39021  1.0000
  C   C606      1.0  0.25888  0.60750  0.39347  1.0000
  H   H1002     1.0  0.28558  0.61965  0.35768  1.0000
  H   H1003     1.0  0.28294  0.59329  0.35277  1.0000
  H   H1004     1.0  0.24826  0.58578  0.39907  1.0000
  H   H1005     1.0  0.25211  0.61153  0.40477  1.0000
  C   C607      1.0  0.16653  0.59658  0.44749  1.0000
  C   C608      1.0  0.17530  0.58152  0.44323  1.0000
  C   C609      1.0  0.17916  0.57985  0.42679  1.0000
  C   C610      1.0  0.17387  0.59317  0.41456  1.0000
  C   C611      1.0  0.16457  0.60813  0.41882  1.0000
  C   C612      1.0  0.16107  0.60991  0.43528  1.0000
  H   H1006     1.0  0.17933  0.57116  0.45261  1.0000
  H   H1007     1.0  0.18619  0.56820  0.42363  1.0000
  H   H1008     1.0  0.16033  0.61842  0.40939  1.0000
  H   H1009     1.0  0.15396  0.62146  0.43855  1.0000
  C   C613      1.0  0.03089  0.33013  0.28233  1.0000
  H   H1010     1.0  0.06623  0.35645  0.26357  1.0000
  H   H1011     1.0  0.13315  0.45980  0.36085  1.0000
  H   H1012     1.0  0.49496  0.56909  0.38578  1.0000
  H   H1013     1.0  0.03266  0.51059  0.25199  1.0000
  N   N41       1.0  0.12324  0.44576  0.24905  1.0000
  C   C614      1.0  0.10623  0.44571  0.24700  1.0000
  H   H1014     1.0  0.10898  0.56655  0.24608  1.0000
  C   C615      1.0  0.12683  0.46293  0.24363  1.0000
  C   C616      1.0  0.12401  0.43965  0.26704  1.0000
  C   C617      1.0  0.09158  0.45769  0.25549  1.0000
  C   C618      1.0  0.48269  0.65154  0.36630  1.0000
  C   C619      1.0  0.10536  0.33151  0.25582  1.0000
  C   C620      1.0  0.14099  0.43817  0.27121  1.0000
  H   H1015     1.0  0.47533  0.56584  0.38520  1.0000
  H   H1016     1.0  0.10347  0.43312  0.25193  1.0000
  H   H1017     1.0  0.02389  0.45903  0.31681  1.0000
  H   H1018     1.0  0.38690  0.61150  0.40586  1.0000
  H   H1019     1.0  0.11898  0.47102  0.25225  1.0000
  C   C621      1.0  0.17165  0.42314  0.33192  1.0000
  H   H1020     1.0  0.11491  0.44816  0.27458  1.0000
  H   H1021     1.0  0.11995  0.42762  0.27228  1.0000
  H   H1022     1.0  0.12583  0.53724  0.26384  1.0000
  H   H1023     1.0  0.18975  0.39940  0.37054  1.0000
  H   H1024     1.0  0.17337  0.45680  0.33028  1.0000
  H   H1025     1.0  0.14348  0.41172  0.25618  1.0000
  H   H1026     1.0  0.99787  0.35568  0.29915  1.0000
  H   H1027     1.0  0.47808  0.59333  0.36925  1.0000
  H   H1028     1.0  0.02825  0.51843  0.28670  1.0000
  H   H1029     1.0  0.21879  0.61918  0.47100  1.0000
  H   H1030     1.0  0.06835  0.35806  0.28893  1.0000
  H   H1031     1.0  0.14144  0.44969  0.27457  1.0000
  H   H1032     1.0  0.15173  0.43560  0.26107  1.0000
  H   H1033     1.0  0.14296  0.42758  0.28174  1.0000
  H   H1034     1.0  0.35389  0.60625  0.44208  1.0000
  N   N42       1.0  0.28516  0.55731  0.42414  1.0000
  C   C622      1.0  0.27911  0.54203  0.42464  1.0000
  C   C623      1.0  0.29828  0.55182  0.43442  1.0000
  C   C624      1.0  0.29299  0.56374  0.40640  1.0000
  C   C625      1.0  0.27051  0.57000  0.43056  1.0000
  C   C626      1.0  0.26672  0.54428  0.41356  1.0000
  C   C627      1.0  0.29242  0.54376  0.45274  1.0000
  C   C628      1.0  0.30000  0.57948  0.40282  1.0000
  C   C629      1.0  0.27418  0.58341  0.43740  1.0000
  H   H1035     1.0  0.28978  0.53190  0.42119  1.0000
  H   H1036     1.0  0.27272  0.53698  0.43737  1.0000
  H   H1037     1.0  0.30393  0.56211  0.43428  1.0000
  H   H1038     1.0  0.30892  0.54269  0.42904  1.0000
  H   H1039     1.0  0.30322  0.55395  0.40156  1.0000
  H   H1040     1.0  0.28387  0.56690  0.39833  1.0000
  H   H1041     1.0  0.26329  0.57651  0.42084  1.0000
  H   H1042     1.0  0.26176  0.56372  0.44079  1.0000
  H   H1043     1.0  0.26105  0.53320  0.41715  1.0000
  H   H1044     1.0  0.25640  0.55515  0.41489  1.0000
  H   H1045     1.0  0.27308  0.54514  0.40037  1.0000
  H   H1046     1.0  0.19568  0.63952  0.37845  1.0000
  H   H1047     1.0  0.48798  0.59696  0.33142  1.0000
  H   H1048     1.0  0.30219  0.54239  0.45965  1.0000
  H   H1049     1.0  0.28996  0.59042  0.40499  1.0000
  H   H1050     1.0  0.30590  0.58231  0.38947  1.0000
  H   H1051     1.0  0.30972  0.57804  0.40977  1.0000
  H   H1052     1.0  0.26572  0.59542  0.43367  1.0000
  H   H1053     1.0  0.28691  0.58574  0.43302  1.0000
  H   H1054     1.0  0.27117  0.58056  0.45114  1.0000
  H   H1055     1.0  0.46960  0.64162  0.39057  1.0000
  H   H1056     1.0  0.49371  0.55595  0.37295  1.0000
  H   H1057     1.0  0.18107  0.45096  0.34873  1.0000
  H   H1058     1.0  0.35767  0.63190  0.38129  1.0000
  C   C630      1.0  0.13854  0.53861  0.25710  1.0000
  N   N43       1.0  0.03509  0.49251  0.28555  1.0000
  C   C631      1.0  0.02286  0.49388  0.27507  1.0000
  C   C632      1.0  0.03669  0.47545  0.29656  1.0000
  C   C633      1.0  0.05161  0.49451  0.27409  1.0000
  C   C634      1.0  0.02848  0.50610  0.29521  1.0000
  C   C635      1.0  0.38634  0.63155  0.41662  1.0000
  H   H1059     1.0  0.11187  0.35576  0.24277  1.0000
  C   C636      1.0  0.06739  0.48723  0.28132  1.0000
  C   C637      1.0  0.03809  0.50619  0.30809  1.0000
  H   H1060     1.0  0.02629  0.48302  0.26906  1.0000
  C   C638      1.0  0.02070  0.47146  0.30879  1.0000
  H   H1061     1.0  0.04608  0.47305  0.30415  1.0000
  H   H1062     1.0  0.04138  0.46582  0.28889  1.0000
  H   H1063     1.0  0.05375  0.48845  0.26350  1.0000
  H   H1064     1.0  0.05162  0.50783  0.26865  1.0000
  S   S195      1.0  0.18175  0.63200  0.47286  1.0000
  S   S196      1.0  0.14962  0.64824  0.45505  1.0000
  H   H1065     1.0  0.08120  0.40156  0.24128  1.0000
  H   H1066     1.0  0.39657  0.62722  0.42351  1.0000
  H   H1067     1.0  0.02933  0.51211  0.31804  1.0000
  H   H1068     1.0  0.01529  0.48040  0.31704  1.0000
  H   H1069     1.0  0.36388  0.62843  0.44688  1.0000
  H   H1070     1.0  0.24593  0.55173  0.46510  1.0000
  H   H1071     1.0  0.06704  0.49203  0.29218  1.0000
  H   H1072     1.0  0.07829  0.49066  0.27179  1.0000
  H   H1073     1.0  0.06980  0.47351  0.28447  1.0000
  H   H1074     1.0  0.04798  0.51345  0.30234  1.0000
  H   H1075     1.0  0.04356  0.49376  0.31454  1.0000
  H   H1076     1.0  0.23795  0.49822  0.45973  1.0000
  H   H1077     1.0  0.12526  0.41230  0.24893  1.0000
  H   H1078     1.0  0.08347  0.34337  0.23451  1.0000
  H   H1079     1.0  0.14758  0.44872  0.33648  1.0000
  H   H1080     1.0  0.13981  0.46256  0.24423  1.0000
  H   H1081     1.0  0.21753  0.64275  0.48166  1.0000
  C   C639      1.0  0.24837  0.51033  0.47237  1.0000
  H   H1082     1.0  0.14843  0.43722  0.23617  1.0000
  C   C640      1.0  0.36251  0.58833  0.41949  1.0000
  H   H1083     1.0  0.19536  0.40533  0.34896  1.0000
  S   S197      1.0  0.16270  0.59836  0.46811  1.0000
  N   N44       1.0  0.16024  0.56206  0.36378  1.0000
  C   C641      1.0  0.15967  0.54386  0.36832  1.0000
  C   C642      1.0  0.14917  0.57038  0.35153  1.0000
  C   C643      1.0  0.15373  0.56890  0.37936  1.0000
  C   C644      1.0  0.17807  0.56349  0.35655  1.0000
  C   C645      1.0  0.16804  0.53325  0.38269  1.0000
  C   C646      1.0  0.15446  0.56445  0.33503  1.0000
  C   C647      1.0  0.14660  0.58770  0.37738  1.0000
  C   C648      1.0  0.18163  0.58102  0.34945  1.0000
  H   H1084     1.0  0.14656  0.54221  0.37172  1.0000
  H   H1085     1.0  0.16582  0.53779  0.35762  1.0000
  H   H1086     1.0  0.14808  0.58398  0.34820  1.0000
  H   H1087     1.0  0.13621  0.56864  0.35719  1.0000
  H   H1088     1.0  0.14345  0.56298  0.38762  1.0000
  H   H1089     1.0  0.16361  0.56587  0.38665  1.0000
  H   H1090     1.0  0.18572  0.55780  0.36608  1.0000
  H   H1091     1.0  0.18390  0.55606  0.34686  1.0000
  H   H1092     1.0  0.16653  0.52030  0.38486  1.0000
  H   H1093     1.0  0.18159  0.53277  0.37964  1.0000
  H   H1094     1.0  0.16237  0.53745  0.39449  1.0000
  H   H1095     1.0  0.15362  0.55136  0.33673  1.0000
  H   H1096     1.0  0.14584  0.57198  0.32683  1.0000
  H   H1097     1.0  0.16715  0.56614  0.32837  1.0000
  H   H1098     1.0  0.13457  0.59122  0.37334  1.0000
  H   H1099     1.0  0.15530  0.59527  0.36888  1.0000
  H   H1100     1.0  0.14405  0.59104  0.38961  1.0000
  H   H1101     1.0  0.18325  0.58634  0.35927  1.0000
  H   H1102     1.0  0.17217  0.58970  0.34293  1.0000
  H   H1103     1.0  0.19336  0.58022  0.33991  1.0000
  C   C649      1.0  0.35503  0.63607  0.40617  1.0000
  H   H1104     1.0  0.47693  0.58074  0.35636  1.0000
  H   H1105     1.0  0.33722  0.62039  0.43379  1.0000
  C   C650      1.0  0.30130  0.58102  0.46486  1.0000
  H   H1106     1.0  0.18068  0.43475  0.23929  1.0000
  C   C651      1.0  0.07946  0.35398  0.25707  1.0000
  H   H1107     1.0  0.29051  0.53108  0.45413  1.0000
  H   H1108     1.0  0.15333  0.46435  0.35485  1.0000
  H   H1109     1.0  0.12922  0.51156  0.25549  1.0000
  H   H1110     1.0  0.06646  0.32955  0.28034  1.0000
  C   C652      1.0  0.19059  0.41042  0.36027  1.0000
  H   H1111     1.0  0.11612  0.51048  0.24237  1.0000
  H   H1112     1.0  0.14718  0.52635  0.25870  1.0000
  H   H1113     1.0  0.01131  0.47068  0.30238  1.0000
  H   H1114     1.0  0.19873  0.58000  0.46733  1.0000
  H   H1115     1.0  0.20421  0.61730  0.43635  1.0000
  H   H1116     1.0  0.08442  0.36470  0.25730  1.0000
  H   H1117     1.0  0.20181  0.60545  0.41353  1.0000
  H   H1118     1.0  0.10041  0.33058  0.28749  1.0000
  C   C653      1.0  0.16202  0.40902  0.33695  1.0000
  S   S198      1.0  0.30475  0.64710  0.43186  1.0000
  H   H1119     1.0  0.07075  0.33713  0.30131  1.0000
  N   N45       1.0  0.20620  0.62986  0.40054  1.0000
  H   H1120     1.0  0.34483  0.60887  0.40889  1.0000
  H   H1121     1.0  0.20614  0.55960  0.46357  1.0000
  H   H1122     1.0  0.10907  0.53635  0.24953  1.0000
  C   C654      1.0  0.21254  0.61664  0.37507  1.0000
  C   C655      1.0  0.12903  0.50991  0.24322  1.0000
  H   H1123     1.0  0.49256  0.45558  0.26344  1.0000
  C   C656      1.0  0.21540  0.61228  0.42762  1.0000
  H   H1124     1.0  0.02942  0.33482  0.32099  1.0000
  H   H1125     1.0  0.18440  0.63137  0.42052  1.0000
  H   H1126     1.0  0.34134  0.63834  0.40723  1.0000
  H   H1127     1.0  0.39220  0.63695  0.40380  1.0000
  H   H1128     1.0  0.13610  0.49723  0.24213  1.0000
  C   C657      1.0  0.24429  0.54009  0.46376  1.0000
  C   C658      1.0  0.29075  0.58000  0.48053  1.0000
  Fe  Fe101     1.0  0.05394  0.54071  0.23955  1.0000
  C   C659      1.0  0.09247  0.34168  0.28109  1.0000
  H   H1129     1.0  0.99827  0.38097  0.27754  1.0000
  C   C660      1.0  0.23979  0.50996  0.46066  1.0000
  H   H1130     1.0  0.09965  0.35167  0.27737  1.0000
  C   C661      1.0  0.35810  0.60637  0.40989  1.0000
  H   H1131     1.0  0.28087  0.55125  0.45886  1.0000
  H   H1132     1.0  0.19690  0.43986  0.31571  1.0000
  C   C662      1.0  0.17499  0.45954  0.24365  1.0000
  N   N46       1.0  0.36106  0.61959  0.41683  1.0000
  C   C663      1.0  0.35150  0.63101  0.44377  1.0000
  H   H1133     1.0  0.34232  0.62960  0.45570  1.0000
  C   C664      1.0  0.22105  0.63794  0.39430  1.0000
  C   C665      1.0  0.13587  0.43470  0.23849  1.0000
  H   H1134     1.0  0.17247  0.42981  0.36985  1.0000
  H   H1135     1.0  0.21969  0.59913  0.43351  1.0000
  H   H1136     1.0  0.22547  0.61878  0.42629  1.0000
  H   H1137     1.0  0.21566  0.60353  0.38157  1.0000
  H   H1138     1.0  0.17772  0.45553  0.25589  1.0000
  N   N47       1.0  0.16943  0.43290  0.34493  1.0000
  H   H1139     1.0  0.16553  0.39968  0.34785  1.0000
  H   H1140     1.0  0.22406  0.62144  0.36919  1.0000
  C   C666      1.0  0.07972  0.35520  0.23867  1.0000
  H   H1141     1.0  0.14837  0.41369  0.33920  1.0000
  H   H1142     1.0  0.14185  0.54677  0.26332  1.0000
  H   H1143     1.0  0.12828  0.33814  0.24006  1.0000
  H   H1144     1.0  0.07999  0.45722  0.25219  1.0000
  C   C667      1.0  0.13985  0.54656  0.23860  1.0000
  H   H1145     1.0  0.22287  0.60578  0.40391  1.0000
  C   C668      1.0  0.35055  0.61864  0.43410  1.0000
  C   C669      1.0  0.14659  0.45403  0.35983  1.0000
  H   H1146     1.0  0.12286  0.34479  0.25914  1.0000
  C   C670      1.0  0.46887  0.65099  0.37935  1.0000
  C   C671      1.0  0.13744  0.41595  0.24539  1.0000
  H   H1147     1.0  0.01015  0.49368  0.28278  1.0000
  H   H1148     1.0  0.36171  0.57983  0.41205  1.0000
  C   C672      1.0  0.17331  0.42206  0.36099  1.0000
  H   H1149     1.0  0.01184  0.50892  0.25433  1.0000
  C   C673      1.0  0.22600  0.61717  0.48066  1.0000
  C   C674      1.0  0.07856  0.32502  0.27239  1.0000
  H   H1150     1.0  0.25340  0.49884  0.48008  1.0000
  C   C675      1.0  0.11762  0.34337  0.24918  1.0000
  Fe  Fe102     1.0  0.27757  0.65333  0.43129  1.0000
  C   C676      1.0  0.18002  0.65389  0.40309  1.0000
  C   C677      1.0  0.48531  0.58281  0.36327  1.0000
  H   H1151     1.0  0.00060  0.36322  0.26963  1.0000
  H   H1152     1.0  0.09016  0.56212  0.24483  1.0000
  H   H1153     1.0  0.13688  0.56028  0.23704  1.0000
  H   H1154     1.0  0.23902  0.61756  0.47411  1.0000
  H   H1155     1.0  0.19760  0.64480  0.41915  1.0000
  C   C678      1.0  0.21869  0.65536  0.38312  1.0000
  H   H1156     1.0  0.19153  0.52228  0.46897  1.0000
  C   C679      1.0  0.20333  0.56693  0.47321  1.0000
  H   H1157     1.0  0.13424  0.38515  0.23437  1.0000
  H   H1158     1.0  0.17203  0.64910  0.39792  1.0000
  H   H1159     1.0  0.06701  0.36093  0.23634  1.0000
  H   H1160     1.0  0.21483  0.56667  0.47706  1.0000
  C   C680      1.0  0.18647  0.53223  0.47618  1.0000
  H   H1161     1.0  0.21102  0.53279  0.47802  1.0000
  C   C681      1.0  0.48692  0.61760  0.34151  1.0000
  H   H1162     1.0  0.48378  0.62628  0.33007  1.0000
  H   H1163     1.0  0.04984  0.48639  0.23747  1.0000
  H   H1164     1.0  0.14553  0.40925  0.23570  1.0000
  H   H1165     1.0  0.49220  0.64450  0.41977  1.0000
  H   H1166     1.0  0.49273  0.48315  0.26725  1.0000
  H   H1167     1.0  0.17822  0.56342  0.48314  1.0000
  H   H1168     1.0  0.49480  0.62321  0.34586  1.0000
  H   H1169     1.0  0.49313  0.55855  0.34518  1.0000
  C   C682      1.0  0.49617  0.60063  0.33737  1.0000
  H   H1170     1.0  0.99699  0.33251  0.28997  1.0000
  C   C683      1.0  0.04256  0.47954  0.23437  1.0000
  H   H1171     1.0  0.33746  0.58502  0.49947  1.0000
  S   S199      1.0  0.39073  0.34074  0.66304  1.0000
  C   C684      1.0  0.44220  0.35333  0.57274  1.0000
  H   H1172     1.0  0.34055  0.40490  0.71153  1.0000
  H   H1173     1.0  0.35858  0.39559  0.72074  1.0000
  H   H1174     1.0  0.22565  0.51865  0.51165  1.0000
  S   S200      1.0  0.17318  0.63683  0.51918  1.0000
  H   H1175     1.0  0.38415  0.47754  0.72469  1.0000
  Fe  Fe103     1.0  0.23206  0.55558  0.53281  1.0000
  S   S201      1.0  0.24633  0.52933  0.53417  1.0000
  S   S202      1.0  0.20489  0.56159  0.54383  1.0000
  Fe  Fe104     1.0  0.26235  0.56972  0.51560  1.0000
  S   S203      1.0  0.27893  0.54476  0.51515  1.0000
  S   S204      1.0  0.27256  0.59272  0.50755  1.0000
  Fe  Fe105     1.0  0.25798  0.53903  0.50768  1.0000
  H   H1176     1.0  0.20133  0.51858  0.49390  1.0000
  Fe  Fe106     1.0  0.26558  0.53804  0.54149  1.0000
  S   S205      1.0  0.28059  0.52458  0.56125  1.0000
  S   S206      1.0  0.24247  0.56478  0.50600  1.0000
  S   S207      1.0  0.25019  0.56344  0.54224  1.0000
  H   H1177     1.0  0.21956  0.54409  0.49599  1.0000
  H   H1178     1.0  0.45200  0.41352  0.65076  1.0000
  N   N48       1.0  0.27410  0.54220  0.72525  1.0000
  Fe  Fe107     1.0  0.39218  0.56567  0.71020  1.0000
  S   S208      1.0  0.38006  0.57573  0.68808  1.0000
  S   S209      1.0  0.41871  0.56821  0.70544  1.0000
  Fe  Fe108     1.0  0.41953  0.40761  0.68829  1.0000
  S   S210      1.0  0.39436  0.40919  0.70491  1.0000
  S   S211      1.0  0.43152  0.38921  0.67163  1.0000
  Fe  Fe109     1.0  0.42429  0.43948  0.69529  1.0000
  S   S212      1.0  0.39933  0.44374  0.71228  1.0000
  S   S213      1.0  0.44370  0.45523  0.68759  1.0000
  C   C685      1.0  0.48036  0.37919  0.68415  1.0000
  C   C686      1.0  0.34116  0.48860  0.70902  1.0000
  Fe  Fe110     1.0  0.39044  0.43621  0.69351  1.0000
  S   S214      1.0  0.36580  0.44715  0.68658  1.0000
  S   S215      1.0  0.43131  0.41240  0.70665  1.0000
  S   S216      1.0  0.41480  0.43432  0.67547  1.0000
  Fe  Fe111     1.0  0.30330  0.51896  0.66079  1.0000
  S   S217      1.0  0.32453  0.52250  0.66914  1.0000
  S   S218      1.0  0.28886  0.49871  0.67219  1.0000
  Fe  Fe112     1.0  0.30530  0.54815  0.63144  1.0000
  S   S219      1.0  0.32679  0.55458  0.63747  1.0000
  S   S220      1.0  0.29235  0.56248  0.61036  1.0000
  Fe  Fe113     1.0  0.33663  0.52712  0.64223  1.0000
  S   S221      1.0  0.36357  0.51512  0.63574  1.0000
  Fe  Fe114     1.0  0.31308  0.54952  0.66394  1.0000
  S   S222      1.0  0.31158  0.56201  0.68455  1.0000
  S   S223      1.0  0.31638  0.52103  0.63416  1.0000
  S   S224      1.0  0.29054  0.54571  0.65763  1.0000
  S   S225      1.0  0.39733  0.53833  0.72040  1.0000
  C   C687      1.0  0.27913  0.47551  0.69900  1.0000
  C   C688      1.0  0.28837  0.48794  0.69280  1.0000
  C   C689      1.0  0.29657  0.49159  0.70314  1.0000
  H   H1179     1.0  0.47120  0.41916  0.63828  1.0000
  H   H1180     1.0  0.27281  0.47259  0.69107  1.0000
  H   H1181     1.0  0.30389  0.50102  0.69830  1.0000
  C   C690      1.0  0.36592  0.46515  0.67121  1.0000
  C   C691      1.0  0.35100  0.47388  0.66658  1.0000
  C   C692      1.0  0.35054  0.48884  0.65501  1.0000
  C   C693      1.0  0.36497  0.49518  0.64810  1.0000
  C   C694      1.0  0.38009  0.48608  0.65215  1.0000
  C   C695      1.0  0.38055  0.47107  0.66383  1.0000
  H   H1182     1.0  0.33967  0.46929  0.67219  1.0000
  H   H1183     1.0  0.33891  0.49556  0.65164  1.0000
  H   H1184     1.0  0.39127  0.49095  0.64674  1.0000
  H   H1185     1.0  0.39209  0.46442  0.66745  1.0000
  C   C696      1.0  0.36097  0.57157  0.68769  1.0000
  C   C697      1.0  0.35695  0.57374  0.67231  1.0000
  C   C698      1.0  0.34206  0.57036  0.67131  1.0000
  C   C699      1.0  0.33063  0.56559  0.68572  1.0000
  C   C700      1.0  0.33439  0.56382  0.70117  1.0000
  C   C701      1.0  0.34972  0.56644  0.70217  1.0000
  H   H1186     1.0  0.36535  0.57814  0.66107  1.0000
  H   H1187     1.0  0.33916  0.57199  0.65937  1.0000
  H   H1188     1.0  0.32555  0.56022  0.71238  1.0000
  H   H1189     1.0  0.35262  0.56492  0.71409  1.0000
  C   C702      1.0  0.44336  0.50388  0.70115  1.0000
  C   C703      1.0  0.42924  0.49679  0.70759  1.0000
  C   C704      1.0  0.42920  0.48146  0.70416  1.0000
  C   C705      1.0  0.44313  0.47347  0.69402  1.0000
  C   C706      1.0  0.45723  0.48045  0.68803  1.0000
  C   C707      1.0  0.45738  0.49542  0.69166  1.0000
  C   C708      1.0  0.43840  0.34119  0.54424  1.0000
  H   H1190     1.0  0.41846  0.47587  0.70925  1.0000
  H   H1191     1.0  0.46810  0.47435  0.68035  1.0000
  H   H1192     1.0  0.46838  0.50067  0.68677  1.0000
  C   C709      1.0  0.28394  0.53556  0.57448  1.0000
  C   C710      1.0  0.27361  0.55072  0.57712  1.0000
  C   C711      1.0  0.27630  0.55885  0.58816  1.0000
  C   C712      1.0  0.28927  0.55185  0.59674  1.0000
  C   C713      1.0  0.29967  0.53675  0.59402  1.0000
  C   C714      1.0  0.29702  0.52867  0.58292  1.0000
  H   H1193     1.0  0.26331  0.55604  0.57099  1.0000
  H   H1194     1.0  0.26817  0.57052  0.59022  1.0000
  H   H1195     1.0  0.30991  0.53141  0.60028  1.0000
  H   H1196     1.0  0.30514  0.51699  0.58090  1.0000
  C   C715      1.0  0.45688  0.63837  0.72283  1.0000
  C   C716      1.0  0.18174  0.61585  0.52604  1.0000
  C   C717      1.0  0.18661  0.60488  0.51528  1.0000
  C   C718      1.0  0.19436  0.58838  0.52055  1.0000
  C   C719      1.0  0.19649  0.58257  0.53685  1.0000
  C   C720      1.0  0.19146  0.59347  0.54770  1.0000
  C   C721      1.0  0.18436  0.61017  0.54221  1.0000
  H   H1197     1.0  0.18459  0.60910  0.50283  1.0000
  H   H1198     1.0  0.19848  0.58015  0.51205  1.0000
  H   H1199     1.0  0.19309  0.58901  0.56032  1.0000
  H   H1200     1.0  0.18062  0.61862  0.55057  1.0000
  H   H1201     1.0  0.42486  0.57471  0.66863  1.0000
  C   C722      1.0  0.40292  0.35293  0.66629  1.0000
  C   C723      1.0  0.41825  0.35478  0.65575  1.0000
  C   C724      1.0  0.42711  0.36559  0.65781  1.0000
  C   C725      1.0  0.42074  0.37463  0.67042  1.0000
  C   C726      1.0  0.40563  0.37242  0.68125  1.0000
  C   C727      1.0  0.39674  0.36166  0.67915  1.0000
  H   H1202     1.0  0.42318  0.34806  0.64584  1.0000
  H   H1203     1.0  0.43883  0.36711  0.64944  1.0000
  H   H1204     1.0  0.40072  0.37907  0.69117  1.0000
  H   H1205     1.0  0.38497  0.36018  0.68742  1.0000
  Fe  Fe115     1.0  0.41316  0.57305  0.73119  1.0000
  H   H1206     1.0  0.32805  0.54644  0.52748  1.0000
  H   H1207     1.0  0.04175  0.64162  0.56530  1.0000
  H   H1208     1.0  0.37445  0.39129  0.65156  1.0000
  H   H1209     1.0  0.39070  0.49676  0.71769  1.0000
  N   N49       1.0  0.47712  0.41055  0.67058  1.0000
  C   C728      1.0  0.47015  0.39505  0.67507  1.0000
  C   C729      1.0  0.46434  0.42456  0.66341  1.0000
  C   C730      1.0  0.47909  0.41380  0.68635  1.0000
  H   H1210     1.0  0.06361  0.63722  0.54106  1.0000
  N   N50       1.0  0.45074  0.33125  0.55480  1.0000
  H   H1211     1.0  0.36356  0.44648  0.72172  1.0000
  H   H1212     1.0  0.26322  0.62770  0.50984  1.0000
  H   H1213     1.0  0.43348  0.36211  0.56531  1.0000
  H   H1214     1.0  0.48752  0.40317  0.69262  1.0000
  C   C731      1.0  0.45624  0.34224  0.56254  1.0000
  H   H1215     1.0  0.16734  0.54443  0.50473  1.0000
  H   H1216     1.0  0.34746  0.47908  0.70151  1.0000
  H   H1217     1.0  0.47916  0.44070  0.67870  1.0000
  H   H1218     1.0  0.30311  0.52748  0.70409  1.0000
  H   H1219     1.0  0.46450  0.33469  0.57109  1.0000
  H   H1220     1.0  0.07158  0.63918  0.55736  1.0000
  H   H1221     1.0  0.31381  0.53745  0.54523  1.0000
  H   H1222     1.0  0.34288  0.38431  0.72361  1.0000
  H   H1223     1.0  0.20454  0.63966  0.52001  1.0000
  H   H1224     1.0  0.30113  0.48601  0.72793  1.0000
  H   H1225     1.0  0.46689  0.41522  0.69525  1.0000
  C   C732      1.0  0.22937  0.61368  0.51472  1.0000
  H   H1226     1.0  0.27057  0.51978  0.70849  1.0000
  H   H1227     1.0  0.20525  0.62973  0.49654  1.0000
  H   H1228     1.0  0.28214  0.54909  0.69850  1.0000
  N   N51       1.0  0.36742  0.49718  0.71147  1.0000
  C   C733      1.0  0.27792  0.46685  0.71544  1.0000
  H   H1229     1.0  0.38785  0.54790  0.63918  1.0000
  H   H1230     1.0  0.32077  0.57468  0.50334  1.0000
  H   H1231     1.0  0.39246  0.56081  0.65879  1.0000
  H   H1232     1.0  0.17924  0.52685  0.51541  1.0000
  C   C734      1.0  0.29510  0.48306  0.71979  1.0000
  C   C735      1.0  0.28092  0.59179  0.54913  1.0000
  H   H1233     1.0  0.36224  0.32691  0.57252  1.0000
  C   C736      1.0  0.19896  0.53149  0.48659  1.0000
  H   H1234     1.0  0.27072  0.45727  0.72010  1.0000
  C   C737      1.0  0.37952  0.49122  0.72294  1.0000
  H   H1235     1.0  0.41717  0.52100  0.67754  1.0000
  C   C738      1.0  0.36393  0.44097  0.64263  1.0000
  H   H1236     1.0  0.41849  0.50306  0.71524  1.0000
  H   H1237     1.0  0.37276  0.44631  0.64592  1.0000
  H   H1238     1.0  0.35288  0.44025  0.65293  1.0000
  H   H1239     1.0  0.25150  0.53466  0.70592  1.0000
  H   H1240     1.0  0.33693  0.50053  0.70092  1.0000
  H   H1241     1.0  0.43390  0.36202  0.52386  1.0000
  H   H1242     1.0  0.37474  0.42650  0.62369  1.0000
  C   C739      1.0  0.36297  0.51585  0.70826  1.0000
  C   C740      1.0  0.26528  0.53265  0.70298  1.0000
  H   H1243     1.0  0.31075  0.53386  0.71874  1.0000
  H   H1244     1.0  0.23579  0.59850  0.53764  1.0000
  C   C741      1.0  0.49365  0.40774  0.65864  1.0000
  H   H1245     1.0  0.47513  0.36846  0.68453  1.0000
  H   H1246     1.0  0.10788  0.63368  0.51642  1.0000
  C   C742      1.0  0.06438  0.64641  0.54773  1.0000
  H   H1247     1.0  0.33423  0.43408  0.70568  1.0000
  H   H1248     1.0  0.46399  0.35034  0.55305  1.0000
  H   H1249     1.0  0.44577  0.63287  0.72543  1.0000
  H   H1250     1.0  0.08853  0.62777  0.52640  1.0000
  C   C743      1.0  0.34493  0.39687  0.72258  1.0000
  H   H1251     1.0  0.49360  0.37664  0.67778  1.0000
  H   H1252     1.0  0.09010  0.64407  0.50790  1.0000
  H   H1253     1.0  0.48605  0.64357  0.72153  1.0000
  H   H1254     1.0  0.21779  0.60893  0.51735  1.0000
  H   H1255     1.0  0.22197  0.64337  0.52427  1.0000
  C   C744      1.0  0.27108  0.54591  0.70797  1.0000
  C   C745      1.0  0.21835  0.63083  0.49083  1.0000
  C   C746      1.0  0.29775  0.59189  0.53671  1.0000
  C   C747      1.0  0.17846  0.54036  0.51043  1.0000
  Fe  Fe116     1.0  0.16542  0.64109  0.49517  1.0000
  H   H1256     1.0  0.28597  0.56892  0.48638  1.0000
  C   C748      1.0  0.28576  0.47068  0.72592  1.0000
  H   H1257     1.0  0.37068  0.39407  0.67784  1.0000
  H   H1258     1.0  0.48587  0.43046  0.69737  1.0000
  H   H1259     1.0  0.43527  0.54571  0.66658  1.0000
  N   N52       1.0  0.38561  0.41294  0.64480  1.0000
  H   H1260     1.0  0.46789  0.43671  0.66049  1.0000
  S   S226      1.0  0.44432  0.52345  0.70379  1.0000
  C   C749      1.0  0.17410  0.54879  0.52533  1.0000
  H   H1261     1.0  0.35925  0.45019  0.63217  1.0000
  C   C750      1.0  0.30335  0.56307  0.53404  1.0000
  H   H1262     1.0  0.26965  0.53342  0.68947  1.0000
  C   C751      1.0  0.42049  0.52385  0.66374  1.0000
  C   C752      1.0  0.31331  0.57054  0.55532  1.0000
  H   H1263     1.0  0.16192  0.54650  0.53310  1.0000
  H   H1264     1.0  0.35533  0.52014  0.71964  1.0000
  C   C753      1.0  0.40200  0.41709  0.63487  1.0000
  H   H1265     1.0  0.44787  0.36081  0.57764  1.0000
  H   H1266     1.0  0.26673  0.57818  0.71312  1.0000
  H   H1267     1.0  0.42622  0.34584  0.55206  1.0000
  H   H1268     1.0  0.27654  0.58204  0.72720  1.0000
  C   C754      1.0  0.46002  0.42268  0.64772  1.0000
  H   H1269     1.0  0.20447  0.51689  0.51998  1.0000
  H   H1270     1.0  0.43301  0.53294  0.61963  1.0000
  S   S227      1.0  0.41071  0.33658  0.61725  1.0000
  C   C755      1.0  0.48636  0.42896  0.68475  1.0000
  H   H1271     1.0  0.30330  0.56447  0.56372  1.0000
  N   N53       1.0  0.26350  0.50914  0.62595  1.0000
  C   C756      1.0  0.26618  0.50287  0.61033  1.0000
  C   C757      1.0  0.28023  0.50541  0.63050  1.0000
  C   C758      1.0  0.25681  0.52764  0.62223  1.0000
  C   C759      1.0  0.25117  0.50041  0.63906  1.0000
  C   C760      1.0  0.25148  0.50836  0.60136  1.0000
  C   C761      1.0  0.28840  0.48691  0.63500  1.0000
  C   C762      1.0  0.25919  0.53788  0.63348  1.0000
  C   C763      1.0  0.24769  0.50357  0.65666  1.0000
  H   H1272     1.0  0.27706  0.50684  0.60107  1.0000
  H   H1273     1.0  0.26923  0.48910  0.61282  1.0000
  H   H1274     1.0  0.27972  0.51071  0.64109  1.0000
  H   H1275     1.0  0.28915  0.51149  0.62021  1.0000
  H   H1276     1.0  0.26287  0.53320  0.60957  1.0000
  H   H1277     1.0  0.24328  0.53045  0.62226  1.0000
  H   H1278     1.0  0.23886  0.50395  0.63555  1.0000
  H   H1279     1.0  0.25464  0.48676  0.63993  1.0000
  H   H1280     1.0  0.24004  0.50449  0.60930  1.0000
  H   H1281     1.0  0.24885  0.52193  0.59633  1.0000
  H   H1282     1.0  0.25492  0.50244  0.59051  1.0000
  H   H1283     1.0  0.29134  0.48069  0.62447  1.0000
  H   H1284     1.0  0.30039  0.48591  0.63840  1.0000
  H   H1285     1.0  0.28068  0.48025  0.64597  1.0000
  H   H1286     1.0  0.25279  0.55097  0.62977  1.0000
  H   H1287     1.0  0.27249  0.53811  0.63182  1.0000
  H   H1288     1.0  0.25393  0.53365  0.64669  1.0000
  H   H1289     1.0  0.23715  0.51425  0.65842  1.0000
  H   H1290     1.0  0.25853  0.50559  0.65999  1.0000
  H   H1291     1.0  0.24445  0.49240  0.66582  1.0000
  H   H1292     1.0  0.44379  0.51839  0.64511  1.0000
  H   H1293     1.0  0.44100  0.50254  0.66314  1.0000
  C   C764      1.0  0.42067  0.56978  0.66004  1.0000
  H   H1294     1.0  0.28234  0.58850  0.56216  1.0000
  S   S228      1.0  0.14348  0.63162  0.49486  1.0000
  N   N54       1.0  0.22742  0.63079  0.50378  1.0000
  H   H1295     1.0  0.23917  0.60473  0.50829  1.0000
  H   H1296     1.0  0.34394  0.49720  0.72927  1.0000
  H   H1297     1.0  0.30292  0.60189  0.53835  1.0000
  C   C765      1.0  0.38925  0.39114  0.62729  1.0000
  H   H1298     1.0  0.39617  0.44405  0.62559  1.0000
  H   H1299     1.0  0.36708  0.41165  0.68666  1.0000
  C   C766      1.0  0.40427  0.43472  0.63337  1.0000
  H   H1300     1.0  0.37331  0.54402  0.65801  1.0000
  H   H1301     1.0  0.18659  0.57038  0.49603  1.0000
  S   S229      1.0  0.45796  0.32320  0.60582  1.0000
  H   H1302     1.0  0.31114  0.54045  0.52448  1.0000
  H   H1303     1.0  0.41578  0.56046  0.63430  1.0000
  H   H1304     1.0  0.44526  0.36576  0.53672  1.0000
  H   H1305     1.0  0.41571  0.52563  0.63370  1.0000
  H   H1306     1.0  0.20574  0.55212  0.51251  1.0000
  H   H1307     1.0  0.46031  0.64276  0.70927  1.0000
  H   H1308     1.0  0.31672  0.59635  0.50423  1.0000
  C   C767      1.0  0.28130  0.55594  0.72683  1.0000
  C   C768      1.0  0.23314  0.61185  0.53180  1.0000
  H   H1309     1.0  0.41365  0.51655  0.66011  1.0000
  C   C769      1.0  0.20815  0.54217  0.50556  1.0000
  H   H1310     1.0  0.31594  0.42533  0.71060  1.0000
  C   C770      1.0  0.42190  0.55091  0.66654  1.0000
  C   C771      1.0  0.42203  0.54747  0.63890  1.0000
  H   H1311     1.0  0.29469  0.59617  0.52428  1.0000
  H   H1312     1.0  0.40411  0.41574  0.62191  1.0000
  H   H1313     1.0  0.45744  0.39704  0.68296  1.0000
  H   H1314     1.0  0.33961  0.52780  0.69986  1.0000
  H   H1315     1.0  0.17292  0.56240  0.52151  1.0000
  H   H1316     1.0  0.36061  0.41761  0.64098  1.0000
  H   H1317     1.0  0.21385  0.52738  0.52919  1.0000
  H   H1318     1.0  0.39004  0.52761  0.65284  1.0000
  C   C772      1.0  0.36875  0.40779  0.67485  1.0000
  H   H1319     1.0  0.32991  0.48441  0.71709  1.0000
  C   C773      1.0  0.21316  0.52529  0.51717  1.0000
  H   H1320     1.0  0.43518  0.34592  0.58365  1.0000
  C   C774      1.0  0.42059  0.53693  0.62736  1.0000
  N   N55       1.0  0.31039  0.57571  0.53787  1.0000
  H   H1321     1.0  0.29222  0.56038  0.54366  1.0000
  H   H1322     1.0  0.49319  0.40016  0.65007  1.0000
  H   H1323     1.0  0.43544  0.54783  0.63663  1.0000
  H   H1324     1.0  0.41553  0.54890  0.67986  1.0000
  H   H1325     1.0  0.18334  0.54358  0.53334  1.0000
  C   C775      1.0  0.43915  0.51618  0.65865  1.0000
  H   H1326     1.0  0.31268  0.58155  0.56028  1.0000
  H   H1327     1.0  0.38715  0.37845  0.62902  1.0000
  H   H1328     1.0  0.29265  0.55752  0.71712  1.0000
  H   H1329     1.0  0.45273  0.43470  0.64213  1.0000
  H   H1330     1.0  0.24414  0.61670  0.53107  1.0000
  H   H1331     1.0  0.40786  0.57678  0.65943  1.0000
  C   C776      1.0  0.38398  0.41361  0.66257  1.0000
  H   H1332     1.0  0.40235  0.39081  0.62057  1.0000
  H   H1333     1.0  0.47929  0.37960  0.69722  1.0000
  C   C777      1.0  0.35099  0.42583  0.73015  1.0000
  C   C778      1.0  0.25450  0.63899  0.50500  1.0000
  C   C779      1.0  0.32493  0.58403  0.50723  1.0000
  H   H1334     1.0  0.38357  0.42618  0.66397  1.0000
  H   H1335     1.0  0.39525  0.40596  0.66718  1.0000
  H   H1336     1.0  0.41249  0.40822  0.64009  1.0000
  H   H1337     1.0  0.41244  0.54449  0.61870  1.0000
  H   H1338     1.0  0.41729  0.43553  0.62702  1.0000
  H   H1339     1.0  0.40228  0.43801  0.64547  1.0000
  H   H1340     1.0  0.35731  0.53651  0.68812  1.0000
  H   H1341     1.0  0.29830  0.56798  0.52258  1.0000
  H   H1342     1.0  0.35580  0.47716  0.72723  1.0000
  H   H1343     1.0  0.44701  0.52049  0.66438  1.0000
  C   C780      1.0  0.28656  0.52626  0.72889  1.0000
  H   H1344     1.0  0.33655  0.56811  0.52659  1.0000
  H   H1345     1.0  0.34049  0.56515  0.55284  1.0000
  C   C781      1.0  0.21667  0.64324  0.51385  1.0000
  H   H1346     1.0  0.22217  0.61766  0.54022  1.0000
  C   C782      1.0  0.37122  0.42404  0.63744  1.0000
  C   C783      1.0  0.37597  0.49071  0.69594  1.0000
  H   H1347     1.0  0.37422  0.52122  0.70560  1.0000
  Fe  Fe117     1.0  0.40550  0.41633  0.72221  1.0000
  C   C784      1.0  0.39658  0.54715  0.66139  1.0000
  C   C785      1.0  0.39092  0.49822  0.68537  1.0000
  H   H1348     1.0  0.31450  0.44715  0.70854  1.0000
  C   C786      1.0  0.35314  0.52478  0.69453  1.0000
  C   C787      1.0  0.31487  0.54599  0.53291  1.0000
  H   H1349     1.0  0.35526  0.42329  0.71755  1.0000
  H   H1350     1.0  0.36747  0.49279  0.68748  1.0000
  H   H1351     1.0  0.38020  0.47699  0.69898  1.0000
  C   C788      1.0  0.38674  0.54111  0.65222  1.0000
  H   H1352     1.0  0.45248  0.42610  0.67276  1.0000
  H   H1353     1.0  0.47253  0.33183  0.53486  1.0000
  H   H1354     1.0  0.32936  0.55487  0.57175  1.0000
  N   N56       1.0  0.19383  0.54381  0.49765  1.0000
  C   C789      1.0  0.04653  0.65243  0.55686  1.0000
  H   H1355     1.0  0.35710  0.41324  0.67026  1.0000
  H   H1356     1.0  0.38712  0.51174  0.68093  1.0000
  H   H1357     1.0  0.40110  0.49564  0.69196  1.0000
  H   H1358     1.0  0.39618  0.49260  0.67434  1.0000
  C   C790      1.0  0.18969  0.56132  0.48794  1.0000
  C   C791      1.0  0.26980  0.57331  0.72552  1.0000
  C   C792      1.0  0.48176  0.65246  0.72993  1.0000
  H   H1359     1.0  0.39617  0.38673  0.65056  1.0000
  H   H1360     1.0  0.35514  0.51807  0.68460  1.0000
  Fe  Fe118     1.0  0.42342  0.54095  0.71703  1.0000
  H   H1361     1.0  0.27396  0.58350  0.54711  1.0000
  H   H1362     1.0  0.42901  0.57260  0.64779  1.0000
  C   C793      1.0  0.24410  0.63497  0.49490  1.0000
  H   H1363     1.0  0.46869  0.39184  0.66384  1.0000
  C   C794      1.0  0.38623  0.39521  0.64447  1.0000
  C   C795      1.0  0.32612  0.57899  0.52563  1.0000
  H   H1364     1.0  0.33048  0.58893  0.52845  1.0000
  H   H1365     1.0  0.39186  0.54301  0.67492  1.0000
  C   C796      1.0  0.44376  0.35612  0.53110  1.0000
  H   H1366     1.0  0.33239  0.54735  0.55350  1.0000
  C   C797      1.0  0.32990  0.55877  0.55820  1.0000
  H   H1367     1.0  0.27302  0.60445  0.54720  1.0000
  H   H1368     1.0  0.38062  0.39972  0.61963  1.0000
  N   N57       1.0  0.41531  0.54220  0.65716  1.0000
  C   C798      1.0  0.30383  0.52525  0.71721  1.0000
  C   C799      1.0  0.35093  0.44432  0.72789  1.0000
  H   H1369     1.0  0.31139  0.51264  0.72048  1.0000
  H   H1370     1.0  0.24718  0.64510  0.51523  1.0000
  H   H1371     1.0  0.45538  0.35237  0.52221  1.0000
  H   H1372     1.0  0.26138  0.55738  0.70594  1.0000
  H   H1373     1.0  0.49427  0.43498  0.65184  1.0000
  H   H1374     1.0  0.46690  0.62816  0.72717  1.0000
  C   C800      1.0  0.45269  0.65250  0.73229  1.0000
  C   C801      1.0  0.09427  0.63855  0.51974  1.0000
  H   H1375     1.0  0.26201  0.64798  0.49672  1.0000
  S   S230      1.0  0.26358  0.52453  0.48752  1.0000
  C   C802      1.0  0.28609  0.59350  0.48827  1.0000
  H   H1376     1.0  0.28206  0.51530  0.72877  1.0000
  C   C803      1.0  0.32147  0.43453  0.71317  1.0000
  C   C804      1.0  0.35220  0.48996  0.72002  1.0000
  H   H1377     1.0  0.34241  0.45229  0.71982  1.0000
  H   H1378     1.0  0.09693  0.64468  0.54132  1.0000
  H   H1379     1.0  0.43566  0.33325  0.53733  1.0000
  H   H1380     1.0  0.25229  0.62457  0.48922  1.0000
  H   H1381     1.0  0.28860  0.61835  0.48642  1.0000
  H   H1382     1.0  0.22527  0.60464  0.48841  1.0000
  C   C805      1.0  0.09112  0.65137  0.53056  1.0000
  H   H1383     1.0  0.24288  0.64544  0.48404  1.0000
  C   C806      1.0  0.32025  0.43208  0.73189  1.0000
  S   S231      1.0  0.38600  0.32469  0.59103  1.0000
  Fe  Fe119     1.0  0.40263  0.32488  0.64390  1.0000
  H   H1384     1.0  0.43079  0.32524  0.57553  1.0000
  S   S232      1.0  0.00353  0.65477  0.63151  1.0000
  C   C807      1.0  0.46580  0.32266  0.54403  1.0000
  H   H1385     1.0  0.25057  0.52072  0.73317  1.0000
  H   H1386     1.0  0.24774  0.55165  0.73354  1.0000
  H   H1387     1.0  0.17429  0.53009  0.48397  1.0000
  H   H1388     1.0  0.30829  0.44109  0.82097  1.0000
  C   C808      1.0  0.33999  0.40474  0.84446  1.0000
  H   H1389     1.0  0.17330  0.39081  0.92738  1.0000
  H   H1390     1.0  0.31760  0.44454  0.73486  1.0000
  S   S233      1.0  0.46759  0.61801  0.76746  1.0000
  S   S234      1.0  0.47212  0.62930  0.80781  1.0000
  C   C809      1.0  0.37968  0.32857  0.95407  1.0000
  H   H1391     1.0  0.38036  0.43733  0.74543  1.0000
  H   H1392     1.0  0.45139  0.58174  0.74113  1.0000
  N   N58       1.0  0.33470  0.42074  0.73891  1.0000
  S   S235      1.0  0.38033  0.53178  0.76830  1.0000
  C   C810      1.0  0.19237  0.33183  0.93341  1.0000
  Fe  Fe120     1.0  0.31010  0.49354  0.76796  1.0000
  S   S236      1.0  0.28337  0.49261  0.77103  1.0000
  S   S237      1.0  0.31836  0.51674  0.75265  1.0000
  Fe  Fe121     1.0  0.31951  0.45779  0.78502  1.0000
  S   S238      1.0  0.29375  0.45366  0.78929  1.0000
  S   S239      1.0  0.33717  0.43595  0.79635  1.0000
  Fe  Fe122     1.0  0.29403  0.46826  0.76339  1.0000
  C   C811      1.0  0.31624  0.41636  0.76847  1.0000
  Fe  Fe123     1.0  0.28545  0.47823  0.79666  1.0000
  S   S240      1.0  0.26658  0.48189  0.82010  1.0000
  S   S241      1.0  0.32065  0.47016  0.75830  1.0000
  S   S242      1.0  0.31132  0.48138  0.79435  1.0000
  Fe  Fe124     1.0  0.24717  0.40376  0.88520  1.0000
  S   S243      1.0  0.26313  0.37952  0.89464  1.0000
  S   S244      1.0  0.24888  0.41275  0.85785  1.0000
  Fe  Fe125     1.0  0.22859  0.40824  0.91956  1.0000
  S   S245      1.0  0.24279  0.38445  0.93212  1.0000
  S   S246      1.0  0.20846  0.42631  0.93232  1.0000
  Fe  Fe126     1.0  0.26498  0.39204  0.91370  1.0000
  S   S247      1.0  0.28980  0.38912  0.91958  1.0000
  Fe  Fe127     1.0  0.23969  0.37395  0.91205  1.0000
  S   S248      1.0  0.23527  0.34813  0.91793  1.0000
  S   S249      1.0  0.25111  0.41691  0.90273  1.0000
  S   S250      1.0  0.22339  0.39716  0.90107  1.0000
  H   H1393     1.0  0.25828  0.57363  0.73527  1.0000
  C   C812      1.0  0.21444  0.34705  0.92076  1.0000
  C   C813      1.0  0.20296  0.36055  0.91422  1.0000
  C   C814      1.0  0.31055  0.40929  0.83169  1.0000
  C   C815      1.0  0.18077  0.34560  0.92755  1.0000
  H   H1394     1.0  0.27361  0.41377  0.97932  1.0000
  H   H1395     1.0  0.31619  0.41711  0.78123  1.0000
  H   H1396     1.0  0.16283  0.41220  0.92697  1.0000
  N   N59       1.0  0.26090  0.39617  0.97608  1.0000
  H   H1397     1.0  0.38269  0.48968  0.74769  1.0000
  H   H1398     1.0  0.23761  0.41214  0.97091  1.0000
  C   C816      1.0  0.29682  0.36838  0.92871  1.0000
  C   C817      1.0  0.31384  0.36134  0.92607  1.0000
  C   C818      1.0  0.31940  0.34465  0.93317  1.0000
  S   S251      1.0  0.28382  0.45946  0.74647  1.0000
  C   C819      1.0  0.29107  0.34253  0.94670  1.0000
  C   C820      1.0  0.28545  0.35885  0.93883  1.0000
  H   H1399     1.0  0.32267  0.36866  0.91822  1.0000
  C   C821      1.0  0.18614  0.35977  0.91752  1.0000
  H   H1400     1.0  0.27231  0.36413  0.94092  1.0000
  C   C822      1.0  0.20637  0.42238  0.95388  1.0000
  C   C823      1.0  0.37288  0.49518  0.74032  1.0000
  H   H1401     1.0  0.29425  0.45173  0.85456  1.0000
  C   C824      1.0  0.20969  0.40621  0.96324  1.0000
  H   H1402     1.0  0.13929  0.37729  0.95672  1.0000
  C   C825      1.0  0.33190  0.42188  0.75677  1.0000
  H   H1403     1.0  0.21385  0.39580  0.95722  1.0000
  C   C826      1.0  0.26032  0.46335  0.83091  1.0000
  C   C827      1.0  0.25798  0.45268  0.82231  1.0000
  C   C828      1.0  0.25412  0.43734  0.83084  1.0000
  C   C829      1.0  0.25285  0.43246  0.84796  1.0000
  C   C830      1.0  0.25499  0.44319  0.85665  1.0000
  C   C831      1.0  0.25851  0.45875  0.84814  1.0000
  H   H1404     1.0  0.25911  0.45627  0.80906  1.0000
  H   H1405     1.0  0.25239  0.42910  0.82408  1.0000
  H   H1406     1.0  0.25415  0.43947  0.86984  1.0000
  H   H1407     1.0  0.26042  0.46698  0.85479  1.0000
  C   C832      1.0  0.30386  0.39927  0.86986  1.0000
  H   H1408     1.0  0.25916  0.54452  0.74960  1.0000
  H   H1409     1.0  0.34369  0.40082  0.83242  1.0000
  C   C833      1.0  0.38328  0.41346  0.76196  1.0000
  C   C834      1.0  0.37723  0.40425  0.77748  1.0000
  C   C835      1.0  0.36326  0.41142  0.78805  1.0000
  C   C836      1.0  0.35522  0.42784  0.78316  1.0000
  C   C837      1.0  0.36142  0.43726  0.76782  1.0000
  C   C838      1.0  0.37547  0.43004  0.75718  1.0000
  H   H1410     1.0  0.38332  0.39148  0.78127  1.0000
  H   H1411     1.0  0.35857  0.40415  0.79996  1.0000
  H   H1412     1.0  0.35552  0.45012  0.76427  1.0000
  H   H1413     1.0  0.04972  0.32390  0.92186  1.0000
  C   C839      1.0  0.36234  0.52833  0.76479  1.0000
  C   C840      1.0  0.35560  0.53816  0.75131  1.0000
  C   C841      1.0  0.34174  0.53479  0.74799  1.0000
  C   C842      1.0  0.33480  0.52143  0.75793  1.0000
  C   C843      1.0  0.34144  0.51170  0.77150  1.0000
  C   C844      1.0  0.35513  0.51526  0.77502  1.0000
  H   H1414     1.0  0.20702  0.37150  0.90650  1.0000
  H   H1415     1.0  0.33079  0.43474  0.75793  1.0000
  H   H1416     1.0  0.33619  0.50135  0.77918  1.0000
  H   H1417     1.0  0.36039  0.50761  0.78540  1.0000
  C   C845      1.0  0.45262  0.61109  0.76121  1.0000
  C   C846      1.0  0.43593  0.61934  0.76273  1.0000
  C   C847      1.0  0.43043  0.60073  0.74823  1.0000
  H   H1418     1.0  0.28223  0.33546  0.95486  1.0000
  H   H1419     1.0  0.34374  0.34338  0.95813  1.0000
  H   H1420     1.0  0.30465  0.42475  0.76528  1.0000
  H   H1421     1.0  0.34206  0.39432  0.74846  1.0000
  Fe  Fe128     1.0  0.39376  0.54543  0.74467  1.0000
  C   C848      1.0  0.42500  0.61432  0.75609  1.0000
  H   H1422     1.0  0.36111  0.41835  0.73671  1.0000
  H   H1423     1.0  0.31840  0.41291  0.81923  1.0000
  H   H1424     1.0  0.37009  0.50868  0.73965  1.0000
  H   H1425     1.0  0.32672  0.42634  0.85436  1.0000
  H   H1426     1.0  0.17725  0.37017  0.91246  1.0000
  H   H1427     1.0  0.29649  0.46436  0.83431  1.0000
  C   C849      1.0  0.29909  0.41680  0.85946  1.0000
  H   H1428     1.0  0.34278  0.41436  0.76219  1.0000
  H   H1429     1.0  0.28504  0.40462  0.84086  1.0000
  H   H1430     1.0  0.16800  0.37100  0.94810  1.0000
  H   H1431     1.0  0.31474  0.45352  0.84184  1.0000
  C   C850      1.0  0.13948  0.39069  0.95229  1.0000
  C   C851      1.0  0.20732  0.40346  0.98055  1.0000
  S   S252      1.0  0.15950  0.34558  0.93377  1.0000
  C   C852      1.0  0.30201  0.43812  0.83420  1.0000
  C   C853      1.0  0.30799  0.33527  0.94356  1.0000
  C   C854      1.0  0.01486  0.33025  0.74249  1.0000
  S   S253      1.0  0.42046  0.54584  0.74236  1.0000
  H   H1432     1.0  0.31355  0.39863  0.87662  1.0000
  C   C855      1.0  0.20094  0.43574  0.96183  1.0000
  H   H1433     1.0  0.19835  0.44826  0.95470  1.0000
  C   C856      1.0  0.20917  0.33255  0.93003  1.0000
  H   H1434     1.0  0.06212  0.34093  0.76287  1.0000
  N   N60       1.0  0.20269  0.45847  0.88101  1.0000
  C   C857      1.0  0.20498  0.46387  0.89554  1.0000
  C   C858      1.0  0.18433  0.46317  0.88108  1.0000
  C   C859      1.0  0.21188  0.46812  0.86548  1.0000
  C   C860      1.0  0.20961  0.44006  0.88273  1.0000
  C   C861      1.0  0.22309  0.46203  0.89692  1.0000
  C   C862      1.0  0.17305  0.45535  0.89693  1.0000
  C   C863      1.0  0.21147  0.46451  0.84897  1.0000
  C   C864      1.0  0.20260  0.43068  0.87383  1.0000
  H   H1435     1.0  0.19872  0.47709  0.89546  1.0000
  H   H1436     1.0  0.19901  0.45664  0.90743  1.0000
  H   H1437     1.0  0.18145  0.46011  0.87054  1.0000
  H   H1438     1.0  0.17992  0.47688  0.87932  1.0000
  H   H1439     1.0  0.20721  0.48170  0.86477  1.0000
  H   H1440     1.0  0.22530  0.46572  0.86556  1.0000
  H   H1441     1.0  0.22337  0.43753  0.87844  1.0000
  H   H1442     1.0  0.20729  0.43376  0.89602  1.0000
  H   H1443     1.0  0.23079  0.44974  0.89532  1.0000
  H   H1444     1.0  0.22894  0.47191  0.88793  1.0000
  H   H1445     1.0  0.22315  0.46333  0.90946  1.0000
  H   H1446     1.0  0.17780  0.44191  0.90106  1.0000
  H   H1447     1.0  0.17148  0.46165  0.90719  1.0000
  H   H1448     1.0  0.16046  0.45698  0.89456  1.0000
  H   H1449     1.0  0.21827  0.47286  0.83871  1.0000
  H   H1450     1.0  0.19870  0.46691  0.84688  1.0000
  H   H1451     1.0  0.21819  0.45172  0.84785  1.0000
  H   H1452     1.0  0.21278  0.42083  0.86915  1.0000
  H   H1453     1.0  0.19747  0.43820  0.86301  1.0000
  H   H1454     1.0  0.19324  0.42398  0.88270  1.0000
  N   N61       1.0  0.16672  0.39018  0.96112  1.0000
  H   H1455     1.0  0.33658  0.54238  0.73753  1.0000
  H   H1456     1.0  0.36109  0.54831  0.74341  1.0000
  H   H1457     1.0  0.25717  0.43170  0.96187  1.0000
  H   H1458     1.0  0.31606  0.40337  0.76886  1.0000
  C   C865      1.0  0.14817  0.39659  0.96270  1.0000
  H   H1459     1.0  0.25988  0.51565  0.75097  1.0000
  C   C866      1.0  0.44696  0.59215  0.74719  1.0000
  S   S254      1.0  0.40040  0.40369  0.74887  1.0000
  H   H1460     1.0  0.16448  0.36457  0.96970  1.0000
  H   H1461     1.0  0.17268  0.41417  0.94912  1.0000
  H   H1462     1.0  0.23924  0.52745  0.75169  1.0000
  C   C867      1.0  0.25711  0.42331  0.95400  1.0000
  H   H1463     1.0  0.00828  0.34190  0.76313  1.0000
  H   H1464     1.0  0.34778  0.44841  0.73968  1.0000
  C   C868      1.0  0.44726  0.65357  0.87827  1.0000
  Fe  Fe129     1.0  0.49085  0.64562  0.79902  1.0000
  C   C869      1.0  0.19017  0.36426  0.95750  1.0000
  H   H1465     1.0  0.43409  0.65246  0.88334  1.0000
  H   H1466     1.0  0.18974  0.39779  0.94707  1.0000
  H   H1467     1.0  0.29909  0.36857  0.96673  1.0000
  H   H1468     1.0  0.02575  0.34522  0.78728  1.0000
  H   H1469     1.0  0.18474  0.38724  0.97600  1.0000
  C   C870      1.0  0.01744  0.33625  0.79223  1.0000
  C   C871      1.0  0.17400  0.40265  0.92965  1.0000
  H   H1470     1.0  0.28839  0.52406  0.74173  1.0000
  H   H1471     1.0  0.48060  0.64469  0.74270  1.0000
  C   C872      1.0  0.25177  0.52540  0.74352  1.0000
  H   H1472     1.0  0.33252  0.33907  0.93075  1.0000
  H   H1473     1.0  0.25259  0.33583  0.94629  1.0000
  H   H1474     1.0  0.03952  0.32976  0.89620  1.0000
  H   H1475     1.0  0.37471  0.33964  0.95959  1.0000
  H   H1476     1.0  0.45445  0.64569  0.88761  1.0000
  H   H1477     1.0  0.25848  0.36414  0.97250  1.0000
  H   H1478     1.0  0.28538  0.55282  0.73883  1.0000
  H   H1479     1.0  0.33562  0.39467  0.85440  1.0000
  H   H1480     1.0  0.19193  0.35130  0.95624  1.0000
  H   H1481     1.0  0.29588  0.39833  0.82199  1.0000
  H   H1482     1.0  0.28466  0.39714  0.95906  1.0000
  H   H1483     1.0  0.47085  0.59091  0.75221  1.0000
  Fe  Fe130     1.0  0.46706  0.63737  0.78197  1.0000
  H   H1484     1.0  0.24866  0.43042  0.94547  1.0000
  C   C873      1.0  0.01357  0.32909  0.76105  1.0000
  H   H1485     1.0  0.36183  0.48992  0.74726  1.0000
  H   H1486     1.0  0.27410  0.38330  0.95634  1.0000
  C   C874      1.0  0.29373  0.40814  0.82904  1.0000
  S   S255      1.0  0.41613  0.59552  0.73950  1.0000
  H   H1487     1.0  0.35627  0.33849  0.98253  1.0000
  H   H1488     1.0  0.39256  0.32307  0.95595  1.0000
  H   H1489     1.0  0.33284  0.42979  0.83247  1.0000
  S   S256      1.0  0.48750  0.65195  0.77283  1.0000
  H   H1490     1.0  0.03521  0.34629  0.75946  1.0000
  H   H1491     1.0  0.19488  0.36349  0.96859  1.0000
  H   H1492     1.0  0.14514  0.41039  0.95980  1.0000
  C   C875      1.0  0.28803  0.37352  0.97568  1.0000
  H   H1493     1.0  0.32820  0.33177  0.97047  1.0000
  C   C876      1.0  0.33565  0.40291  0.73868  1.0000
  H   H1494     1.0  0.24901  0.40132  0.95534  1.0000
  H   H1495     1.0  0.31674  0.39645  0.83652  1.0000
  C   C877      1.0  0.25047  0.40782  0.96434  1.0000
  N   N62       1.0  0.30978  0.42097  0.84246  1.0000
  C   C878      1.0  0.27680  0.38799  0.96601  1.0000
  H   H1496     1.0  0.28885  0.43889  0.83413  1.0000
  H   H1497     1.0  0.28571  0.41915  0.85906  1.0000
  H   H1498     1.0  0.29921  0.42532  0.86719  1.0000
  H   H1499     1.0  0.28785  0.41978  0.82151  1.0000
  H   H1500     1.0  0.32928  0.35026  0.97546  1.0000
  H   H1501     1.0  0.04519  0.33325  0.74562  1.0000
  H   H1502     1.0  0.19791  0.37056  0.94628  1.0000
  C   C879      1.0  0.17153  0.37243  0.95909  1.0000
  H   H1503     1.0  0.45131  0.64871  0.86674  1.0000
  H   H1504     1.0  0.35145  0.40655  0.84697  1.0000
  H   H1505     1.0  0.14509  0.39310  0.93895  1.0000
  H   H1506     1.0  0.12628  0.39741  0.95376  1.0000
  H   H1507     1.0  0.43154  0.62986  0.76864  1.0000
  H   H1508     1.0  0.29267  0.39615  0.87911  1.0000
  C   C880      1.0  0.17622  0.40125  0.94722  1.0000
  C   C881      1.0  0.32712  0.42128  0.84353  1.0000
  C   C882      1.0  0.30202  0.45252  0.84190  1.0000
  H   H1509     1.0  0.37502  0.54113  0.82081  1.0000
  S   S257      1.0  0.38598  0.57265  0.73490  1.0000
  S   S258      1.0  0.43454  0.65395  0.83584  1.0000
  C   C883      1.0  0.45798  0.59739  0.75351  1.0000
  H   H1510     1.0  0.30786  0.38943  0.86267  1.0000
  Fe  Fe131     1.0  0.45373  0.65276  0.81229  1.0000
  H   H1511     1.0  0.30855  0.42758  0.73800  1.0000
  N   N63       1.0  0.40019  0.56630  0.79133  1.0000
  C   C884      1.0  0.41628  0.55346  0.78978  1.0000
  C   C885      1.0  0.38921  0.56018  0.80758  1.0000
  C   C886      1.0  0.40429  0.58230  0.79171  1.0000
  C   C887      1.0  0.39271  0.56828  0.77666  1.0000
  C   C888      1.0  0.43075  0.55840  0.77563  1.0000
  C   C889      1.0  0.38430  0.54362  0.80912  1.0000
  C   C890      1.0  0.38970  0.59723  0.79350  1.0000
  C   C891      1.0  0.37392  0.57617  0.77812  1.0000
  H   H1512     1.0  0.42106  0.54988  0.80141  1.0000
  H   H1513     1.0  0.41427  0.54183  0.78782  1.0000
  H   H1514     1.0  0.37749  0.56923  0.81043  1.0000
  H   H1515     1.0  0.39539  0.55860  0.81800  1.0000
  H   H1516     1.0  0.41096  0.58031  0.80185  1.0000
  H   H1517     1.0  0.41286  0.58671  0.78006  1.0000
  H   H1518     1.0  0.39947  0.57566  0.76552  1.0000
  H   H1519     1.0  0.39451  0.55606  0.77348  1.0000
  H   H1520     1.0  0.42679  0.56412  0.76375  1.0000
  H   H1521     1.0  0.43667  0.56698  0.77874  1.0000
  H   H1522     1.0  0.44054  0.54717  0.77374  1.0000
  H   H1523     1.0  0.37849  0.54390  0.79890  1.0000
  H   H1524     1.0  0.39508  0.53303  0.80972  1.0000
  H   H1525     1.0  0.38005  0.59488  0.80485  1.0000
  H   H1526     1.0  0.38420  0.60158  0.78235  1.0000
  H   H1527     1.0  0.39459  0.60772  0.79437  1.0000
  H   H1528     1.0  0.37217  0.58623  0.76708  1.0000
  H   H1529     1.0  0.36779  0.58173  0.78899  1.0000
  H   H1530     1.0  0.36702  0.56690  0.77792  1.0000
  C   C892      1.0  0.25802  0.54179  0.73797  1.0000
  H   H1531     1.0  0.26965  0.42008  0.94622  1.0000
  C   C893      1.0  0.33696  0.33907  0.97088  1.0000
  H   H1532     1.0  0.18517  0.40613  0.92059  1.0000
  H   H1533     1.0  0.23903  0.37847  0.96996  1.0000
  H   H1534     1.0  0.32295  0.40028  0.74167  1.0000
  H   H1535     1.0  0.41225  0.62107  0.75699  1.0000
  H   H1536     1.0  0.45086  0.64679  0.74574  1.0000
  C   C894      1.0  0.16488  0.40690  0.98302  1.0000
  H   H1537     1.0  0.38013  0.33336  0.94062  1.0000
  H   H1538     1.0  0.00490  0.34202  0.78956  1.0000
  H   H1539     1.0  0.00227  0.33557  0.73970  1.0000
  H   H1540     1.0  0.17033  0.41710  0.97423  1.0000
  H   H1541     1.0  0.47982  0.65271  0.87780  1.0000
  C   C895      1.0  0.19927  0.43304  0.97897  1.0000
  H   H1542     1.0  0.01579  0.33332  0.80592  1.0000
  H   H1543     1.0  0.49601  0.63347  0.83592  1.0000
  C   C896      1.0  0.24716  0.37175  0.97881  1.0000
  H   H1544     1.0  0.14146  0.39298  0.97572  1.0000
  C   C897      1.0  0.17109  0.39037  0.97702  1.0000
  C   C898      1.0  0.04135  0.33314  0.75909  1.0000
  H   H1545     1.0  0.05645  0.32437  0.77861  1.0000
  C   C899      1.0  0.05772  0.32924  0.76516  1.0000
  H   H1546     1.0  0.02304  0.33867  0.73447  1.0000
  C   C900      1.0  0.34896  0.32953  0.98256  1.0000
  H   H1547     1.0  0.28184  0.36302  0.98223  1.0000
  H   H1548     1.0  0.38630  0.32632  0.98326  1.0000
  Fe  Fe132     1.0  0.22965  0.91970  0.03187  1.0000
  S   S259      1.0  0.21996  0.89656  0.04349  1.0000
  S   S260      1.0  0.22914  0.93236  0.00517  1.0000
  Fe  Fe133     1.0  0.24142  0.91993  0.06325  1.0000
  S   S261      1.0  0.23268  0.89638  0.07709  1.0000
  S   S262      1.0  0.25532  0.93494  0.07167  1.0000
  Fe  Fe134     1.0  0.24336  0.88747  0.05330  1.0000
  S   S263      1.0  0.25618  0.86133  0.05134  1.0000
  Fe  Fe135     1.0  0.21006  0.90757  0.06592  1.0000
  S   S264      1.0  0.18432  0.90649  0.08111  1.0000
  S   S265      1.0  0.25399  0.90992  0.04011  1.0000
  S   S266      1.0  0.21780  0.93184  0.05366  1.0000
  S   S267      1.0  0.25608  0.79457  0.02139  1.0000
  C   C901      1.0  0.05388  0.75492  0.08872  1.0000
  S   S268      1.0  0.29520  0.80799  0.99343  1.0000
  Fe  Fe136     1.0  0.14972  0.83475  0.06771  1.0000
  S   S269      1.0  0.15051  0.80774  0.07004  1.0000
  S   S270      1.0  0.15842  0.84170  0.08711  1.0000
  Fe  Fe137     1.0  0.13464  0.84497  0.03761  1.0000
  S   S271      1.0  0.13450  0.81903  0.03703  1.0000
  S   S272      1.0  0.12413  0.86612  0.01898  1.0000
  Fe  Fe138     1.0  0.12498  0.81605  0.06428  1.0000
  S   S273      1.0  0.10246  0.80490  0.07758  1.0000
  Fe  Fe139     1.0  0.15999  0.81314  0.04256  1.0000
  S   S274      1.0  0.18008  0.79481  0.02998  1.0000
  S   S275      1.0  0.12326  0.84265  0.06453  1.0000
  S   S276      1.0  0.16109  0.83950  0.04060  1.0000
  N   N64       1.0  0.31398  0.91826  0.12630  1.0000
  H   H1549     1.0  0.29094  0.90486  0.15697  1.0000
  H   H1550     1.0  0.21655  0.98102  0.10652  1.0000
  Fe  Fe140     1.0  0.03779  0.77856  0.04626  1.0000
  S   S277      1.0  0.02149  0.79512  0.06293  1.0000
  S   S278      1.0  0.06538  0.77863  0.03766  1.0000
  Fe  Fe141     1.0  0.00911  0.76274  0.04693  1.0000
  C   C902      1.0  0.30311  0.91182  0.10340  1.0000
  C   C903      1.0  0.32095  0.83862  0.00856  1.0000
  H   H1551     1.0  0.35385  0.98381  0.16686  1.0000
  Fe  Fe142     1.0  0.01142  0.77280  0.07746  1.0000
  H   H1552     1.0  0.04569  0.67574  0.17260  1.0000
  S   S279      1.0  0.01955  0.78417  0.02966  1.0000
  S   S280      1.0  0.02895  0.75571  0.06185  1.0000
  H   H1553     1.0  0.15369  0.87890  0.02899  1.0000
  S   S281      1.0  0.39834  0.91384  0.20907  1.0000
  H   H1554     1.0  0.04471  0.73076  0.11388  1.0000
  C   C904      1.0  0.29600  0.92369  0.13423  1.0000
  S   S282      1.0  0.30057  0.97894  0.16982  1.0000
  H   H1555     1.0  0.17668  0.90201  0.98969  1.0000
  Fe  Fe143     1.0  0.27313  0.96364  0.14876  1.0000
  S   S283      1.0  0.29691  0.97197  0.13464  1.0000
  S   S284      1.0  0.25710  0.95102  0.14006  1.0000
  Fe  Fe144     1.0  0.27678  0.97039  0.18158  1.0000
  C   C905      1.0  0.03436  0.67130  0.18033  1.0000
  H   H1556     1.0  0.11194  0.81458  0.01868  1.0000
  H   H1557     1.0  0.16223  0.96121  0.10134  1.0000
  Fe  Fe145     1.0  0.30726  0.95767  0.15702  1.0000
  S   S285      1.0  0.33252  0.94077  0.15580  1.0000
  S   S286      1.0  0.28436  0.94788  0.17035  1.0000
  H   H1558     1.0  0.04054  0.72708  0.08902  1.0000
  C   C906      1.0  0.34471  0.93282  0.20626  1.0000
  C   C907      1.0  0.32864  0.94021  0.20375  1.0000
  C   C908      1.0  0.32477  0.94183  0.18849  1.0000
  C   C909      1.0  0.33703  0.93644  0.17549  1.0000
  C   C910      1.0  0.35298  0.92838  0.17814  1.0000
  C   C911      1.0  0.35679  0.92651  0.19360  1.0000
  H   H1559     1.0  0.31915  0.94492  0.21350  1.0000
  H   H1560     1.0  0.31225  0.94732  0.18685  1.0000
  H   H1561     1.0  0.36241  0.92385  0.16822  1.0000
  H   H1562     1.0  0.36909  0.92035  0.19563  1.0000
  C   C912      1.0  0.14334  0.90482  0.00592  1.0000
  C   C913      1.0  0.42222  0.96694  0.19860  1.0000
  C   C914      1.0  0.28480  0.80573  0.03792  1.0000
  C   C915      1.0  0.05301  0.71948  0.08529  1.0000
  H   H1563     1.0  0.14675  0.92709  0.98626  1.0000
  H   H1564     1.0  0.12131  0.82090  0.99743  1.0000
  C   C916      1.0  0.29291  0.81516  0.04566  1.0000
  H   H1565     1.0  0.05079  0.81954  0.03239  1.0000
  C   C917      1.0  0.00800  0.71991  0.11613  1.0000
  C   C918      1.0  0.00721  0.73648  0.10759  1.0000
  C   C919      1.0  0.00898  0.74825  0.11529  1.0000
  H   H1566     1.0  0.07831  0.72033  0.07496  1.0000
  H   H1567     1.0  0.30046  0.82727  0.01288  1.0000
  H   H1568     1.0  0.04201  0.75069  0.09219  1.0000
  C   C920      1.0  0.03214  0.67485  0.19759  1.0000
  H   H1569     1.0  0.10228  0.72620  0.07120  1.0000
  C   C921      1.0  0.21408  0.93076  0.99525  1.0000
  C   C922      1.0  0.09246  0.79746  0.06635  1.0000
  C   C923      1.0  0.10114  0.79124  0.05223  1.0000
  C   C924      1.0  0.09270  0.78549  0.04353  1.0000
  C   C925      1.0  0.07553  0.78609  0.04879  1.0000
  C   C926      1.0  0.06692  0.79229  0.06292  1.0000
  C   C927      1.0  0.07538  0.79781  0.07173  1.0000
  H   H1570     1.0  0.11437  0.79071  0.04810  1.0000
  H   H1571     1.0  0.09949  0.78059  0.03268  1.0000
  H   H1572     1.0  0.05375  0.79287  0.06711  1.0000
  H   H1573     1.0  0.06861  0.80259  0.08266  1.0000
  C   C928      1.0  0.23505  0.79519  0.02264  1.0000
  C   C929      1.0  0.22982  0.78040  0.02512  1.0000
  C   C930      1.0  0.21291  0.78050  0.02743  1.0000
  C   C931      1.0  0.20104  0.79529  0.02785  1.0000
  C   C932      1.0  0.20620  0.81015  0.02538  1.0000
  C   C933      1.0  0.22326  0.81012  0.02259  1.0000
  H   H1574     1.0  0.23886  0.76882  0.02532  1.0000
  H   H1575     1.0  0.20900  0.76900  0.02916  1.0000
  H   H1576     1.0  0.19709  0.82166  0.02527  1.0000
  H   H1577     1.0  0.22732  0.82158  0.02063  1.0000
  H   H1578     1.0  0.12412  0.88655  0.98626  1.0000
  H   H1579     1.0  0.20038  0.79427  0.99646  1.0000
  H   H1580     1.0  0.28514  0.88078  0.99473  1.0000
  H   H1581     1.0  0.15009  0.83934  0.00917  1.0000
  H   H1582     1.0  0.08233  0.75388  0.06520  1.0000
  C   C934      1.0  0.25663  0.93834  0.09092  1.0000
  C   C935      1.0  0.24986  0.92919  0.10620  1.0000
  C   C936      1.0  0.25020  0.93321  0.12105  1.0000
  C   C937      1.0  0.25762  0.94616  0.12090  1.0000
  C   C938      1.0  0.26489  0.95492  0.10563  1.0000
  C   C939      1.0  0.26435  0.95105  0.09078  1.0000
  H   H1583     1.0  0.24417  0.91917  0.10657  1.0000
  H   H1584     1.0  0.24463  0.92625  0.13277  1.0000
  H   H1585     1.0  0.27054  0.96499  0.10524  1.0000
  H   H1586     1.0  0.26969  0.95819  0.07906  1.0000
  C   C940      1.0  0.17722  0.88862  0.08203  1.0000
  C   C941      1.0  0.17005  0.88006  0.09743  1.0000
  C   C942      1.0  0.16423  0.86583  0.09869  1.0000
  C   C943      1.0  0.16485  0.86036  0.08450  1.0000
  C   C944      1.0  0.17156  0.86916  0.06896  1.0000
  C   C945      1.0  0.17808  0.88310  0.06773  1.0000
  H   H1587     1.0  0.16925  0.88428  0.10850  1.0000
  H   H1588     1.0  0.15912  0.85908  0.11074  1.0000
  H   H1589     1.0  0.17203  0.86498  0.05799  1.0000
  H   H1590     1.0  0.18356  0.88971  0.05579  1.0000
  C   C946      1.0  0.26334  0.86078  0.03032  1.0000
  C   C947      1.0  0.27123  0.87308  0.01937  1.0000
  C   C948      1.0  0.27841  0.87163  0.00294  1.0000
  C   C949      1.0  0.27751  0.85798  0.99741  1.0000
  C   C950      1.0  0.26889  0.84615  0.00815  1.0000
  C   C951      1.0  0.26201  0.84743  0.02461  1.0000
  H   H1591     1.0  0.27250  0.88333  0.02372  1.0000
  H   H1592     1.0  0.31192  0.84562  0.06006  1.0000
  H   H1593     1.0  0.26804  0.83560  0.00403  1.0000
  H   H1594     1.0  0.25594  0.83789  0.03294  1.0000
  C   C952      1.0  0.31360  0.94571  0.10416  1.0000
  H   H1595     1.0  0.41291  0.95521  0.15660  1.0000
  S   S287      1.0  0.42791  0.94545  0.19964  1.0000
  H   H1596     1.0  0.29332  0.83941  0.06103  1.0000
  C   C953      1.0  0.16463  0.97280  0.10285  1.0000
  H   H1597     1.0  0.14444  0.89298  0.05514  1.0000
  N   N65       1.0  0.21474  0.82470  0.06833  1.0000
  C   C954      1.0  0.21157  0.80794  0.06898  1.0000
  C   C955      1.0  0.23329  0.82341  0.06330  1.0000
  C   C956      1.0  0.20629  0.83722  0.05541  1.0000
  C   C957      1.0  0.20748  0.82881  0.08518  1.0000
  C   C958      1.0  0.19321  0.80701  0.07137  1.0000
  C   C959      1.0  0.24350  0.81121  0.07555  1.0000
  C   C960      1.0  0.21248  0.85358  0.04806  1.0000
  C   C961      1.0  0.21144  0.84414  0.08837  1.0000
  H   H1598     1.0  0.21839  0.80343  0.05746  1.0000
  H   H1599     1.0  0.21636  0.79845  0.07923  1.0000
  H   H1600     1.0  0.23673  0.83550  0.06126  1.0000
  H   H1601     1.0  0.23813  0.81967  0.05110  1.0000
  H   H1602     1.0  0.20762  0.83179  0.04461  1.0000
  H   H1603     1.0  0.19268  0.84048  0.06033  1.0000
  H   H1604     1.0  0.19368  0.83099  0.08779  1.0000
  H   H1605     1.0  0.21077  0.81807  0.09523  1.0000
  H   H1606     1.0  0.19260  0.79410  0.07175  1.0000
  H   H1607     1.0  0.18554  0.81018  0.08318  1.0000
  H   H1608     1.0  0.18754  0.81491  0.06093  1.0000
  H   H1609     1.0  0.24348  0.79816  0.07594  1.0000
  H   H1610     1.0  0.25663  0.81262  0.07134  1.0000
  H   H1611     1.0  0.23918  0.81383  0.08815  1.0000
  H   H1612     1.0  0.22493  0.85156  0.03975  1.0000
  H   H1613     1.0  0.21285  0.85997  0.05752  1.0000
  H   H1614     1.0  0.20388  0.86222  0.04034  1.0000
  H   H1615     1.0  0.20185  0.85539  0.08525  1.0000
  H   H1616     1.0  0.22386  0.84658  0.08185  1.0000
  H   H1617     1.0  0.21143  0.84215  0.10171  1.0000
  H   H1618     1.0  0.24687  0.77911  0.98855  1.0000
  H   H1619     1.0  0.32874  0.90711  0.10571  1.0000
  H   H1620     1.0  0.05197  0.71337  0.07579  1.0000
  H   H1621     1.0  0.34678  0.89473  0.14570  1.0000
  N   N66       1.0  0.06877  0.74073  0.08781  1.0000
  H   H1622     1.0  0.37758  0.94645  0.15053  1.0000
  H   H1623     1.0  0.10293  0.81273  0.00256  1.0000
  C   C962      1.0  0.08364  0.74822  0.07820  1.0000
  H   H1624     1.0  0.05362  0.76306  0.07625  1.0000
  H   H1625     1.0  0.33479  0.92975  0.11238  1.0000
  H   H1626     1.0  0.22297  0.97894  0.06857  1.0000
  H   H1627     1.0  0.03217  0.68813  0.19618  1.0000
  H   H1628     1.0  0.31873  0.81648  0.05759  1.0000
  C   C963      1.0  0.43467  0.97620  0.19307  1.0000
  H   H1629     1.0  0.06432  0.73710  0.06544  1.0000
  H   H1630     1.0  0.11046  0.74369  0.06983  1.0000
  H   H1631     1.0  0.35682  0.98509  0.19426  1.0000
  C   C964      1.0  0.99919  0.83592  0.07784  1.0000
  H   H1632     1.0  0.06389  0.77074  0.09906  1.0000
  Fe  Fe146     1.0  0.27097  0.80133  0.99555  1.0000
  H   H1633     1.0  0.39500  0.96965  0.14162  1.0000
  S   S288      1.0  0.00160  0.74203  0.04073  1.0000
  H   H1634     1.0  0.30927  0.90876  0.09112  1.0000
  H   H1635     1.0  0.31980  0.91548  0.15019  1.0000
  H   H1636     1.0  0.15311  0.97874  0.11060  1.0000
  C   C965      1.0  0.05670  0.72624  0.11784  1.0000
  H   H1637     1.0  0.10406  0.73151  0.08974  1.0000
  H   H1638     1.0  0.34769  0.91466  0.13290  1.0000
  H   H1639     1.0  0.31611  0.94036  0.09309  1.0000
  H   H1640     1.0  0.31863  0.89669  0.14596  1.0000
  N   N67       1.0  0.15867  0.90192  0.01273  1.0000
  C   C966      1.0  0.06671  0.72964  0.07772  1.0000
  H   H1641     1.0  0.00853  0.83612  0.08458  1.0000
  C   C967      1.0  0.20931  0.93106  0.09824  1.0000
  C   C968      1.0  0.40555  0.97507  0.20231  1.0000
  C   C969      1.0  0.10920  0.82057  0.00631  1.0000
  C   C970      1.0  0.32089  0.80378  0.03126  1.0000
  H   H1642     1.0  0.32089  0.94041  0.12747  1.0000
  C   C971      1.0  0.07188  0.73120  0.10457  1.0000
  H   H1643     1.0  0.13210  0.91641  0.98457  1.0000
  C   C972      1.0  0.31631  0.90741  0.11419  1.0000
  H   H1644     1.0  0.30013  0.95055  0.10820  1.0000
  H   H1645     1.0  0.28920  0.89940  0.13853  1.0000
  H   H1646     1.0  0.34629  0.89789  0.12432  1.0000
  H   H1647     1.0  0.21309  0.92540  0.11027  1.0000
  C   C973      1.0  0.34201  0.90376  0.13519  1.0000
  C   C974      1.0  0.21896  0.96764  0.07675  1.0000
  H   H1648     1.0  0.08057  0.81558  0.02404  1.0000
  H   H1649     1.0  0.21992  0.93515  0.08890  1.0000
  H   H1650     1.0  0.29478  0.93247  0.14222  1.0000
  C   C975      1.0  0.20115  0.97251  0.08666  1.0000
  C   C976      1.0  0.32140  0.93334  0.11808  1.0000
  H   H1651     1.0  0.14006  0.89291  0.00671  1.0000
  H   H1652     1.0  0.29439  0.80747  0.05810  1.0000
  H   H1653     1.0  0.34665  0.79146  0.02378  1.0000
  C   C977      1.0  0.32287  0.90854  0.14008  1.0000
  H   H1654     1.0  0.04235  0.77707  0.09868  1.0000
  C   C978      1.0  0.21153  0.97261  0.11795  1.0000
  H   H1655     1.0  0.40431  0.93723  0.15905  1.0000
  H   H1656     1.0  0.21382  0.82939  0.98910  1.0000
  H   H1657     1.0  0.20408  0.95700  0.99118  1.0000
  C   C979      1.0  0.01178  0.74344  0.13138  1.0000
  H   H1658     1.0  0.27349  0.91476  0.14771  1.0000
  H   H1659     1.0  0.05533  0.73107  0.12905  1.0000
  H   H1660     1.0  0.16765  0.88703  0.03466  1.0000
  C   C980      1.0  0.17383  0.91773  0.02396  1.0000
  C   C981      1.0  0.30595  0.83219  0.02043  1.0000
  H   H1661     1.0  0.29391  0.97735  0.21449  1.0000
  H   H1662     1.0  0.31953  0.95663  0.10021  1.0000
  C   C982      1.0  0.10092  0.73647  0.07737  1.0000
  H   H1663     1.0  0.17119  0.86739  0.00950  1.0000
  S   S289      1.0  0.26343  0.98557  0.16130  1.0000
  Fe  Fe147     1.0  0.00241  0.79895  0.04799  1.0000
  H   H1664     1.0  0.14965  0.92679  0.01776  1.0000
  C   C983      1.0  0.05252  0.76605  0.10078  1.0000
  N   N68       1.0  0.08373  0.84084  0.01946  1.0000
  N   N69       1.0  0.37947  0.97053  0.16621  1.0000
  H   H1665     1.0  0.22195  0.90447  0.99645  1.0000
  C   C984      1.0  0.07351  0.82844  0.02063  1.0000
  C   C985      1.0  0.08973  0.83805  0.03524  1.0000
  C   C986      1.0  0.07387  0.85815  0.01463  1.0000
  H   H1666     1.0  0.27351  0.80237  0.04680  1.0000
  H   H1667     1.0  0.07409  0.88434  0.01024  1.0000
  C   C987      1.0  0.07740  0.84504  0.04983  1.0000
  H   H1668     1.0  0.00534  0.74013  0.09504  1.0000
  C   C988      1.0  0.35581  0.97316  0.19221  1.0000
  H   H1669     1.0  0.06202  0.86079  0.02356  1.0000
  C   C989      1.0  0.33974  0.80240  0.02921  1.0000
  C   C990      1.0  0.28710  0.90969  0.14490  1.0000
  S   S290      1.0  0.00853  0.76887  0.10484  1.0000
  H   H1670     1.0  0.09414  0.82463  0.03989  1.0000
  H   H1671     1.0  0.10090  0.84346  0.03277  1.0000
  H   H1672     1.0  0.00150  0.82372  0.07458  1.0000
  H   H1673     1.0  0.02403  0.67973  0.17462  1.0000
  H   H1674     1.0  0.41348  0.93909  0.17445  1.0000
  C   C991      1.0  0.20380  0.94534  0.98868  1.0000
  H   H1675     1.0  0.30273  0.85249  0.04243  1.0000
  H   H1676     1.0  0.44260  0.87721  0.23195  1.0000
  H   H1677     1.0  0.08453  0.75854  0.08327  1.0000
  H   H1678     1.0  0.02168  0.66071  0.16048  1.0000
  H   H1679     1.0  0.05866  0.82619  0.04610  1.0000
  H   H1680     1.0  0.07713  0.83514  0.06124  1.0000
  H   H1681     1.0  0.06443  0.84987  0.04837  1.0000
  H   H1682     1.0  0.08189  0.85498  0.05242  1.0000
  H   H1683     1.0  0.05624  0.70940  0.09580  1.0000
  H   H1684     1.0  0.16651  0.98147  0.09069  1.0000
  C   C992      1.0  0.15614  0.89082  0.02964  1.0000
  H   H1685     1.0  0.18499  0.89094  0.00729  1.0000
  C   C993      1.0  0.17926  0.96953  0.11155  1.0000
  S   S291      1.0  0.99809  0.65643  0.14020  1.0000
  H   H1686     1.0  0.20625  0.92106  0.09428  1.0000
  H   H1687     1.0  0.16859  0.91398  0.03735  1.0000
  H   H1688     1.0  0.22129  0.96825  0.12547  1.0000
  H   H1689     1.0  0.00092  0.82471  0.11191  1.0000
  H   H1690     1.0  0.39034  0.95543  0.18694  1.0000
  H   H1691     1.0  0.22006  0.95011  0.10935  1.0000
  Fe  Fe148     1.0  0.37591  0.92310  0.22742  1.0000
  C   C994      1.0  0.20783  0.95741  0.11426  1.0000
  H   H1692     1.0  0.28053  0.81354  0.02671  1.0000
  Fe  Fe149     1.0  0.40543  0.89454  0.23102  1.0000
  C   C995      1.0  0.38174  0.97153  0.14795  1.0000
  H   H1693     1.0  0.04796  0.84118  0.03075  1.0000
  H   H1694     1.0  0.37898  0.95904  0.13005  1.0000
  H   H1695     1.0  0.13844  0.91128  0.04077  1.0000
  H   H1696     1.0  0.09514  0.84252  0.99334  1.0000
  H   H1697     1.0  0.28849  0.93084  0.12504  1.0000
  C   C996      1.0  0.17383  0.89362  0.00187  1.0000
  H   H1698     1.0  0.20322  0.94942  0.12631  1.0000
  H   H1699     1.0  0.00665  0.71081  0.11018  1.0000
  C   C997      1.0  0.13584  0.86314  0.99954  1.0000
  S   S292      1.0  0.41274  0.86714  0.23178  1.0000
  C   C998      1.0  0.17295  0.87722  0.99823  1.0000
  H   H1700     1.0  0.41192  0.97683  0.16645  1.0000
  H   H1701     1.0  0.13000  0.89349  0.04284  1.0000
  H   H1702     1.0  0.31892  0.80168  0.01969  1.0000
  C   C999      1.0  0.20259  0.82976  0.98470  1.0000
  H   H1703     1.0  0.04906  0.75965  0.11383  1.0000
  H   H1704     1.0  0.05856  0.71254  0.12181  1.0000
  H   H1705     1.0  0.17557  0.96215  0.12426  1.0000
  H   H1706     1.0  0.16626  0.92523  0.00070  1.0000
  Fe  Fe150     1.0  0.41072  0.92961  0.21717  1.0000
  H   H1707     1.0  0.08736  0.87154  0.02373  1.0000
  C   C1000     1.0  0.19376  0.94507  0.10004  1.0000
  H   H1708     1.0  0.08133  0.71956  0.10334  1.0000
  H   H1709     1.0  0.35627  0.96194  0.17267  1.0000
  C   C1001     1.0  0.36106  0.97243  0.17370  1.0000
  H   H1710     1.0  0.20052  0.97953  0.12538  1.0000
  H   H1711     1.0  0.18460  0.93945  0.11049  1.0000
  H   H1712     1.0  0.22833  0.96239  0.08448  1.0000
  C   C1002     1.0  0.08290  0.87224  0.01250  1.0000
  C   C1003     1.0  0.14137  0.89762  0.04269  1.0000
  H   H1713     1.0  0.07747  0.73845  0.10991  1.0000
  C   C1004     1.0  0.30522  0.84178  0.05269  1.0000
  H   H1714     1.0  0.31623  0.89437  0.12096  1.0000
  H   H1715     1.0  0.39589  0.96801  0.20644  1.0000
  H   H1716     1.0  0.18599  0.90940  0.02060  1.0000
  H   H1717     1.0  0.28340  0.82652  0.04789  1.0000
  H   H1718     1.0  0.32982  0.82874  0.00270  1.0000
  C   C1005     1.0  0.38857  0.95427  0.17494  1.0000
  H   H1719     1.0  0.29667  0.92495  0.10094  1.0000
  H   H1720     1.0  0.17633  0.93031  0.02191  1.0000
  C   C1006     1.0  0.01117  0.71508  0.13212  1.0000
  C   C1007     1.0  0.14427  0.91462  0.98792  1.0000
  H   H1721     1.0  0.36296  0.96265  0.19995  1.0000
  N   N70       1.0  0.19592  0.96104  0.10288  1.0000
  S   S293      1.0  0.01383  0.69425  0.14250  1.0000
  C   C1008     1.0  0.14817  0.84881  0.99834  1.0000
  S   S294      1.0  0.34929  0.93230  0.22515  1.0000
  H   H1722     1.0  0.29656  0.84312  0.02382  1.0000
  H   H1723     1.0  0.31814  0.79270  0.04097  1.0000
  H   H1724     1.0  0.13237  0.91165  0.01359  1.0000
  S   S295      1.0  0.26510  0.96790  0.20896  1.0000
  C   C1009     1.0  0.05684  0.82924  0.03324  1.0000
  C   C1010     1.0  0.16150  0.91842  0.01334  1.0000
  C   C1011     1.0  0.21387  0.91576  0.99160  1.0000
  H   H1725     1.0  0.18854  0.94741  0.08882  1.0000
  H   H1726     1.0  0.29371  0.90394  0.10879  1.0000
  C   C1012     1.0  0.26750  0.97877  0.22283  1.0000
  H   H1727     1.0  0.38089  0.94477  0.17804  1.0000
  C   C1013     1.0  0.40567  0.94640  0.16539  1.0000
  H   H1728     1.0  0.44757  0.96998  0.19015  1.0000
  C   C1014     1.0  0.37422  0.95923  0.14338  1.0000
  H   H1729     1.0  0.21964  0.95894  0.06892  1.0000
  H   H1730     1.0  0.02004  0.67274  0.20566  1.0000
  C   C1015     1.0  0.28292  0.98136  0.22342  1.0000
  H   H1731     1.0  0.32729  0.84436  0.01460  1.0000
  H   H1732     1.0  0.07077  0.82950  0.00833  1.0000
  H   H1733     1.0  0.10759  0.84619  0.00509  1.0000
  H   H1734     1.0  0.17985  0.98182  0.11319  1.0000
  H   H1735     1.0  0.19292  0.97372  0.07808  1.0000
  N   N71       1.0  0.30929  0.81946  0.03573  1.0000
  H   H1736     1.0  0.22510  0.80229  0.99141  1.0000
  H   H1737     1.0  0.32836  0.82952  0.03999  1.0000
  H   H1738     1.0  0.36046  0.96313  0.14524  1.0000
  H   H1739     1.0  0.29294  0.79399  0.03499  1.0000
  H   H1740     1.0  0.00095  0.84501  0.06590  1.0000
  H   H1741     1.0  0.16317  0.87909  0.99128  1.0000
  H   H1742     1.0  0.07001  0.85965  0.00278  1.0000
  H   H1743     1.0  0.19383  0.82338  0.99479  1.0000
  H   H1744     1.0  0.19932  0.98544  0.08819  1.0000
  C   C1016     1.0  0.09879  0.83841  0.00558  1.0000
  C   C1017     1.0  0.01318  0.72684  0.13966  1.0000
  H   H1745     1.0  0.34432  0.81330  0.02097  1.0000
  H   H1746     1.0  0.34303  0.80031  0.04140  1.0000
  H   H1747     1.0  0.04773  0.67172  0.14712  1.0000
  H   H1748     1.0  0.04240  0.66747  0.20381  1.0000
  C   C1018     1.0  0.31621  0.82621  0.04647  1.0000
  H   H1749     1.0  0.17441  0.80656  0.99310  1.0000
  H   H1750     1.0  0.99992  0.84803  0.12108  1.0000
  H   H1751     1.0  0.04438  0.65777  0.13680  1.0000
  C   C1019     1.0  0.40281  0.98690  0.16054  1.0000
  H   H1752     1.0  0.31644  0.84843  0.99835  1.0000
  H   H1753     1.0  0.34251  0.97234  0.19666  1.0000
  H   H1754     1.0  0.09346  0.87243  0.00168  1.0000
  H   H1755     1.0  0.37636  0.98425  0.14174  1.0000
  C   C1020     1.0  0.38483  0.98500  0.16863  1.0000
  H   H1756     1.0  0.18488  0.87255  0.99016  1.0000
  H   H1757     1.0  0.38340  0.98451  0.18193  1.0000
  H   H1758     1.0  0.40568  0.98799  0.14698  1.0000
  H   H1759     1.0  0.37901  0.98331  0.22897  1.0000
  H   H1760     1.0  0.01321  0.75252  0.13732  1.0000
  H   H1761     1.0  0.01567  0.72313  0.15199  1.0000
  S   S296      1.0  0.38770  0.94054  0.23357  1.0000
  C   C1021     1.0  0.13370  0.87546  0.98537  1.0000
  H   H1762     1.0  0.22909  0.77246  0.98768  1.0000
  C   C1022     1.0  0.04736  0.65859  0.14838  1.0000
  H   H1763     1.0  0.00240  0.66908  0.18889  1.0000
  S   S297      1.0  0.32761  0.67406  0.39174  1.0000
  H   H1764     1.0  0.46152  0.78892  0.36872  1.0000
  Fe  Fe151     1.0  0.39861  0.69587  0.41765  1.0000
  S   S298      1.0  0.39967  0.71272  0.39270  1.0000
  S   S299      1.0  0.37564  0.68555  0.43122  1.0000
  Fe  Fe152     1.0  0.43360  0.69875  0.41923  1.0000
  S   S300      1.0  0.43724  0.71571  0.39433  1.0000
  S   S301      1.0  0.45275  0.68895  0.43524  1.0000
  Fe  Fe153     1.0  0.41068  0.72801  0.40273  1.0000
  S   S302      1.0  0.40008  0.75515  0.40067  1.0000
  Fe  Fe154     1.0  0.42585  0.69854  0.38702  1.0000
  S   S303      1.0  0.40771  0.71232  0.42832  1.0000
  Fe  Fe155     1.0  0.45258  0.79371  0.31923  1.0000
  S   S304      1.0  0.44836  0.79488  0.29424  1.0000
  S   S305      1.0  0.43164  0.80399  0.33832  1.0000
  H   H1765     1.0  0.32789  0.94958  0.25276  1.0000
  C   C1023     1.0  0.47343  0.76119  0.42404  1.0000
  Fe  Fe156     1.0  0.47071  0.80641  0.28426  1.0000
  S   S306      1.0  0.47377  0.82998  0.26553  1.0000
  Fe  Fe157     1.0  0.46696  0.77062  0.29560  1.0000
  S   S307      1.0  0.47342  0.80726  0.30919  1.0000
  S   S308      1.0  0.46931  0.76846  0.32153  1.0000
  Fe  Fe158     1.0  0.39563  0.91916  0.25333  1.0000
  H   H1766     1.0  0.28756  0.96450  0.27047  1.0000
  S   S309      1.0  0.39339  0.92131  0.27932  1.0000
  C   C1024     1.0  0.48833  0.69713  0.45316  1.0000
  C   C1025     1.0  0.34038  0.67810  0.40280  1.0000
  C   C1026     1.0  0.43116  0.84015  0.24884  1.0000
  S   S310      1.0  0.31833  0.94720  0.31129  1.0000
  C   C1027     1.0  0.37248  0.92821  0.28820  1.0000
  C   C1028     1.0  0.36074  0.93519  0.27823  1.0000
  C   C1029     1.0  0.34423  0.94157  0.28528  1.0000
  C   C1030     1.0  0.33922  0.94030  0.30236  1.0000
  C   C1031     1.0  0.35084  0.93282  0.31240  1.0000
  C   C1032     1.0  0.36753  0.92705  0.30530  1.0000
  H   H1767     1.0  0.36440  0.93599  0.26505  1.0000
  H   H1768     1.0  0.33538  0.94747  0.27748  1.0000
  H   H1769     1.0  0.34697  0.93174  0.32565  1.0000
  H   H1770     1.0  0.37656  0.92163  0.31306  1.0000
  C   C1033     1.0  0.45726  0.83984  0.25537  1.0000
  C   C1034     1.0  0.48159  0.66344  0.35166  1.0000
  C   C1035     1.0  0.47127  0.75939  0.38996  1.0000
  H   H1771     1.0  0.35072  0.97595  0.29603  1.0000
  S   S311      1.0  0.28117  0.98476  0.30685  1.0000
  C   C1036     1.0  0.44455  0.83181  0.25656  1.0000
  N   N72       1.0  0.37392  0.98281  0.25523  1.0000
  Fe  Fe159     1.0  0.30857  0.65803  0.40469  1.0000
  H   H1772     1.0  0.14793  0.68516  0.44365  1.0000
  H   H1773     1.0  0.44509  0.81915  0.26326  1.0000
  C   C1037     1.0  0.40879  0.76818  0.38283  1.0000
  C   C1038     1.0  0.40272  0.78527  0.38087  1.0000
  C   C1039     1.0  0.40976  0.79609  0.36707  1.0000
  C   C1040     1.0  0.42295  0.78990  0.35516  1.0000
  C   C1041     1.0  0.42908  0.77279  0.35707  1.0000
  C   C1042     1.0  0.42195  0.76188  0.37091  1.0000
  H   H1774     1.0  0.39260  0.79018  0.39010  1.0000
  H   H1775     1.0  0.40503  0.80932  0.36567  1.0000
  H   H1776     1.0  0.43946  0.76807  0.34804  1.0000
  H   H1777     1.0  0.42677  0.74870  0.37252  1.0000
  C   C1043     1.0  0.46839  0.69804  0.43710  1.0000
  C   C1044     1.0  0.47522  0.71028  0.42464  1.0000
  C   C1045     1.0  0.14244  0.73362  0.42585  1.0000
  C   C1046     1.0  0.47512  0.69151  0.45123  1.0000
  H   H1778     1.0  0.47050  0.71493  0.41340  1.0000
  H   H1779     1.0  0.21945  0.66295  0.41731  1.0000
  C   C1047     1.0  0.13999  0.73278  0.44450  1.0000
  C   C1048     1.0  0.36236  0.68264  0.41999  1.0000
  C   C1049     1.0  0.36647  0.68493  0.40275  1.0000
  C   C1050     1.0  0.35545  0.68282  0.39420  1.0000
  H   H1780     1.0  0.37818  0.68824  0.39600  1.0000
  H   H1781     1.0  0.35878  0.68446  0.38087  1.0000
  H   H1782     1.0  0.47718  0.68521  0.38759  1.0000
  H   H1783     1.0  0.48761  0.70218  0.38398  1.0000
  C   C1051     1.0  0.38850  0.96834  0.25708  1.0000
  N   N73       1.0  0.45625  0.76683  0.40158  1.0000
  N   N74       1.0  0.34675  0.73616  0.42014  1.0000
  S   S312      1.0  0.42416  0.68046  0.41132  1.0000
  H   H1784     1.0  0.44353  0.66239  0.38814  1.0000
  C   C1052     1.0  0.26918  0.95196  0.28656  1.0000
  H   H1785     1.0  0.27466  0.96037  0.26005  1.0000
  H   H1786     1.0  0.18811  0.70994  0.44212  1.0000
  H   H1787     1.0  0.42330  0.76913  0.42202  1.0000
  H   H1788     1.0  0.47930  0.76851  0.38357  1.0000
  H   H1789     1.0  0.12623  0.68895  0.44447  1.0000
  H   H1790     1.0  0.45168  0.78095  0.42073  1.0000
  S   S313      1.0  0.38186  0.90260  0.24870  1.0000
  C   C1053     1.0  0.20618  0.66898  0.44075  1.0000
  C   C1054     1.0  0.30090  0.92105  0.29399  1.0000
  C   C1055     1.0  0.46216  0.77377  0.41290  1.0000
  C   C1056     1.0  0.33621  0.67596  0.42002  1.0000
  C   C1057     1.0  0.43026  0.85663  0.24020  1.0000
  H   H1791     1.0  0.22454  0.67360  0.46950  1.0000
  S   S314      1.0  0.18654  0.67061  0.43690  1.0000
  C   C1058     1.0  0.45329  0.67518  0.36370  1.0000
  H   H1792     1.0  0.45976  0.80013  0.38458  1.0000
  H   H1793     1.0  0.31610  0.76936  0.43221  1.0000
  C   C1059     1.0  0.49511  0.70781  0.30429  1.0000
  H   H1794     1.0  0.47243  0.76600  0.43517  1.0000
  H   H1795     1.0  0.28847  0.92563  0.30115  1.0000
  S   S315      1.0  0.46273  0.74947  0.28754  1.0000
  H   H1796     1.0  0.35915  0.71817  0.40485  1.0000
  S   S316      1.0  0.25742  0.66344  0.45116  1.0000
  H   H1797     1.0  0.35297  0.75439  0.38529  1.0000
  H   H1798     1.0  0.12177  0.73943  0.47537  1.0000
  C   C1060     1.0  0.46685  0.67523  0.35032  1.0000
  H   H1799     1.0  0.16435  0.70396  0.43745  1.0000
  C   C1061     1.0  0.48739  0.65614  0.41145  1.0000
  H   H1800     1.0  0.48600  0.68155  0.41234  1.0000
  C   C1062     1.0  0.32251  0.72051  0.42961  1.0000
  H   H1801     1.0  0.34020  0.73053  0.39965  1.0000
  H   H1802     1.0  0.31300  0.73214  0.42808  1.0000
  H   H1803     1.0  0.32509  0.71462  0.41887  1.0000
  H   H1804     1.0  0.31700  0.71175  0.44047  1.0000
  C   C1063     1.0  0.13668  0.69517  0.44270  1.0000
  H   H1805     1.0  0.27048  0.91949  0.25361  1.0000
  H   H1806     1.0  0.30835  0.94413  0.28173  1.0000
  H   H1807     1.0  0.34206  0.76237  0.40941  1.0000
  H   H1808     1.0  0.44322  0.80379  0.37409  1.0000
  H   H1809     1.0  0.40947  0.95708  0.26908  1.0000
  S   S317      1.0  0.41987  0.90943  0.23755  1.0000
  H   H1810     1.0  0.31067  0.96718  0.25330  1.0000
  H   H1811     1.0  0.13814  0.70297  0.43011  1.0000
  H   H1812     1.0  0.32401  0.75098  0.44511  1.0000
  H   H1813     1.0  0.13209  0.69567  0.46813  1.0000
  C   C1064     1.0  0.30625  0.93349  0.27797  1.0000
  H   H1814     1.0  0.29713  0.95133  0.23981  1.0000
  C   C1065     1.0  0.35139  0.73096  0.40372  1.0000
  H   H1815     1.0  0.27992  0.92079  0.27720  1.0000
  H   H1816     1.0  0.36488  0.73614  0.37828  1.0000
  C   C1066     1.0  0.20761  0.67186  0.45557  1.0000
  C   C1067     1.0  0.49529  0.70925  0.44089  1.0000
  H   H1817     1.0  0.37314  0.72709  0.41991  1.0000
  H   H1818     1.0  0.36473  0.97098  0.24105  1.0000
  C   C1068     1.0  0.36850  0.98285  0.23980  1.0000
  H   H1819     1.0  0.47012  0.68192  0.46080  1.0000
  H   H1820     1.0  0.40893  0.97835  0.25931  1.0000
  H   H1821     1.0  0.31876  0.92707  0.27210  1.0000
  Fe  Fe160     1.0  0.30868  0.97429  0.30213  1.0000
  H   H1822     1.0  0.43780  0.75979  0.43578  1.0000
  C   C1069     1.0  0.40103  0.96942  0.26670  1.0000
  H   H1823     1.0  0.21120  0.65688  0.37390  1.0000
  H   H1824     1.0  0.25770  0.96172  0.28565  1.0000
  N   N75       1.0  0.29482  0.93962  0.26583  1.0000
  C   C1070     1.0  0.30517  0.94487  0.24886  1.0000
  H   H1825     1.0  0.24730  0.65955  0.42294  1.0000
  H   H1826     1.0  0.15350  0.72487  0.42083  1.0000
  H   H1827     1.0  0.49098  0.83190  0.32278  1.0000
  H   H1828     1.0  0.12660  0.73825  0.44857  1.0000
  C   C1071     1.0  0.27561  0.93043  0.25270  1.0000
  H   H1829     1.0  0.26498  0.94016  0.28967  1.0000
  N   N76       1.0  0.14463  0.71596  0.45527  1.0000
  H   H1830     1.0  0.21327  0.66506  0.39056  1.0000
  H   H1831     1.0  0.46965  0.78314  0.40558  1.0000
  H   H1832     1.0  0.46162  0.74169  0.38232  1.0000
  H   H1833     1.0  0.44048  0.75015  0.40287  1.0000
  H   H1834     1.0  0.48665  0.75917  0.41737  1.0000
  H   H1835     1.0  0.29727  0.91518  0.26172  1.0000
  H   H1836     1.0  0.28226  0.93372  0.23967  1.0000
  C   C1072     1.0  0.44661  0.75357  0.41109  1.0000
  C   C1073     1.0  0.23776  0.66601  0.44681  1.0000
  H   H1837     1.0  0.34383  0.67656  0.44189  1.0000
  C   C1074     1.0  0.36271  0.73432  0.44290  1.0000
  H   H1838     1.0  0.27430  0.95304  0.29679  1.0000
  C   C1075     1.0  0.28175  0.95450  0.26999  1.0000
  H   H1839     1.0  0.16554  0.69543  0.45817  1.0000
  C   C1076     1.0  0.44308  0.86460  0.23884  1.0000
  C   C1077     1.0  0.25346  0.98370  0.23463  1.0000
  H   H1840     1.0  0.19657  0.67523  0.46470  1.0000
  H   H1841     1.0  0.15134  0.72634  0.47258  1.0000
  H   H1842     1.0  0.46649  0.86238  0.24525  1.0000
  H   H1843     1.0  0.43813  0.77575  0.38597  1.0000
  H   H1844     1.0  0.17157  0.66066  0.41258  1.0000
  H   H1845     1.0  0.43496  0.78736  0.40109  1.0000
  H   H1846     1.0  0.37087  0.96408  0.28988  1.0000
  C   C1078     1.0  0.33532  0.75299  0.41824  1.0000
  C   C1079     1.0  0.16238  0.70742  0.44950  1.0000
  C   C1080     1.0  0.45308  0.79400  0.37929  1.0000
  C   C1081     1.0  0.14306  0.71828  0.47252  1.0000
  H   H1847     1.0  0.32505  0.75345  0.41226  1.0000
  H   H1848     1.0  0.35224  0.74257  0.44942  1.0000
  C   C1082     1.0  0.46764  0.75246  0.37671  1.0000
  C   C1083     1.0  0.34716  0.67825  0.42856  1.0000
  N   N77       1.0  0.42609  0.73373  0.32414  1.0000
  C   C1084     1.0  0.43684  0.71819  0.31873  1.0000
  C   C1085     1.0  0.43672  0.74122  0.33047  1.0000
  C   C1086     1.0  0.42019  0.74547  0.30919  1.0000
  C   C1087     1.0  0.41154  0.72899  0.33741  1.0000
  C   C1088     1.0  0.42861  0.70909  0.31079  1.0000
  C   C1089     1.0  0.44427  0.73037  0.34526  1.0000
  C   C1090     1.0  0.41749  0.76425  0.30823  1.0000
  C   C1091     1.0  0.40005  0.74277  0.34601  1.0000
  H   H1849     1.0  0.44833  0.72099  0.30971  1.0000
  H   H1850     1.0  0.44113  0.70883  0.32928  1.0000
  H   H1851     1.0  0.42970  0.75295  0.33426  1.0000
  H   H1852     1.0  0.44726  0.74464  0.32043  1.0000
  H   H1853     1.0  0.42929  0.74337  0.29754  1.0000
  H   H1854     1.0  0.40844  0.74309  0.30783  1.0000
  H   H1855     1.0  0.40343  0.72420  0.33235  1.0000
  H   H1856     1.0  0.41588  0.71863  0.34722  1.0000
  H   H1857     1.0  0.41869  0.70344  0.31997  1.0000
  H   H1858     1.0  0.42363  0.71717  0.30000  1.0000
  H   H1859     1.0  0.43817  0.69874  0.30624  1.0000
  H   H1860     1.0  0.43458  0.72661  0.35609  1.0000
  H   H1861     1.0  0.45359  0.71933  0.34201  1.0000
  H   H1862     1.0  0.45102  0.73767  0.34914  1.0000
  H   H1863     1.0  0.40945  0.76835  0.31943  1.0000
  H   H1864     1.0  0.41159  0.77120  0.29761  1.0000
  H   H1865     1.0  0.42959  0.76794  0.30581  1.0000
  H   H1866     1.0  0.40669  0.74787  0.35236  1.0000
  H   H1867     1.0  0.39027  0.73743  0.35573  1.0000
  H   H1868     1.0  0.39361  0.75280  0.33732  1.0000
  H   H1869     1.0  0.18613  0.66303  0.39339  1.0000
  H   H1870     1.0  0.17385  0.72933  0.43874  1.0000
  H   H1871     1.0  0.30984  0.91884  0.30211  1.0000
  H   H1872     1.0  0.32456  0.67253  0.42677  1.0000
  C   C1092     1.0  0.45419  0.66288  0.37807  1.0000
  Fe  Fe161     1.0  0.13610  0.65644  0.47876  1.0000
  H   H1873     1.0  0.47735  0.72750  0.31484  1.0000
  N   N78       1.0  0.40882  0.86464  0.29277  1.0000
  C   C1093     1.0  0.42069  0.87120  0.27746  1.0000
  C   C1094     1.0  0.40178  0.85203  0.28884  1.0000
  C   C1095     1.0  0.41754  0.85636  0.30690  1.0000
  C   C1096     1.0  0.39540  0.87897  0.29765  1.0000
  C   C1097     1.0  0.43109  0.88256  0.27941  1.0000
  C   C1098     1.0  0.38902  0.85907  0.27760  1.0000
  C   C1099     1.0  0.43265  0.84215  0.30348  1.0000
  C   C1100     1.0  0.38158  0.87462  0.31284  1.0000
  H   H1874     1.0  0.42959  0.86084  0.27239  1.0000
  H   H1875     1.0  0.41395  0.87834  0.26745  1.0000
  H   H1876     1.0  0.39591  0.84412  0.30028  1.0000
  H   H1877     1.0  0.41190  0.84312  0.28255  1.0000
  H   H1878     1.0  0.42167  0.86555  0.31113  1.0000
  H   H1879     1.0  0.40878  0.85094  0.31791  1.0000
  H   H1880     1.0  0.40081  0.88793  0.30080  1.0000
  H   H1881     1.0  0.38955  0.88652  0.28712  1.0000
  H   H1882     1.0  0.43936  0.87617  0.28821  1.0000
  H   H1883     1.0  0.43927  0.88631  0.26724  1.0000
  H   H1884     1.0  0.42325  0.89414  0.28298  1.0000
  H   H1885     1.0  0.37729  0.86625  0.28381  1.0000
  H   H1886     1.0  0.39410  0.86687  0.26577  1.0000
  H   H1887     1.0  0.38585  0.84866  0.27445  1.0000
  H   H1888     1.0  0.44269  0.84634  0.29324  1.0000
  H   H1889     1.0  0.42903  0.83173  0.30087  1.0000
  H   H1890     1.0  0.43805  0.83711  0.31470  1.0000
  H   H1891     1.0  0.38495  0.87497  0.32438  1.0000
  H   H1892     1.0  0.37880  0.86236  0.31421  1.0000
  H   H1893     1.0  0.36980  0.88378  0.31143  1.0000
  H   H1894     1.0  0.37438  0.73706  0.44396  1.0000
  C   C1101     1.0  0.48322  0.72286  0.30368  1.0000
  C   C1102     1.0  0.36270  0.97645  0.28697  1.0000
  H   H1895     1.0  0.14642  0.74185  0.44607  1.0000
  H   H1896     1.0  0.33652  0.76657  0.43621  1.0000
  C   C1103     1.0  0.22340  0.67080  0.45837  1.0000
  C   C1104     1.0  0.35941  0.98019  0.26945  1.0000
  C   C1105     1.0  0.33853  0.72314  0.43278  1.0000
  H   H1897     1.0  0.36276  0.72119  0.44931  1.0000
  H   H1898     1.0  0.34738  0.71099  0.43377  1.0000
  H   H1899     1.0  0.48606  0.69443  0.36708  1.0000
  C   C1106     1.0  0.36264  0.73685  0.42444  1.0000
  H   H1900     1.0  0.36646  0.74883  0.41810  1.0000
  C   C1107     1.0  0.36095  0.74213  0.38909  1.0000
  C   C1108     1.0  0.32780  0.76020  0.43392  1.0000
  C   C1109     1.0  0.44487  0.78069  0.39236  1.0000
  H   H1901     1.0  0.13121  0.73165  0.42301  1.0000
  H   H1902     1.0  0.33536  0.72557  0.44541  1.0000
  H   H1903     1.0  0.46614  0.68463  0.33911  1.0000
  H   H1904     1.0  0.30144  0.90886  0.29141  1.0000
  H   H1905     1.0  0.39517  0.97277  0.27880  1.0000
  S   S318      1.0  0.43559  0.69098  0.36265  1.0000
  C   C1110     1.0  0.28725  0.92586  0.26503  1.0000
  H   H1906     1.0  0.31320  0.93383  0.24407  1.0000
  C   C1111     1.0  0.49575  0.67015  0.41133  1.0000
  H   H1907     1.0  0.45494  0.74187  0.41575  1.0000
  H   H1908     1.0  0.45993  0.76199  0.36873  1.0000
  H   H1909     1.0  0.17705  0.71884  0.45944  1.0000
  C   C1112     1.0  0.43273  0.75804  0.42586  1.0000
  C   C1113     1.0  0.13277  0.70511  0.45635  1.0000
  H   H1910     1.0  0.37239  0.74386  0.39166  1.0000
  H   H1911     1.0  0.42615  0.74760  0.43130  1.0000
  H   H1912     1.0  0.39624  0.96628  0.24482  1.0000
  H   H1913     1.0  0.35412  0.96991  0.26876  1.0000
  S   S319      1.0  0.28122  0.66623  0.40460  1.0000
  H   H1914     1.0  0.14461  0.74607  0.41889  1.0000
  H   H1915     1.0  0.11983  0.71250  0.45671  1.0000
  H   H1916     1.0  0.42134  0.83391  0.24976  1.0000
  C   C1114     1.0  0.31687  0.95646  0.24748  1.0000
  H   H1917     1.0  0.26483  0.94059  0.25550  1.0000
  H   H1918     1.0  0.38404  0.95661  0.26288  1.0000
  S   S320      1.0  0.31374  0.98740  0.27550  1.0000
  C   C1115     1.0  0.17587  0.71720  0.44744  1.0000
  H   H1919     1.0  0.23105  0.65749  0.37563  1.0000
  H   H1920     1.0  0.47961  0.74808  0.36851  1.0000
  C   C1116     1.0  0.22051  0.66490  0.42888  1.0000
  C   C1117     1.0  0.48873  0.71587  0.42653  1.0000
  H   H1921     1.0  0.48628  0.80018  0.36375  1.0000
  S   S321      1.0  0.48902  0.78225  0.28325  1.0000
  Fe  Fe162     1.0  0.48988  0.78217  0.30908  1.0000
  H   H1922     1.0  0.47933  0.74897  0.39697  1.0000
  C   C1118     1.0  0.45663  0.85615  0.24630  1.0000
  H   H1923     1.0  0.32163  0.96146  0.23420  1.0000
  C   C1119     1.0  0.47865  0.73158  0.28865  1.0000
  H   H1924     1.0  0.46974  0.74909  0.42889  1.0000
  C   C1120     1.0  0.23629  0.66308  0.43203  1.0000
  S   S322      1.0  0.10977  0.67118  0.48110  1.0000
  H   H1925     1.0  0.36771  0.98630  0.28897  1.0000
  C   C1121     1.0  0.48599  0.72532  0.27436  1.0000
  H   H1926     1.0  0.48236  0.73187  0.26279  1.0000
  Fe  Fe163     1.0  0.17095  0.65663  0.45863  1.0000
  C   C1122     1.0  0.48789  0.69078  0.38002  1.0000
  H   H1927     1.0  0.49210  0.66370  0.34138  1.0000
  H   H1928     1.0  0.49334  0.69188  0.46422  1.0000
  H   H1929     1.0  0.47372  0.65978  0.41586  1.0000
  H   H1930     1.0  0.48870  0.83870  0.30191  1.0000
  H   H1931     1.0  0.49420  0.72507  0.41688  1.0000
  H   H1932     1.0  0.14708  0.70616  0.48078  1.0000
  H   H1933     1.0  0.48905  0.79524  0.33598  1.0000
  S   S323      1.0  0.15684  0.66668  0.48106  1.0000
  H   H1934     1.0  0.24154  0.98164  0.23441  1.0000
  C   C1123     1.0  0.12553  0.72619  0.48118  1.0000
  H   H1935     1.0  0.11592  0.71946  0.48162  1.0000
  C   C1124     1.0  0.28415  0.98874  0.23591  1.0000
  Fe  Fe164     1.0  0.03161  0.75209  0.54375  1.0000
  S   S324      1.0  0.02069  0.73745  0.56812  1.0000
  H   H1936     1.0  0.07935  0.67835  0.56519  1.0000
  Fe  Fe165     1.0  0.06509  0.72804  0.54090  1.0000
  S   S325      1.0  0.05691  0.71133  0.56508  1.0000
  S   S326      1.0  0.09194  0.72164  0.52817  1.0000
  Fe  Fe166     1.0  0.03326  0.71550  0.55655  1.0000
  S   S327      1.0  0.01972  0.69557  0.55868  1.0000
  Fe  Fe167     1.0  0.04539  0.73486  0.57417  1.0000
  S   S328      1.0  0.04747  0.73653  0.59911  1.0000
  S   S329      1.0  0.04226  0.73033  0.53144  1.0000
  S   S330      1.0  0.05541  0.75135  0.55073  1.0000
  H   H1937     1.0  0.13287  0.95507  0.62821  1.0000
  H   H1938     1.0  0.43804  0.69006  0.72906  1.0000
  S   S331      1.0  0.01475  0.80713  0.61512  1.0000
  C   C1125     1.0  0.00183  0.67671  0.58416  1.0000
  H   H1939     1.0  0.12910  0.93420  0.65380  1.0000
  H   H1940     1.0  0.28239  0.98803  0.59477  1.0000
  Fe  Fe168     1.0  0.15200  0.96137  0.67949  1.0000
  H   H1941     1.0  0.03297  0.66695  0.61284  1.0000
  S   S332      1.0  0.16161  0.93583  0.69315  1.0000
  H   H1942     1.0  0.23979  0.98500  0.56968  1.0000
  H   H1943     1.0  0.20499  0.66293  0.49548  1.0000
  S   S333      1.0  0.14232  0.96280  0.65725  1.0000
  Fe  Fe169     1.0  0.03231  0.89117  0.71498  1.0000
  C   C1126     1.0  0.04416  0.98314  0.69355  1.0000
  C   C1127     1.0  0.00783  0.83585  0.69297  1.0000
  H   H1944     1.0  0.05673  0.69348  0.52104  1.0000
  C   C1128     1.0  0.14377  0.89491  0.70305  1.0000
  Fe  Fe170     1.0  0.06549  0.90121  0.70936  1.0000
  S   S334      1.0  0.09071  0.90325  0.69360  1.0000
  H   H1945     1.0  0.12686  0.91425  0.65339  1.0000
  S   S335      1.0  0.04123  0.91493  0.70240  1.0000
  C   C1129     1.0  0.09276  0.95793  0.67707  1.0000
  C   C1130     1.0  0.07850  0.95275  0.67711  1.0000
  C   C1131     1.0  0.07771  0.93597  0.68255  1.0000
  C   C1132     1.0  0.09135  0.92429  0.68752  1.0000
  C   C1133     1.0  0.10562  0.92947  0.68741  1.0000
  C   C1134     1.0  0.10620  0.94630  0.68248  1.0000
  H   H1946     1.0  0.06822  0.96156  0.67255  1.0000
  H   H1947     1.0  0.06677  0.93201  0.68232  1.0000
  H   H1948     1.0  0.11619  0.92052  0.69124  1.0000
  H   H1949     1.0  0.11714  0.95017  0.68282  1.0000
  H   H1950     1.0  0.04281  0.97003  0.69650  1.0000
  H   H1951     1.0  0.26773  0.97429  0.57487  1.0000
  C   C1135     1.0  0.16129  0.93468  0.71395  1.0000
  C   C1136     1.0  0.17470  0.93775  0.71829  1.0000
  H   H1952     1.0  0.07438  0.97932  0.70741  1.0000
  H   H1953     1.0  0.45361  0.67479  0.70637  1.0000
  H   H1954     1.0  0.18484  0.94179  0.70874  1.0000
  H   H1955     1.0  0.03129  0.83622  0.61854  1.0000
  H   H1956     1.0  0.46078  0.69912  0.71021  1.0000
  H   H1957     1.0  0.22463  0.66577  0.49791  1.0000
  C   C1137     1.0  0.01357  0.86527  0.69806  1.0000
  C   C1138     1.0  0.02322  0.84983  0.70371  1.0000
  H   H1958     1.0  0.22001  0.98727  0.59573  1.0000
  H   H1959     1.0  0.09453  0.88546  0.73110  1.0000
  H   H1960     1.0  0.99767  0.78536  0.50688  1.0000
  H   H1961     1.0  0.03269  0.84907  0.71030  1.0000
  H   H1962     1.0  0.10626  0.98687  0.62184  1.0000
  C   C1139     1.0  0.09655  0.70760  0.51523  1.0000
  C   C1140     1.0  0.11164  0.69601  0.51442  1.0000
  C   C1141     1.0  0.11574  0.68478  0.50398  1.0000
  C   C1142     1.0  0.06570  0.66685  0.52087  1.0000
  S   S336      1.0  0.01694  0.77602  0.53173  1.0000
  C   C1143     1.0  0.08561  0.70806  0.50545  1.0000
  H   H1963     1.0  0.07945  0.68260  0.53550  1.0000
  H   H1964     1.0  0.06015  0.67984  0.54868  1.0000
  H   H1965     1.0  0.07404  0.71714  0.50589  1.0000
  C   C1144     1.0  0.03934  0.75641  0.60318  1.0000
  C   C1145     1.0  0.03683  0.77027  0.59038  1.0000
  C   C1146     1.0  0.02999  0.78602  0.59403  1.0000
  C   C1147     1.0  0.02488  0.78776  0.61049  1.0000
  C   C1148     1.0  0.02739  0.77391  0.62323  1.0000
  C   C1149     1.0  0.03498  0.75832  0.61956  1.0000
  H   H1966     1.0  0.04036  0.76889  0.57769  1.0000
  H   H1967     1.0  0.02845  0.79678  0.58414  1.0000
  N   N79       1.0  0.04439  0.81825  0.64912  1.0000
  H   H1968     1.0  0.09856  0.66085  0.52347  1.0000
  C   C1150     1.0  0.01621  0.68320  0.57859  1.0000
  H   H1969     1.0  0.03884  0.68438  0.58455  1.0000
  H   H1970     1.0  0.99950  0.72762  0.60814  1.0000
  H   H1971     1.0  0.02717  0.71414  0.61452  1.0000
  C   C1151     1.0  0.04696  0.82659  0.66144  1.0000
  N   N80       1.0  0.46517  0.66350  0.72760  1.0000
  N   N81       1.0  0.10893  0.95072  0.62780  1.0000
  H   H1972     1.0  0.20599  0.66932  0.51322  1.0000
  H   H1973     1.0  0.48247  0.68939  0.70812  1.0000
  H   H1974     1.0  0.13803  0.92597  0.63541  1.0000
  S   S337      1.0  0.05734  0.87700  0.72012  1.0000
  C   C1152     1.0  0.07773  0.95042  0.63194  1.0000
  C   C1153     1.0  0.01159  0.68775  0.64924  1.0000
  C   C1154     1.0  0.13144  0.88346  0.71224  1.0000
  C   C1155     1.0  0.12716  0.92693  0.64577  1.0000
  H   H1975     1.0  0.27381  0.97016  0.59999  1.0000
  H   H1976     1.0  0.05777  0.83288  0.62752  1.0000
  H   H1977     1.0  0.12209  0.97833  0.60558  1.0000
  C   C1156     1.0  0.02019  0.83523  0.70138  1.0000
  H   H1978     1.0  0.07044  0.81551  0.63751  1.0000
  H   H1979     1.0  0.01394  0.73636  0.62331  1.0000
  H   H1980     1.0  0.99943  0.77353  0.58657  1.0000
  H   H1981     1.0  0.03707  0.74766  0.62947  1.0000
  C   C1157     1.0  0.11038  0.93441  0.64029  1.0000
  C   C1158     1.0  0.02423  0.66982  0.60486  1.0000
  H   H1982     1.0  0.15683  0.88872  0.70365  1.0000
  C   C1159     1.0  0.04475  0.80026  0.65743  1.0000
  C   C1160     1.0  0.02555  0.84018  0.63046  1.0000
  H   H1983     1.0  0.11000  0.95976  0.60154  1.0000
  H   H1984     1.0  0.10809  0.90899  0.72209  1.0000
  H   H1985     1.0  0.02365  0.77514  0.63593  1.0000
  H   H1986     1.0  0.06377  0.79505  0.67241  1.0000
  H   H1987     1.0  0.05302  0.70407  0.62354  1.0000
  H   H1988     1.0  0.07175  0.78946  0.65228  1.0000
  H   H1989     1.0  0.17030  0.98515  0.71615  1.0000
  H   H1990     1.0  0.26950  0.97967  0.54694  1.0000
  H   H1991     1.0  0.13539  0.87220  0.70681  1.0000
  H   H1992     1.0  0.03128  0.69248  0.61955  1.0000
  H   H1993     1.0  0.06160  0.81713  0.60852  1.0000
  H   H1994     1.0  0.02023  0.68706  0.65720  1.0000
  H   H1995     1.0  0.12565  0.72578  0.49421  1.0000
  H   H1996     1.0  0.01811  0.82892  0.65633  1.0000
  C   C1161     1.0  0.11325  0.94791  0.61041  1.0000
  H   H1997     1.0  0.07552  0.65801  0.56937  1.0000
  H   H1998     1.0  0.04674  0.85003  0.66684  1.0000
  H   H1999     1.0  0.13305  0.93941  0.59082  1.0000
  C   C1162     1.0  0.02731  0.70356  0.62519  1.0000
  H   H2000     1.0  0.01035  0.70895  0.60065  1.0000
  C   C1163     1.0  0.05183  0.68265  0.52112  1.0000
  H   H2001     1.0  0.04680  0.68573  0.50973  1.0000
  H   H2002     1.0  0.10716  0.92475  0.63589  1.0000
  H   H2003     1.0  0.44024  0.65980  0.73025  1.0000
  C   C1164     1.0  0.46587  0.67253  0.70979  1.0000
  H   H2004     1.0  0.14050  0.90658  0.70757  1.0000
  H   H2005     1.0  0.00859  0.81023  0.53944  1.0000
  C   C1165     1.0  0.04141  0.70385  0.63321  1.0000
  S   S338      1.0  0.00428  0.81689  0.69101  1.0000
  H   H2006     1.0  0.01683  0.67694  0.64314  1.0000
  H   H2007     1.0  0.08796  0.96437  0.64286  1.0000
  H   H2008     1.0  0.10495  0.98109  0.73203  1.0000
  C   C1166     1.0  0.10489  0.68530  0.49408  1.0000
  C   C1167     1.0  0.11951  0.96121  0.63009  1.0000
  H   H2009     1.0  0.02233  0.81586  0.64242  1.0000
  S   S339      1.0  0.09425  0.97871  0.66918  1.0000
  H   H2010     1.0  0.06525  0.95857  0.63459  1.0000
  H   H2011     1.0  0.03456  0.79928  0.66869  1.0000
  H   H2012     1.0  0.00534  0.74395  0.64157  1.0000
  H   H2013     1.0  0.02744  0.82333  0.70622  1.0000
  H   H2014     1.0  0.06799  0.79821  0.62217  1.0000
  C   C1168     1.0  0.13149  0.94013  0.60390  1.0000
  C   C1169     1.0  0.26950  0.98618  0.57643  1.0000
  H   H2015     1.0  0.03081  0.85050  0.63090  1.0000
  C   C1170     1.0  0.27134  0.98364  0.59448  1.0000
  H   H2016     1.0  0.11948  0.88983  0.70855  1.0000
  H   H2017     1.0  0.14021  0.94769  0.60398  1.0000
  S   S340      1.0  0.12907  0.97737  0.69130  1.0000
  H   H2018     1.0  0.10125  0.93569  0.65206  1.0000
  C   C1171     1.0  0.08987  0.69701  0.49475  1.0000
  H   H2019     1.0  0.07889  0.94693  0.62007  1.0000
  H   H2020     1.0  0.04613  0.80675  0.62236  1.0000
  C   C1172     1.0  0.99816  0.66760  0.60030  1.0000
  C   C1173     1.0  0.09107  0.96004  0.63104  1.0000
  H   H2021     1.0  0.12711  0.67551  0.50392  1.0000
  C   C1174     1.0  0.08120  0.66750  0.55962  1.0000
  C   C1175     1.0  0.06101  0.79021  0.66288  1.0000
  H   H2022     1.0  0.47465  0.66472  0.70132  1.0000
  H   H2023     1.0  0.03796  0.65817  0.54827  1.0000
  H   H2024     1.0  0.08899  0.97146  0.62131  1.0000
  H   H2025     1.0  0.04208  0.79340  0.64938  1.0000
  H   H2026     1.0  0.07538  0.67042  0.50983  1.0000
  C   C1176     1.0  0.05812  0.81973  0.63394  1.0000
  C   C1177     1.0  0.07301  0.67307  0.54447  1.0000
  C   C1178     1.0  0.02753  0.67966  0.58889  1.0000
  H   H2027     1.0  0.13503  0.92728  0.61079  1.0000
  H   H2028     1.0  0.04131  0.68129  0.53173  1.0000
  C   C1179     1.0  0.05827  0.80978  0.62124  1.0000
  H   H2029     1.0  0.06000  0.82255  0.66321  1.0000
  H   H2030     1.0  0.47254  0.69387  0.69112  1.0000
  H   H2031     1.0  0.02987  0.85093  0.65796  1.0000
  H   H2032     1.0  0.05949  0.77729  0.66864  1.0000
  H   H2033     1.0  0.10575  0.93963  0.60918  1.0000
  H   H2034     1.0  0.11592  0.96290  0.64307  1.0000
  H   H2035     1.0  0.12008  0.69560  0.52205  1.0000
  H   H2036     1.0  0.08146  0.69748  0.48706  1.0000
  H   H2037     1.0  0.28188  0.98783  0.56851  1.0000
  H   H2038     1.0  0.03884  0.71522  0.63814  1.0000
  N   N82       1.0  0.01038  0.70376  0.63643  1.0000
  C   C1180     1.0  0.21302  0.66129  0.50431  1.0000
  H   H2039     1.0  0.14324  0.89847  0.68974  1.0000
  H   H2040     1.0  0.01269  0.71646  0.65443  1.0000
  H   H2041     1.0  0.06081  0.65747  0.51774  1.0000
  H   H2042     1.0  0.04411  0.69266  0.64290  1.0000
  C   C1181     1.0  0.11862  0.97867  0.61889  1.0000
  H   H2043     1.0  0.03907  0.82285  0.67382  1.0000
  H   H2044     1.0  0.13782  0.92721  0.72293  1.0000
  H   H2045     1.0  0.05079  0.85062  0.64519  1.0000
  H   H2046     1.0  0.07780  0.93926  0.64210  1.0000
  C   C1182     1.0  0.02726  0.82536  0.64525  1.0000
  H   H2047     1.0  0.00520  0.82614  0.55045  1.0000
  C   C1183     1.0  0.04334  0.84565  0.65733  1.0000
  S   S341      1.0  0.01507  0.88389  0.70270  1.0000
  C   C1184     1.0  0.47076  0.68961  0.70476  1.0000
  C   C1185     1.0  0.99922  0.71459  0.60903  1.0000
  Fe  Fe171     1.0  0.12031  0.98045  0.66813  1.0000
  S   S342      1.0  0.00608  0.78864  0.66346  1.0000
  C   C1186     1.0  0.00928  0.66426  0.61073  1.0000
  H   H2048     1.0  0.01213  0.84514  0.63041  1.0000
  H   H2049     1.0  0.00850  0.79817  0.56900  1.0000
  H   H2050     1.0  0.09485  0.66309  0.55614  1.0000
  N   N83       1.0  0.07317  0.65955  0.53609  1.0000
  H   H2051     1.0  0.24037  0.97715  0.59885  1.0000
  C   C1187     1.0  0.16275  0.98277  0.72893  1.0000
  C   C1188     1.0  0.00138  0.86591  0.68944  1.0000
  C   C1189     1.0  0.00389  0.73549  0.63444  1.0000
  C   C1190     1.0  0.00498  0.71790  0.64529  1.0000
  H   H2052     1.0  0.04598  0.66101  0.56472  1.0000
  H   H2053     1.0  0.99788  0.69152  0.62569  1.0000
  H   H2054     1.0  0.10354  0.87003  0.71861  1.0000
  H   H2055     1.0  0.99713  0.71940  0.53695  1.0000
  H   H2056     1.0  0.05706  0.98348  0.68669  1.0000
  C   C1191     1.0  0.14830  0.92925  0.72635  1.0000
  H   H2057     1.0  0.00151  0.81897  0.58529  1.0000
  H   H2058     1.0  0.15586  0.87611  0.72965  1.0000
  H   H2059     1.0  0.99738  0.67173  0.66871  1.0000
  C   C1192     1.0  0.99952  0.81651  0.54899  1.0000
  H   H2060     1.0  0.12773  0.98454  0.62124  1.0000
  Fe  Fe172     1.0  0.99796  0.80331  0.64016  1.0000
  H   H2061     1.0  0.04692  0.97940  0.71850  1.0000
  H   H2062     1.0  0.15064  0.85806  0.72755  1.0000
  S   S343      1.0  0.16572  0.98202  0.66714  1.0000
  S   S344      1.0  0.05973  0.90953  0.73329  1.0000
  Fe  Fe173     1.0  0.03472  0.92140  0.72742  1.0000
  S   S345      1.0  0.02094  0.94724  0.73092  1.0000
  N   N84       1.0  0.12954  0.87855  0.73078  1.0000
  C   C1193     1.0  0.99861  0.85134  0.68677  1.0000
  H   H2063     1.0  0.14210  0.98431  0.71850  1.0000
  Fe  Fe174     1.0  0.15374  0.98494  0.64581  1.0000
  C   C1194     1.0  0.10097  0.87244  0.73124  1.0000
  C   C1195     1.0  0.99761  0.70422  0.62687  1.0000
  C   C1196     1.0  0.49636  0.66106  0.72693  1.0000
  Fe  Fe175     1.0  0.38637  0.73322  0.90558  1.0000
  S   S346      1.0  0.39235  0.75090  0.88147  1.0000
  S   S347      1.0  0.35903  0.73586  0.91717  1.0000
  Fe  Fe176     1.0  0.42251  0.71574  0.90414  1.0000
  S   S348      1.0  0.43138  0.73229  0.88016  1.0000
  S   S349      1.0  0.44082  0.69342  0.91431  1.0000
  Fe  Fe177     1.0  0.41347  0.75283  0.89107  1.0000
  S   S350      1.0  0.41774  0.77861  0.88651  1.0000
  Fe  Fe178     1.0  0.40949  0.72901  0.87237  1.0000
  S   S351      1.0  0.41179  0.72749  0.84596  1.0000
  S   S352      1.0  0.40641  0.73674  0.91609  1.0000
  S   S353      1.0  0.40178  0.71090  0.89558  1.0000
  C   C1197     1.0  0.49307  0.70118  0.90938  1.0000
  C   C1198     1.0  0.20384  0.91560  0.98091  1.0000
  Fe  Fe179     1.0  0.46824  0.67369  0.78032  1.0000
  S   S354      1.0  0.46725  0.69921  0.76367  1.0000
  H   H2064     1.0  0.11632  0.89228  0.86661  1.0000
  S   S355      1.0  0.44910  0.80565  0.81184  1.0000
  Fe  Fe180     1.0  0.17674  0.91217  0.91141  1.0000
  S   S356      1.0  0.19172  0.88635  0.91257  1.0000
  S   S357      1.0  0.16561  0.92494  0.88885  1.0000
  Fe  Fe181     1.0  0.18421  0.91420  0.94400  1.0000
  S   S358      1.0  0.19958  0.88843  0.94754  1.0000
  S   S359      1.0  0.17966  0.93086  0.96203  1.0000
  Fe  Fe182     1.0  0.21016  0.89529  0.92041  1.0000
  S   S360      1.0  0.23753  0.88844  0.91050  1.0000
  Fe  Fe183     1.0  0.17961  0.88204  0.93933  1.0000
  S   S361      1.0  0.17202  0.85778  0.95090  1.0000
  S   S362      1.0  0.19633  0.92167  0.91723  1.0000
  S   S363      1.0  0.16301  0.90733  0.93794  1.0000
  C   C1199     1.0  0.07274  0.90452  0.81110  1.0000
  H   H2065     1.0  0.43781  0.68518  0.81328  1.0000
  C   C1200     1.0  0.44061  0.75174  0.77962  1.0000
  H   H2066     1.0  0.42377  0.73406  0.79010  1.0000
  H   H2067     1.0  0.48914  0.76130  0.85049  1.0000
  C   C1201     1.0  0.41579  0.67793  0.85284  1.0000
  S   S364      1.0  0.25994  0.81222  0.93929  1.0000
  H   H2068     1.0  0.49182  0.74820  0.74439  1.0000
  H   H2069     1.0  0.21705  0.82861  0.96018  1.0000
  Fe  Fe184     1.0  0.14384  0.89254  0.82290  1.0000
  S   S365      1.0  0.11783  0.88979  0.82484  1.0000
  S   S366      1.0  0.15645  0.88042  0.84462  1.0000
  Fe  Fe185     1.0  0.14559  0.91371  0.78803  1.0000
  S   S367      1.0  0.11970  0.91317  0.78705  1.0000
  S   S368      1.0  0.16285  0.92788  0.76816  1.0000
  Fe  Fe186     1.0  0.11332  0.91674  0.81315  1.0000
  S   S369      1.0  0.08957  0.93355  0.82222  1.0000
  Fe  Fe187     1.0  0.12636  0.88626  0.79869  1.0000
  S   S370      1.0  0.11988  0.86578  0.79118  1.0000
  S   S371      1.0  0.13853  0.91992  0.81316  1.0000
  S   S372      1.0  0.15300  0.88635  0.79769  1.0000
  H   H2070     1.0  0.13579  0.89926  0.73630  1.0000
  S   S373      1.0  0.05414  0.86965  0.76768  1.0000
  H   H2071     1.0  0.11894  0.97942  0.80106  1.0000
  H   H2072     1.0  0.00519  0.87193  0.75135  1.0000
  C   C1202     1.0  0.47071  0.67116  0.85036  1.0000
  C   C1203     1.0  0.03903  0.92074  0.77598  1.0000
  H   H2073     1.0  0.14476  0.87064  0.75970  1.0000
  H   H2074     1.0  0.12496  0.92000  0.84976  1.0000
  H   H2075     1.0  0.15369  0.90784  0.97901  1.0000
  H   H2076     1.0  0.47839  0.68973  0.82832  1.0000
  H   H2077     1.0  0.23345  0.92139  0.96074  1.0000
  H   H2078     1.0  0.40549  0.76666  0.82730  1.0000
  C   C1204     1.0  0.09134  0.95393  0.81265  1.0000
  C   C1205     1.0  0.07799  0.96497  0.80660  1.0000
  C   C1206     1.0  0.26936  0.91301  0.96531  1.0000
  C   C1207     1.0  0.06384  0.93737  0.78766  1.0000
  S   S374      1.0  0.44734  0.65989  0.78719  1.0000
  C   C1208     1.0  0.10618  0.95909  0.81053  1.0000
  H   H2079     1.0  0.06646  0.96113  0.80837  1.0000
  C   C1209     1.0  0.47912  0.75627  0.86003  1.0000
  H   H2080     1.0  0.47421  0.73088  0.86885  1.0000
  H   H2081     1.0  0.11651  0.95069  0.81529  1.0000
  C   C1210     1.0  0.10090  0.86790  0.78549  1.0000
  C   C1211     1.0  0.09293  0.88292  0.77686  1.0000
  C   C1212     1.0  0.07889  0.88351  0.77074  1.0000
  C   C1213     1.0  0.07232  0.86931  0.77404  1.0000
  C   C1214     1.0  0.08007  0.85448  0.78305  1.0000
  C   C1215     1.0  0.09448  0.85370  0.78840  1.0000
  H   H2082     1.0  0.09792  0.89388  0.77452  1.0000
  H   H2083     1.0  0.07292  0.89497  0.76381  1.0000
  H   H2084     1.0  0.07508  0.84345  0.78569  1.0000
  H   H2085     1.0  0.10064  0.84201  0.79494  1.0000
  H   H2086     1.0  0.49341  0.74545  0.88849  1.0000
  H   H2087     1.0  0.13894  0.92216  0.75262  1.0000
  H   H2088     1.0  0.26018  0.89698  0.92671  1.0000
  C   C1216     1.0  0.16371  0.91225  0.87652  1.0000
  C   C1217     1.0  0.16362  0.91879  0.85970  1.0000
  C   C1218     1.0  0.16156  0.90911  0.84973  1.0000
  C   C1219     1.0  0.15959  0.89280  0.85654  1.0000
  C   C1220     1.0  0.16003  0.88617  0.87327  1.0000
  C   C1221     1.0  0.16197  0.89588  0.88326  1.0000
  H   H2089     1.0  0.16515  0.93139  0.85436  1.0000
  H   H2090     1.0  0.16154  0.91424  0.83678  1.0000
  H   H2091     1.0  0.15848  0.87357  0.87861  1.0000
  H   H2092     1.0  0.16187  0.89076  0.89624  1.0000
  C   C1222     1.0  0.15716  0.85953  0.96913  1.0000
  C   C1223     1.0  0.44169  0.68488  0.74117  1.0000
  H   H2093     1.0  0.04792  0.90292  0.81093  1.0000
  H   H2094     1.0  0.44320  0.67609  0.88699  1.0000
  H   H2095     1.0  0.14325  0.88344  0.95929  1.0000
  C   C1224     1.0  0.24406  0.86713  0.91761  1.0000
  C   C1225     1.0  0.23286  0.85663  0.92154  1.0000
  C   C1226     1.0  0.23802  0.83962  0.92743  1.0000
  C   C1227     1.0  0.25413  0.83320  0.93028  1.0000
  C   C1228     1.0  0.26533  0.84371  0.92643  1.0000
  C   C1229     1.0  0.26041  0.86061  0.91969  1.0000
  H   H2096     1.0  0.22023  0.86155  0.91996  1.0000
  H   H2097     1.0  0.22937  0.83155  0.93020  1.0000
  H   H2098     1.0  0.27783  0.83877  0.92847  1.0000
  H   H2099     1.0  0.26913  0.86867  0.91655  1.0000
  C   C1230     1.0  0.45112  0.70576  0.85518  1.0000
  C   C1231     1.0  0.10756  0.97536  0.80245  1.0000
  H   H2100     1.0  0.19943  0.81684  0.94176  1.0000
  H   H2101     1.0  0.10580  0.91881  0.91124  1.0000
  H   H2102     1.0  0.46507  0.75665  0.91183  1.0000
  H   H2103     1.0  0.26945  0.91178  0.93007  1.0000
  H   H2104     1.0  0.41752  0.78179  0.81596  1.0000
  S   S375      1.0  0.47291  0.66827  0.80578  1.0000
  H   H2105     1.0  0.12955  0.91154  0.86930  1.0000
  C   C1232     1.0  0.35108  0.74708  0.93302  1.0000
  C   C1233     1.0  0.36101  0.74747  0.94349  1.0000
  C   C1234     1.0  0.35463  0.75728  0.95547  1.0000
  C   C1235     1.0  0.33839  0.76686  0.95689  1.0000
  C   C1236     1.0  0.32837  0.76626  0.94661  1.0000
  C   C1237     1.0  0.33467  0.75626  0.93480  1.0000
  H   H2106     1.0  0.37360  0.74026  0.94233  1.0000
  C   C1238     1.0  0.15860  0.84691  0.98311  1.0000
  H   H2107     1.0  0.47028  0.66636  0.89147  1.0000
  H   H2108     1.0  0.32693  0.75589  0.92681  1.0000
  C   C1239     1.0  0.42548  0.78612  0.86548  1.0000
  C   C1240     1.0  0.43457  0.77514  0.85519  1.0000
  C   C1241     1.0  0.44255  0.78114  0.83900  1.0000
  C   C1242     1.0  0.44039  0.79816  0.83257  1.0000
  C   C1243     1.0  0.43066  0.80921  0.84259  1.0000
  C   C1244     1.0  0.42358  0.80320  0.85917  1.0000
  H   H2109     1.0  0.43606  0.76200  0.85983  1.0000
  H   H2110     1.0  0.45018  0.77257  0.83146  1.0000
  H   H2111     1.0  0.42894  0.82242  0.83764  1.0000
  H   H2112     1.0  0.41660  0.81179  0.86704  1.0000
  C   C1245     1.0  0.41577  0.70726  0.84267  1.0000
  C   C1246     1.0  0.41085  0.69427  0.85532  1.0000
  Fe  Fe188     1.0  0.30508  0.79513  0.97221  1.0000
  H   H2113     1.0  0.21024  0.79945  0.93291  1.0000
  C   C1247     1.0  0.43032  0.68762  0.82502  1.0000
  C   C1248     1.0  0.42501  0.70394  0.82736  1.0000
  H   H2114     1.0  0.40343  0.69675  0.86708  1.0000
  C   C1249     1.0  0.49246  0.73790  0.77002  1.0000
  H   H2115     1.0  0.19432  0.79649  0.95088  1.0000
  H   H2116     1.0  0.42851  0.71393  0.81748  1.0000
  H   H2117     1.0  0.45306  0.77832  0.75987  1.0000
  C   C1250     1.0  0.07455  0.93178  0.77177  1.0000
  C   C1251     1.0  0.02382  0.95809  0.74452  1.0000
  C   C1252     1.0  0.46067  0.69643  0.91353  1.0000
  C   C1253     1.0  0.47417  0.68288  0.91380  1.0000
  H   H2118     1.0  0.12092  0.96104  0.77418  1.0000
  H   H2119     1.0  0.12438  0.92301  0.89689  1.0000
  C   C1254     1.0  0.11846  0.96058  0.76228  1.0000
  H   H2120     1.0  0.47211  0.67051  0.91582  1.0000
  H   H2121     1.0  0.13786  0.85267  0.75868  1.0000
  Fe  Fe189     1.0  0.28637  0.83021  0.97500  1.0000
  C   C1255     1.0  0.43711  0.73414  0.78475  1.0000
  H   H2122     1.0  0.46812  0.76010  0.85423  1.0000
  H   H2123     1.0  0.46565  0.78785  0.88114  1.0000
  H   H2124     1.0  0.21988  0.91581  0.94159  1.0000
  H   H2125     1.0  0.45288  0.79579  0.76761  1.0000
  C   C1256     1.0  0.48166  0.79123  0.85720  1.0000
  C   C1257     1.0  0.45269  0.75425  0.80208  1.0000
  C   C1258     1.0  0.45287  0.73781  0.81507  1.0000
  H   H2126     1.0  0.46472  0.75253  0.79305  1.0000
  H   H2127     1.0  0.45388  0.76365  0.80824  1.0000
  H   H2128     1.0  0.46543  0.77626  0.77479  1.0000
  H   H2129     1.0  0.46083  0.72718  0.80977  1.0000
  H   H2130     1.0  0.13681  0.94126  0.84062  1.0000
  H   H2131     1.0  0.45802  0.73861  0.82537  1.0000
  H   H2132     1.0  0.41225  0.66786  0.86276  1.0000
  H   H2133     1.0  0.03937  0.90737  0.78136  1.0000
  H   H2134     1.0  0.18557  0.93774  0.73829  1.0000
  S   S376      1.0  0.26145  0.82444  0.97835  1.0000
  C   C1259     1.0  0.46335  0.69423  0.86575  1.0000
  S   S377      1.0  0.28159  0.78604  0.97605  1.0000
  H   H2135     1.0  0.05014  0.92229  0.76610  1.0000
  H   H2136     1.0  0.03315  0.94401  0.78351  1.0000
  C   C1260     1.0  0.14457  0.87376  0.97017  1.0000
  H   H2137     1.0  0.01770  0.85059  0.77164  1.0000
  C   C1261     1.0  0.24920  0.87079  0.96121  1.0000
  H   H2138     1.0  0.12999  0.96378  0.73631  1.0000
  H   H2139     1.0  0.45256  0.70227  0.84327  1.0000
  C   C1262     1.0  0.19355  0.93031  0.97438  1.0000
  H   H2140     1.0  0.23646  0.88980  0.94463  1.0000
  H   H2141     1.0  0.06186  0.90354  0.79183  1.0000
  H   H2142     1.0  0.18535  0.95644  0.97382  1.0000
  H   H2143     1.0  0.11145  0.91891  0.73601  1.0000
  H   H2144     1.0  0.45069  0.77471  0.90289  1.0000
  C   C1263     1.0  0.49325  0.67122  0.87586  1.0000
  H   H2145     1.0  0.47531  0.69827  0.86055  1.0000
  H   H2146     1.0  0.29151  0.89275  0.93881  1.0000
  C   C1264     1.0  0.04382  0.93394  0.81388  1.0000
  C   C1265     1.0  0.14894  0.92642  0.74310  1.0000
  H   H2147     1.0  0.09721  0.94260  0.89080  1.0000
  H   H2148     1.0  0.49158  0.72429  0.79517  1.0000
  H   H2149     1.0  0.02819  0.92532  0.76989  1.0000
  H   H2150     1.0  0.43300  0.67697  0.74928  1.0000
  H   H2151     1.0  0.02637  0.83649  0.75733  1.0000
  N   N85       1.0  0.36180  0.79714  0.90306  1.0000
  C   C1266     1.0  0.36832  0.78257  0.91564  1.0000
  C   C1267     1.0  0.34733  0.79342  0.89870  1.0000
  C   C1268     1.0  0.35586  0.81268  0.90988  1.0000
  C   C1269     1.0  0.37572  0.79972  0.88822  1.0000
  C   C1270     1.0  0.38133  0.78488  0.92392  1.0000
  C   C1271     1.0  0.35176  0.78017  0.88821  1.0000
  C   C1272     1.0  0.34231  0.81177  0.92595  1.0000
  C   C1273     1.0  0.37126  0.81370  0.87350  1.0000
  H   H2152     1.0  0.35794  0.77900  0.92571  1.0000
  H   H2153     1.0  0.37403  0.77146  0.91010  1.0000
  H   H2154     1.0  0.33983  0.80478  0.89223  1.0000
  H   H2155     1.0  0.33842  0.78893  0.91010  1.0000
  H   H2156     1.0  0.36643  0.81652  0.91214  1.0000
  H   H2157     1.0  0.35061  0.82324  0.90065  1.0000
  H   H2158     1.0  0.38601  0.80291  0.89164  1.0000
  H   H2159     1.0  0.38180  0.78806  0.88368  1.0000
  H   H2160     1.0  0.39263  0.78786  0.91490  1.0000
  H   H2161     1.0  0.37611  0.79434  0.93161  1.0000
  H   H2162     1.0  0.34011  0.77799  0.88647  1.0000
  H   H2163     1.0  0.35928  0.78409  0.87573  1.0000
  H   H2164     1.0  0.35829  0.76814  0.89451  1.0000
  H   H2165     1.0  0.33907  0.82379  0.92990  1.0000
  H   H2166     1.0  0.34652  0.80211  0.93634  1.0000
  H   H2167     1.0  0.33070  0.80966  0.92412  1.0000
  H   H2168     1.0  0.37302  0.82568  0.87478  1.0000
  H   H2169     1.0  0.35843  0.81534  0.87195  1.0000
  H   H2170     1.0  0.37949  0.81055  0.86185  1.0000
  H   H2171     1.0  0.25395  0.86833  0.97264  1.0000
  C   C1274     1.0  0.09437  0.98620  0.79584  1.0000
  H   H2172     1.0  0.07639  0.91846  0.77233  1.0000
  S   S378      1.0  0.48763  0.76763  0.81189  1.0000
  C   C1275     1.0  0.05778  0.90941  0.80262  1.0000
  H   H2173     1.0  0.00021  0.98527  0.76865  1.0000
  H   H2174     1.0  0.28688  0.88213  0.92607  1.0000
  C   C1276     1.0  0.42164  0.76008  0.80471  1.0000
  H   H2175     1.0  0.24993  0.89960  0.97784  1.0000
  H   H2176     1.0  0.19632  0.82718  0.96311  1.0000
  C   C1277     1.0  0.44819  0.67196  0.87499  1.0000
  N   N86       1.0  0.25251  0.90149  0.95163  1.0000
  H   H2177     1.0  0.26060  0.92479  0.96740  1.0000
  C   C1278     1.0  0.28183  0.88687  0.93766  1.0000
  H   H2178     1.0  0.23741  0.91888  0.92448  1.0000
  H   H2179     1.0  0.07808  0.96416  0.85265  1.0000
  H   H2180     1.0  0.49411  0.78829  0.86020  1.0000
  C   C1279     1.0  0.41792  0.76829  0.81965  1.0000
  Fe  Fe190     1.0  0.47619  0.79452  0.80406  1.0000
  C   C1280     1.0  0.48412  0.67967  0.83760  1.0000
  C   C1281     1.0  0.13165  0.96700  0.74745  1.0000
  H   H2181     1.0  0.47534  0.65753  0.85180  1.0000
  H   H2182     1.0  0.02141  0.95291  0.80860  1.0000
  H   H2183     1.0  0.13938  0.95827  0.84723  1.0000
  H   H2184     1.0  0.47675  0.80476  0.85622  1.0000
  H   H2185     1.0  0.22482  0.93573  0.93383  1.0000
  H   H2186     1.0  0.00090  0.83304  0.78243  1.0000
  C   C1282     1.0  0.46175  0.75582  0.88750  1.0000
  H   H2187     1.0  0.41982  0.74723  0.80991  1.0000
  H   H2188     1.0  0.31582  0.77356  0.94769  1.0000
  H   H2189     1.0  0.02522  0.92771  0.79855  1.0000
  C   C1283     1.0  0.45547  0.76118  0.90421  1.0000
  H   H2190     1.0  0.42695  0.78476  0.78014  1.0000
  H   H2191     1.0  0.06922  0.93884  0.76086  1.0000
  H   H2192     1.0  0.03586  0.92573  0.82297  1.0000
  H   H2193     1.0  0.24929  0.92834  0.94452  1.0000
  H   H2194     1.0  0.45788  0.78452  0.86569  1.0000
  H   H2195     1.0  0.45078  0.75837  0.88184  1.0000
  C   C1284     1.0  0.20446  0.80333  0.94488  1.0000
  H   H2196     1.0  0.42693  0.76224  0.82777  1.0000
  H   H2197     1.0  0.46139  0.66804  0.75208  1.0000
  C   C1285     1.0  0.43835  0.77878  0.78526  1.0000
  C   C1286     1.0  0.20717  0.82251  0.96904  1.0000
  C   C1287     1.0  0.21786  0.79876  0.95527  1.0000
  Fe  Fe191     1.0  0.27420  0.81006  0.95852  1.0000
  H   H2198     1.0  0.10271  0.90736  0.85424  1.0000
  H   H2199     1.0  0.44056  0.73491  0.82096  1.0000
  H   H2200     1.0  0.44479  0.75532  0.91127  1.0000
  N   N87       1.0  0.05078  0.92774  0.79796  1.0000
  N   N88       1.0  0.21283  0.80391  0.97170  1.0000
  H   H2201     1.0  0.12076  0.95996  0.84064  1.0000
  H   H2202     1.0  0.44022  0.72887  0.77351  1.0000
  H   H2203     1.0  0.04001  0.96110  0.80372  1.0000
  N   N89       1.0  0.21783  0.87549  0.86394  1.0000
  C   C1288     1.0  0.22770  0.87691  0.84639  1.0000
  C   C1289     1.0  0.22956  0.87343  0.87514  1.0000
  C   C1290     1.0  0.20447  0.89077  0.86581  1.0000
  C   C1291     1.0  0.20960  0.86088  0.86823  1.0000
  C   C1292     1.0  0.21748  0.88191  0.83275  1.0000
  C   C1293     1.0  0.24176  0.85653  0.87762  1.0000
  C   C1294     1.0  0.21053  0.90715  0.86160  1.0000
  C   C1295     1.0  0.20008  0.85646  0.88630  1.0000
  H   H2204     1.0  0.23589  0.88596  0.84345  1.0000
  H   H2205     1.0  0.23632  0.86493  0.84469  1.0000
  H   H2206     1.0  0.22269  0.87573  0.88756  1.0000
  H   H2207     1.0  0.23733  0.88298  0.87037  1.0000
  H   H2208     1.0  0.19511  0.89228  0.85834  1.0000
  H   H2209     1.0  0.19724  0.88956  0.87870  1.0000
  H   H2210     1.0  0.20020  0.86315  0.86058  1.0000
  H   H2211     1.0  0.21853  0.84954  0.86498  1.0000
  H   H2212     1.0  0.22616  0.88172  0.82057  1.0000
  H   H2213     1.0  0.20935  0.87319  0.83425  1.0000
  H   H2214     1.0  0.20991  0.89470  0.83203  1.0000
  H   H2215     1.0  0.24951  0.85360  0.86576  1.0000
  H   H2216     1.0  0.25037  0.85694  0.88517  1.0000
  H   H2217     1.0  0.23526  0.84632  0.88454  1.0000
  H   H2218     1.0  0.19952  0.91751  0.86284  1.0000
  H   H2219     1.0  0.21768  0.90984  0.84873  1.0000
  H   H2220     1.0  0.21796  0.90729  0.87039  1.0000
  H   H2221     1.0  0.18724  0.86404  0.88808  1.0000
  H   H2222     1.0  0.20631  0.85786  0.89547  1.0000
  H   H2223     1.0  0.19946  0.84316  0.88944  1.0000
  H   H2224     1.0  0.07930  0.95850  0.87397  1.0000
  C   C1296     1.0  0.45337  0.78223  0.77111  1.0000
  H   H2225     1.0  0.48897  0.73404  0.84989  1.0000
  H   H2226     1.0  0.27652  0.90892  0.97529  1.0000
  C   C1297     1.0  0.12503  0.89326  0.73881  1.0000
  H   H2227     1.0  0.11667  0.95527  0.87158  1.0000
  H   H2228     1.0  0.38538  0.77301  0.93238  1.0000
  C   C1298     1.0  0.07968  0.98089  0.79777  1.0000
  C   C1299     1.0  0.42606  0.67454  0.83790  1.0000
  C   C1300     1.0  0.46325  0.71219  0.91230  1.0000
  H   H2229     1.0  0.41149  0.76597  0.79776  1.0000
  H   H2230     1.0  0.44497  0.72569  0.79314  1.0000
  H   H2231     1.0  0.43237  0.75896  0.77087  1.0000
  H   H2232     1.0  0.09828  0.90464  0.87641  1.0000
  H   H2233     1.0  0.43802  0.78593  0.79450  1.0000
  H   H2234     1.0  0.48280  0.78878  0.84485  1.0000
  C   C1301     1.0  0.26550  0.89978  0.93596  1.0000
  H   H2235     1.0  0.48137  0.72648  0.91037  1.0000
  C   C1302     1.0  0.24146  0.88918  0.95555  1.0000
  H   H2236     1.0  0.16827  0.83597  0.98232  1.0000
  H   H2237     1.0  0.08751  0.93417  0.86064  1.0000
  H   H2238     1.0  0.43909  0.67882  0.86721  1.0000
  H   H2239     1.0  0.23051  0.89227  0.96547  1.0000
  C   C1303     1.0  0.16241  0.92948  0.74743  1.0000
  H   H2240     1.0  0.02978  0.95518  0.82464  1.0000
  H   H2241     1.0  0.22219  0.78509  0.95692  1.0000
  N   N90       1.0  0.43838  0.76075  0.79325  1.0000
  C   C1304     1.0  0.46941  0.78176  0.87048  1.0000
  H   H2242     1.0  0.45356  0.75058  0.77216  1.0000
  H   H2243     1.0  0.06939  0.90790  0.82335  1.0000
  N   N91       1.0  0.13202  0.98507  0.74440  1.0000
  H   H2244     1.0  0.47797  0.70308  0.79221  1.0000
  C   C1305     1.0  0.10979  0.90686  0.73485  1.0000
  H   H2245     1.0  0.20399  0.90414  0.97778  1.0000
  S   S379      1.0  0.02361  0.89890  0.73964  1.0000
  H   H2246     1.0  0.03313  0.85528  0.75374  1.0000
  S   S380      1.0  0.29840  0.81817  0.95329  1.0000
  H   H2247     1.0  0.22860  0.80411  0.94740  1.0000
  C   C1306     1.0  0.48838  0.73869  0.75503  1.0000
  H   H2248     1.0  0.07253  0.93778  0.79511  1.0000
  C   C1307     1.0  0.47686  0.71387  0.76671  1.0000
  H   H2249     1.0  0.45274  0.72252  0.91290  1.0000
  C   C1308     1.0  0.14679  0.86093  0.75258  1.0000
  N   N92       1.0  0.10989  0.93371  0.86836  1.0000
  C   C1309     1.0  0.12228  0.94443  0.86561  1.0000
  C   C1310     1.0  0.10165  0.93071  0.88645  1.0000
  C   C1311     1.0  0.09680  0.94199  0.85827  1.0000
  C   C1312     1.0  0.11896  0.91769  0.86309  1.0000
  C   C1313     1.0  0.13007  0.95122  0.84743  1.0000
  C   C1314     1.0  0.11267  0.91895  0.89826  1.0000
  C   C1315     1.0  0.08686  0.95920  0.86121  1.0000
  C   C1316     1.0  0.10831  0.90492  0.86519  1.0000
  H   H2250     1.0  0.14379  0.95929  0.74977  1.0000
  H   H2251     1.0  0.13280  0.93752  0.87174  1.0000
  H   H2252     1.0  0.09020  0.92584  0.88869  1.0000
  H   H2253     1.0  0.23742  0.80705  0.97130  1.0000
  H   H2254     1.0  0.10240  0.94323  0.84488  1.0000
  C   C1317     1.0  0.17519  0.93526  0.73499  1.0000
  H   H2255     1.0  0.36239  0.75766  0.96345  1.0000
  H   H2256     1.0  0.11922  0.94733  0.76270  1.0000
  H   H2257     1.0  0.05051  0.95080  0.74031  1.0000
  C   C1318     1.0  0.03658  0.93068  0.78937  1.0000
  N   N93       1.0  0.47552  0.76328  0.87535  1.0000
  C   C1319     1.0  0.48465  0.73722  0.86229  1.0000
  C   C1320     1.0  0.23041  0.92227  0.93640  1.0000
  C   C1321     1.0  0.19334  0.94504  0.97865  1.0000
  C   C1322     1.0  0.18166  0.80146  0.98206  1.0000
  C   C1323     1.0  0.47940  0.71445  0.91072  1.0000
  H   H2258     1.0  0.45312  0.71860  0.85231  1.0000
  C   C1324     1.0  0.00978  0.96813  0.75232  1.0000
  C   C1325     1.0  0.24165  0.91868  0.94892  1.0000
  H   H2259     1.0  0.46554  0.74220  0.89058  1.0000
  H   H2260     1.0  0.45929  0.69716  0.87832  1.0000
  H   H2261     1.0  0.07717  0.89084  0.81323  1.0000
  Fe  Fe192     1.0  0.04944  0.88658  0.74364  1.0000
  H   H2262     1.0  0.05806  0.95063  0.78372  1.0000
  H   H2263     1.0  0.99758  0.96817  0.75076  1.0000
  H   H2264     1.0  0.08726  0.93406  0.76973  1.0000
  H   H2265     1.0  0.14872  0.97908  0.76148  1.0000
  H   H2266     1.0  0.09209  0.86465  0.73920  1.0000
  H   H2267     1.0  0.25888  0.86586  0.95127  1.0000
  H   H2268     1.0  0.20325  0.78148  0.98246  1.0000
  C   C1326     1.0  0.20006  0.79469  0.98349  1.0000
  H   H2269     1.0  0.28060  0.87595  0.94776  1.0000
  C   C1327     1.0  0.03321  0.95179  0.81237  1.0000
  H   H2270     1.0  0.27824  0.91527  0.95333  1.0000
  C   C1328     1.0  0.49235  0.76904  0.89388  1.0000
  H   H2271     1.0  0.09490  0.96826  0.85851  1.0000
  H   H2272     1.0  0.11298  0.86663  0.75173  1.0000
  H   H2273     1.0  0.11564  0.90601  0.89655  1.0000
  H   H2274     1.0  0.10557  0.96712  0.76132  1.0000
  C   C1329     1.0  0.04116  0.96885  0.75603  1.0000
  S   S381      1.0  0.33128  0.78018  0.97092  1.0000
  C   C1330     1.0  0.01128  0.97798  0.76232  1.0000
  H   H2275     1.0  0.08337  0.90997  0.80322  1.0000
  H   H2276     1.0  0.05330  0.96924  0.75735  1.0000
  C   C1331     1.0  0.25987  0.89959  0.96638  1.0000
  C   C1332     1.0  0.48078  0.71303  0.78185  1.0000
  C   C1333     1.0  0.49042  0.68531  0.91120  1.0000
  H   H2277     1.0  0.12248  0.88915  0.75250  1.0000
  C   C1334     1.0  0.49118  0.75870  0.88206  1.0000
  S   S382      1.0  0.28835  0.85495  0.97763  1.0000
  C   C1335     1.0  0.48837  0.72515  0.78356  1.0000
  H   H2278     1.0  0.24437  0.77803  0.96893  1.0000
  H   H2279     1.0  0.05397  0.93363  0.81996  1.0000
  H   H2280     1.0  0.15939  0.85323  0.75339  1.0000
  H   H2281     1.0  0.45989  0.67399  0.84434  1.0000
  H   H2282     1.0  0.47736  0.72780  0.74177  1.0000
  C   C1336     1.0  0.22820  0.79944  0.97892  1.0000
  C   C1337     1.0  0.48036  0.72699  0.75349  1.0000
  C   C1338     1.0  0.02692  0.97869  0.76401  1.0000
  H   H2283     1.0  0.19638  0.84302  0.98165  1.0000
  C   C1339     1.0  0.00877  0.85943  0.74837  1.0000
  C   C1340     1.0  0.23746  0.78114  0.98102  1.0000
  H   H2284     1.0  0.01517  0.86119  0.73510  1.0000
  S   S383      1.0  0.48822  0.79652  0.77715  1.0000
  H   H2285     1.0  0.12265  0.85465  0.73650  1.0000
  C   C1341     1.0  0.03958  0.95828  0.74656  1.0000
  H   H2286     1.0  0.17947  0.81085  0.97082  1.0000
  C   C1342     1.0  0.11697  0.86758  0.73814  1.0000
  C   C1343     1.0  0.45984  0.67506  0.73948  1.0000
  H   H2287     1.0  0.23938  0.86349  0.96417  1.0000
  H   H2288     1.0  0.49180  0.68451  0.84289  1.0000
  H   H2289     1.0  0.26850  0.88752  0.96890  1.0000
  H   H2290     1.0  0.09822  0.90415  0.74360  1.0000
  N   N94       1.0  0.46510  0.67597  0.86701  1.0000
  H   H2291     1.0  0.43816  0.70598  0.86218  1.0000
  C   C1344     1.0  0.47664  0.66602  0.87842  1.0000
  H   H2292     1.0  0.44019  0.69534  0.74722  1.0000
  H   H2293     1.0  0.48050  0.77645  0.89941  1.0000
  C   C1345     1.0  0.02202  0.84959  0.75850  1.0000
  H   H2294     1.0  0.17605  0.79104  0.98229  1.0000
  H   H2295     1.0  0.49167  0.68404  0.87737  1.0000
  H   H2296     1.0  0.49524  0.73207  0.86865  1.0000
  H   H2297     1.0  0.49277  0.67064  0.83044  1.0000
  H   H2298     1.0  0.12777  0.98530  0.77028  1.0000
  S   S384      1.0  0.49558  0.80406  0.80991  1.0000
  H   H2299     1.0  0.00821  0.83570  0.73490  1.0000
  H   H2300     1.0  0.00592  0.82620  0.75594  1.0000
  H   H2301     1.0  0.46787  0.68423  0.73625  1.0000
  H   H2302     1.0  0.49365  0.67073  0.73423  1.0000
  C   C1346     1.0  0.99910  0.83534  0.74689  1.0000
  C   C1347     1.0  0.13714  0.98799  0.75872  1.0000
  H   H2303     1.0  0.16566  0.96926  0.73388  1.0000
  C   C1348     1.0  0.14618  0.86848  0.73423  1.0000
  H   H2304     1.0  0.06957  0.98897  0.79244  1.0000
  Fe  Fe193     1.0  0.54543  0.24995  0.06316  1.0000
  S   S385      1.0  0.55270  0.23743  0.04154  1.0000
  S   S386      1.0  0.55193  0.27364  0.06306  1.0000
  Fe  Fe194     1.0  0.52805  0.22370  0.08613  1.0000
  S   S387      1.0  0.53355  0.20856  0.06698  1.0000
  S   S388      1.0  0.51311  0.21933  0.11203  1.0000
  Fe  Fe195     1.0  0.55904  0.21421  0.06035  1.0000
  S   S389      1.0  0.58075  0.19288  0.05651  1.0000
  Fe  Fe196     1.0  0.52681  0.23271  0.04971  1.0000
  S   S390      1.0  0.88826  0.07523  0.23249  1.0000
  S   S391      1.0  0.55410  0.22718  0.08127  1.0000
  S   S392      1.0  0.51893  0.24745  0.06949  1.0000
  C   C1349     1.0  0.67345  0.04074  0.00818  1.0000
  H   H2305     1.0  0.79023  0.06118  0.03947  1.0000
  S   S393      1.0  0.53484  0.28830  0.13478  1.0000
  H   H2306     1.0  0.87447  0.02670  0.12219  1.0000
  H   H2307     1.0  0.89457  0.00448  0.13107  1.0000
  H   H2308     1.0  0.67919  0.10182  0.99421  1.0000
  C   C1350     1.0  0.49818  0.29245  0.07042  1.0000
  H   H2309     1.0  0.84832  0.09812  0.19720  1.0000
  C   C1351     1.0  0.66366  0.22462  0.99911  1.0000
  Fe  Fe197     1.0  0.75586  0.05597  0.00094  1.0000
  S   S394      1.0  0.73310  0.07578  0.00511  1.0000
  H   H2310     1.0  0.55676  0.22035  0.15563  1.0000
  Fe  Fe198     1.0  0.75811  0.04684  0.03760  1.0000
  S   S395      1.0  0.73503  0.06558  0.04457  1.0000
  S   S396      1.0  0.77419  0.03128  0.05584  1.0000
  Fe  Fe199     1.0  0.72462  0.05713  0.02749  1.0000
  S   S397      1.0  0.69851  0.05281  0.03482  1.0000
  Fe  Fe200     1.0  0.74561  0.08231  0.02157  1.0000
  H   H2311     1.0  0.86351  0.04436  0.13082  1.0000
  S   S398      1.0  0.74675  0.03662  0.02241  1.0000
  S   S399      1.0  0.76943  0.06423  0.01549  1.0000
  Fe  Fe201     1.0  0.89438  0.05880  0.21409  1.0000
  S   S400      1.0  0.92128  0.05038  0.21611  1.0000
  S   S401      1.0  0.88634  0.06708  0.18938  1.0000
  C   C1352     1.0  0.56276  0.22503  0.99815  1.0000
  H   H2312     1.0  0.82349  0.10064  0.01278  1.0000
  H   H2313     1.0  0.94519  0.18011  0.22133  1.0000
  Fe  Fe202     1.0  0.79974  0.04564  0.13031  1.0000
  S   S402      1.0  0.82597  0.04445  0.13223  1.0000
  S   S403      1.0  0.78582  0.06213  0.11066  1.0000
  Fe  Fe203     1.0  0.79390  0.01890  0.16151  1.0000
  S   S404      1.0  0.81948  0.01496  0.16591  1.0000
  S   S405      1.0  0.77340  0.00570  0.17634  1.0000
  Fe  Fe204     1.0  0.81578  0.04263  0.15962  1.0000
  S   S406      1.0  0.82063  0.05368  0.17878  1.0000
  Fe  Fe205     1.0  0.82748  0.01695  0.13847  1.0000
  C   C1353     1.0  0.92046  0.99246  0.22578  1.0000
  S   S407      1.0  0.78927  0.04651  0.15714  1.0000
  S   S408      1.0  0.80229  0.01829  0.13461  1.0000
  H   H2314     1.0  0.64091  0.21514  0.98982  1.0000
  H   H2315     1.0  0.90215  0.00166  0.19300  1.0000
  H   H2316     1.0  0.82902  0.07873  0.01270  1.0000
  H   H2317     1.0  0.77715  0.08346  0.05827  1.0000
  C   C1354     1.0  0.76877  0.10616  0.99312  1.0000
  H   H2318     1.0  0.86102  0.02962  0.15822  1.0000
  H   H2319     1.0  0.70185  0.12038  0.99599  1.0000
  C   C1355     1.0  0.65731  0.19097  0.01341  1.0000
  N   N95       1.0  0.75272  0.00950  0.13055  1.0000
  H   H2320     1.0  0.55848  0.23809  0.99199  1.0000
  H   H2321     1.0  0.50145  0.17019  0.10209  1.0000
  S   S409      1.0  0.74577  0.10831  0.02191  1.0000
  C   C1356     1.0  0.86915  0.06132  0.18609  1.0000
  C   C1357     1.0  0.85944  0.05159  0.19868  1.0000
  C   C1358     1.0  0.84521  0.04825  0.19587  1.0000
  C   C1359     1.0  0.84063  0.05444  0.18048  1.0000
  C   C1360     1.0  0.85069  0.06363  0.16771  1.0000
  C   C1361     1.0  0.86483  0.06711  0.17054  1.0000
  H   H2322     1.0  0.86265  0.04694  0.21066  1.0000
  H   H2323     1.0  0.83743  0.04121  0.20578  1.0000
  H   H2324     1.0  0.84709  0.06879  0.15590  1.0000
  H   H2325     1.0  0.87226  0.07464  0.16073  1.0000
  Fe  Fe206     1.0  0.65263  0.13396  0.99001  1.0000
  H   H2326     1.0  0.76323  0.13426  0.01671  1.0000
  C   C1362     1.0  0.60290  0.20884  0.00888  1.0000
  C   C1363     1.0  0.77678  0.03963  0.07155  1.0000
  C   C1364     1.0  0.76637  0.05424  0.07566  1.0000
  C   C1365     1.0  0.76920  0.06093  0.08775  1.0000
  C   C1366     1.0  0.78236  0.05305  0.09591  1.0000
  C   C1367     1.0  0.79270  0.03839  0.09189  1.0000
  C   C1368     1.0  0.78992  0.03173  0.07975  1.0000
  H   H2327     1.0  0.75623  0.06046  0.06942  1.0000
  H   H2328     1.0  0.76116  0.07230  0.09078  1.0000
  H   H2329     1.0  0.80304  0.03232  0.09791  1.0000
  H   H2330     1.0  0.79816  0.02052  0.07652  1.0000
  Fe  Fe207     1.0  0.50809  0.29433  0.14765  1.0000
  C   C1369     1.0  0.65911  0.09475  0.01391  1.0000
  C   C1370     1.0  0.67569  0.09301  0.00539  1.0000
  C   C1371     1.0  0.68784  0.07989  0.01146  1.0000
  C   C1372     1.0  0.68346  0.06850  0.02608  1.0000
  C   C1373     1.0  0.66674  0.06979  0.03412  1.0000
  C   C1374     1.0  0.65459  0.08287  0.02803  1.0000
  H   H2331     1.0  0.81350  0.09100  0.06920  1.0000
  H   H2332     1.0  0.70054  0.07857  0.00475  1.0000
  H   H2333     1.0  0.66323  0.06089  0.04529  1.0000
  H   H2334     1.0  0.64173  0.08405  0.03455  1.0000
  C   C1375     1.0  0.50187  0.23774  0.14699  1.0000
  H   H2335     1.0  0.68623  0.23069  0.00172  1.0000
  C   C1376     1.0  0.59350  0.20867  0.02504  1.0000
  C   C1377     1.0  0.59327  0.19367  0.03655  1.0000
  C   C1378     1.0  0.60279  0.17891  0.03197  1.0000
  C   C1379     1.0  0.61209  0.17905  0.01579  1.0000
  H   H2336     1.0  0.83159  0.08433  0.19477  1.0000
  H   H2337     1.0  0.58646  0.22014  0.02860  1.0000
  H   H2338     1.0  0.60261  0.16727  0.04084  1.0000
  H   H2339     1.0  0.56695  0.17428  0.03854  1.0000
  C   C1380     1.0  0.54661  0.27797  0.08294  1.0000
  C   C1381     1.0  0.55574  0.28719  0.08692  1.0000
  C   C1382     1.0  0.55195  0.29044  0.10284  1.0000
  C   C1383     1.0  0.53849  0.28520  0.11460  1.0000
  C   C1384     1.0  0.52893  0.27652  0.11046  1.0000
  C   C1385     1.0  0.53329  0.27246  0.09480  1.0000
  H   H2340     1.0  0.56606  0.29146  0.07782  1.0000
  H   H2341     1.0  0.55944  0.29708  0.10601  1.0000
  H   H2342     1.0  0.97283  0.01780  0.23280  1.0000
  H   H2343     1.0  0.52635  0.26510  0.09192  1.0000
  C   C1386     1.0  0.75510  0.01973  0.14132  1.0000
  C   C1387     1.0  0.61204  0.19400  0.00419  1.0000
  C   C1388     1.0  0.87170  0.99604  0.17051  1.0000
  H   H2344     1.0  0.51431  0.18782  0.01151  1.0000
  H   H2345     1.0  0.51856  0.19102  0.09732  1.0000
  H   H2346     1.0  0.73215  0.02631  0.12045  1.0000
  H   H2347     1.0  0.85965  0.08328  0.21120  1.0000
  H   H2348     1.0  0.85581  0.99450  0.19492  1.0000
  H   H2349     1.0  0.90081  0.00237  0.16735  1.0000
  C   C1389     1.0  0.51689  0.22421  0.15168  1.0000
  H   H2350     1.0  0.76323  0.09656  0.99213  1.0000
  H   H2351     1.0  0.55950  0.24061  0.10935  1.0000
  H   H2352     1.0  0.52297  0.25538  0.17639  1.0000
  S   S410      1.0  0.50135  0.28780  0.17533  1.0000
  H   H2353     1.0  0.75953  0.02640  0.10741  1.0000
  H   H2354     1.0  0.50545  0.28096  0.07686  1.0000
  H   H2355     1.0  0.87145  0.00996  0.22937  1.0000
  C   C1390     1.0  0.54953  0.21511  0.99964  1.0000
  H   H2356     1.0  0.54001  0.22282  0.12392  1.0000
  H   H2357     1.0  0.54316  0.24861  0.15221  1.0000
  C   C1391     1.0  0.57018  0.18829  0.00203  1.0000
  C   C1392     1.0  0.76383  0.01341  0.11376  1.0000
  S   S411      1.0  0.88669  0.03689  0.23254  1.0000
  H   H2358     1.0  0.79292  0.05591  0.21952  1.0000
  C   C1393     1.0  0.75712  0.99155  0.13907  1.0000
  C   C1394     1.0  0.53925  0.23352  0.12933  1.0000
  H   H2359     1.0  0.89776  0.02741  0.17458  1.0000
  C   C1395     1.0  0.67003  0.19494  0.99714  1.0000
  H   H2360     1.0  0.77663  0.01319  0.11483  1.0000
  H   H2361     1.0  0.76836  0.01747  0.14189  1.0000
  C   C1396     1.0  0.77537  0.99292  0.19577  1.0000
  C   C1397     1.0  0.78889  0.99142  0.20285  1.0000
  H   H2362     1.0  0.80972  0.01518  0.20525  1.0000
  C   C1398     1.0  0.80141  0.02280  0.21406  1.0000
  H   H2363     1.0  0.86543  0.99335  0.22434  1.0000
  C   C1399     1.0  0.55620  0.23879  0.12305  1.0000
  H   H2364     1.0  0.65147  0.22436  0.00795  1.0000
  H   H2365     1.0  0.70744  0.10389  0.01247  1.0000
  H   H2366     1.0  0.76330  0.01422  0.21729  1.0000
  H   H2367     1.0  0.69697  0.03242  0.99272  1.0000
  N   N96       1.0  0.79933  0.08288  0.03840  1.0000
  H   H2368     1.0  0.74443  0.03299  0.20391  1.0000
  H   H2369     1.0  0.76184  0.03897  0.18813  1.0000
  N   N97       1.0  0.55286  0.19719  0.00853  1.0000
  H   H2370     1.0  0.56046  0.20254  0.02837  1.0000
  C   C1400     1.0  0.49809  0.17906  0.10998  1.0000
  H   H2371     1.0  0.79896  0.05982  0.05641  1.0000
  H   H2372     1.0  0.81226  0.09705  0.20349  1.0000
  C   C1401     1.0  0.87302  0.03271  0.13264  1.0000
  H   H2373     1.0  0.80908  0.03106  0.21492  1.0000
  H   H2374     1.0  0.51855  0.27242  0.11953  1.0000
  C   C1402     1.0  0.52238  0.19389  0.01518  1.0000
  H   H2375     1.0  0.97000  0.15895  0.22311  1.0000
  H   H2376     1.0  0.78262  0.10997  0.05733  1.0000
  H   H2377     1.0  0.74279  0.05360  0.19190  1.0000
  H   H2378     1.0  0.81784  0.05551  0.02144  1.0000
  H   H2379     1.0  0.73467  0.99836  0.11269  1.0000
  S   S412      1.0  0.65456  0.15504  0.99986  1.0000
  H   H2380     1.0  0.85246  0.01484  0.18257  1.0000
  C   C1403     1.0  0.57194  0.31981  0.22354  1.0000
  C   C1404     1.0  0.76872  0.12751  0.00688  1.0000
  H   H2381     1.0  0.66445  0.05230  0.01041  1.0000
  H   H2382     1.0  0.77299  0.08928  0.03838  1.0000
  H   H2383     1.0  0.49783  0.24707  0.15485  1.0000
  N   N98       1.0  0.88003  0.00716  0.15557  1.0000
  C   C1405     1.0  0.88883  0.02823  0.16689  1.0000
  C   C1406     1.0  0.54049  0.18888  0.00590  1.0000
  H   H2384     1.0  0.61887  0.16752  0.01221  1.0000
  H   H2385     1.0  0.76460  0.11380  0.04883  1.0000
  H   H2386     1.0  0.79678  0.08157  0.07132  1.0000
  H   H2387     1.0  0.85654  0.01679  0.14780  1.0000
  H   H2388     1.0  0.50583  0.31621  0.05629  1.0000
  H   H2389     1.0  0.50411  0.24406  0.13381  1.0000
  C   C1407     1.0  0.97816  0.05254  0.23058  1.0000
  C   C1408     1.0  0.88760  0.99720  0.14225  1.0000
  H   H2390     1.0  0.54938  0.16993  0.03389  1.0000
  H   H2391     1.0  0.53755  0.22199  0.00591  1.0000
  H   H2392     1.0  0.51235  0.26595  0.03529  1.0000
  H   H2393     1.0  0.64444  0.19397  0.01138  1.0000
  H   H2394     1.0  0.53911  0.20418  0.03186  1.0000
  H   H2395     1.0  0.71320  0.12357  0.00918  1.0000
  C   C1409     1.0  0.49775  0.31643  0.09526  1.0000
  H   H2396     1.0  0.80239  0.06776  0.98982  1.0000
  S   S413      1.0  0.84867  0.99846  0.12788  1.0000
  N   N99       1.0  0.76995  0.03620  0.21942  1.0000
  C   C1410     1.0  0.55114  0.19657  0.02661  1.0000
  H   H2397     1.0  0.75642  0.00876  0.09299  1.0000
  H   H2398     1.0  0.87316  0.10611  0.19857  1.0000
  H   H2399     1.0  0.83903  0.12487  0.22927  1.0000
  H   H2400     1.0  0.81988  0.09333  0.99669  1.0000
  H   H2401     1.0  0.72653  0.01637  0.14154  1.0000
  C   C1411     1.0  0.68731  0.04411  0.99284  1.0000
  S   S414      1.0  0.64387  0.11191  0.00770  1.0000
  H   H2402     1.0  0.90310  0.01577  0.14764  1.0000
  H   H2403     1.0  0.69301  0.09265  0.06708  1.0000
  H   H2404     1.0  0.51096  0.24109  0.17673  1.0000
  C   C1412     1.0  0.74954  0.03871  0.13605  1.0000
  H   H2405     1.0  0.74735  0.02873  0.98594  1.0000
  H   H2406     1.0  0.94938  0.15842  0.20890  1.0000
  H   H2407     1.0  0.81639  0.04048  0.04031  1.0000
  H   H2408     1.0  0.73596  0.04266  0.13664  1.0000
  C   C1413     1.0  0.70332  0.11745  0.00896  1.0000
  C   C1414     1.0  0.93715  0.15997  0.21765  1.0000
  C   C1415     1.0  0.81677  0.05375  0.03494  1.0000
  C   C1416     1.0  0.89383  0.01269  0.15926  1.0000
  H   H2409     1.0  0.78410  0.11654  0.03530  1.0000
  N   N100      1.0  0.53317  0.22970  0.14783  1.0000
  C   C1417     1.0  0.54549  0.21594  0.15593  1.0000
  C   C1418     1.0  0.78161  0.09040  0.04563  1.0000
  C   C1419     1.0  0.78321  0.13099  0.99556  1.0000
  C   C1420     1.0  0.55132  0.20014  0.14871  1.0000
  C   C1421     1.0  0.80190  0.08889  0.01981  1.0000
  C   C1422     1.0  0.85122  0.09573  0.20960  1.0000
  S   S415      1.0  0.70160  0.15828  0.98582  1.0000
  H   H2410     1.0  0.54015  0.21181  0.16928  1.0000
  H   H2411     1.0  0.54428  0.17515  0.00919  1.0000
  C   C1423     1.0  0.77823  0.10875  0.04672  1.0000
  H   H2412     1.0  0.51806  0.21416  0.14521  1.0000
  H   H2413     1.0  0.87094  0.00650  0.19156  1.0000
  H   H2414     1.0  0.54077  0.19479  0.14881  1.0000
  C   C1424     1.0  0.80058  0.06440  0.04283  1.0000
  H   H2415     1.0  0.55935  0.19057  0.15642  1.0000
  H   H2416     1.0  0.82353  0.11726  0.20755  1.0000
  H   H2417     1.0  0.64859  0.07837  0.99094  1.0000
  H   H2418     1.0  0.68075  0.08016  0.06417  1.0000
  H   H2419     1.0  0.82792  0.05598  0.03760  1.0000
  H   H2420     1.0  0.71469  0.00789  0.12257  1.0000
  H   H2421     1.0  0.76234  0.06002  0.20381  1.0000
  H   H2422     1.0  0.88484  0.03610  0.13212  1.0000
  N   N101      1.0  0.68554  0.11871  0.03824  1.0000
  C   C1425     1.0  0.68455  0.10067  0.04345  1.0000
  C   C1426     1.0  0.68656  0.12395  0.01984  1.0000
  C   C1427     1.0  0.67039  0.12938  0.04676  1.0000
  C   C1428     1.0  0.70064  0.12074  0.04282  1.0000
  C   C1429     1.0  0.68206  0.09318  0.06215  1.0000
  H   H2423     1.0  0.87634  0.02997  0.17492  1.0000
  C   C1430     1.0  0.65350  0.12723  0.04512  1.0000
  C   C1431     1.0  0.70431  0.13838  0.03745  1.0000
  H   H2424     1.0  0.67434  0.09850  0.03905  1.0000
  C   C1432     1.0  0.80969  0.08197  0.06449  1.0000
  H   H2425     1.0  0.68367  0.13765  0.01575  1.0000
  H   H2426     1.0  0.67688  0.11988  0.01629  1.0000
  H   H2427     1.0  0.67021  0.12729  0.06017  1.0000
  H   H2428     1.0  0.67074  0.14273  0.04184  1.0000
  H   H2429     1.0  0.69945  0.11738  0.05645  1.0000
  H   H2430     1.0  0.71197  0.11181  0.03828  1.0000
  H   H2431     1.0  0.52127  0.30116  0.06647  1.0000
  H   H2432     1.0  0.67060  0.09974  0.06935  1.0000
  H   H2433     1.0  0.74840  0.01609  0.15435  1.0000
  H   H2434     1.0  0.56454  0.22537  0.01034  1.0000
  H   H2435     1.0  0.57235  0.17502  0.00845  1.0000
  H   H2436     1.0  0.85493  0.12129  0.20367  1.0000
  H   H2437     1.0  0.64336  0.13637  0.05098  1.0000
  H   H2438     1.0  0.65105  0.11477  0.05153  1.0000
  H   H2439     1.0  0.65249  0.12954  0.03206  1.0000
  H   H2440     1.0  0.69805  0.14558  0.04724  1.0000
  H   H2441     1.0  0.70059  0.14554  0.02576  1.0000
  H   H2442     1.0  0.71796  0.13744  0.03503  1.0000
  H   H2443     1.0  0.69605  0.09281  0.03758  1.0000
  C   C1433     1.0  0.55365  0.17908  0.03786  1.0000
  C   C1434     1.0  0.50278  0.20299  0.11675  1.0000
  H   H2444     1.0  0.79724  0.08113  0.01420  1.0000
  H   H2445     1.0  0.57958  0.19332  0.00489  1.0000
  H   H2446     1.0  0.78457  0.02629  0.19801  1.0000
  C   C1435     1.0  0.86158  0.10850  0.20808  1.0000
  H   H2447     1.0  0.55893  0.20237  0.13598  1.0000
  H   H2448     1.0  0.56638  0.22929  0.12788  1.0000
  H   H2449     1.0  0.65790  0.19736  0.02285  1.0000
  S   S416      1.0  0.51038  0.23356  0.03277  1.0000
  C   C1436     1.0  0.75729  0.04881  0.21071  1.0000
  H   H2450     1.0  0.67918  0.03585  0.01922  1.0000
  H   H2451     1.0  0.89008  0.03956  0.15711  1.0000
  H   H2452     1.0  0.81110  0.10104  0.04185  1.0000
  H   H2453     1.0  0.81756  0.06949  0.06786  1.0000
  H   H2454     1.0  0.90951  0.01527  0.21111  1.0000
  H   H2455     1.0  0.51752  0.20744  0.01206  1.0000
  H   H2456     1.0  0.79426  0.10141  0.01638  1.0000
  C   C1437     1.0  0.76184  0.11473  0.00598  1.0000
  H   H2457     1.0  0.81094  0.19402  0.99168  1.0000
  C   C1438     1.0  0.78599  0.03292  0.20692  1.0000
  H   H2458     1.0  0.69312  0.05309  0.99543  1.0000
  H   H2459     1.0  0.66704  0.03121  0.00779  1.0000
  C   C1439     1.0  0.81145  0.08749  0.04551  1.0000
  H   H2460     1.0  0.82446  0.08200  0.04020  1.0000
  H   H2461     1.0  0.50317  0.31463  0.10621  1.0000
  H   H2462     1.0  0.55569  0.25085  0.12587  1.0000
  C   C1440     1.0  0.81969  0.09030  0.01016  1.0000
  H   H2463     1.0  0.99026  0.05521  0.22296  1.0000
  C   C1441     1.0  0.86697  0.02145  0.14928  1.0000
  C   C1442     1.0  0.75140  0.04304  0.19802  1.0000
  C   C1443     1.0  0.50026  0.26669  0.03302  1.0000
  H   H2464     1.0  0.51328  0.21869  0.16507  1.0000
  H   H2465     1.0  0.78917  0.04485  0.19933  1.0000
  C   C1444     1.0  0.73462  0.01430  0.12939  1.0000
  H   H2466     1.0  0.81481  0.07513  0.20696  1.0000
  C   C1445     1.0  0.50761  0.19101  0.10708  1.0000
  H   H2467     1.0  0.53181  0.23390  0.18068  1.0000
  H   H2468     1.0  0.75242  0.04463  0.14474  1.0000
  H   H2469     1.0  0.87775  0.99425  0.13799  1.0000
  H   H2470     1.0  0.50149  0.19446  0.07333  1.0000
  H   H2471     1.0  0.53025  0.24361  0.12334  1.0000
  H   H2472     1.0  0.52107  0.18973  0.02877  1.0000
  C   C1446     1.0  0.53104  0.24498  0.15439  1.0000
  H   H2473     1.0  0.85049  0.01145  0.22845  1.0000
  C   C1447     1.0  0.82133  0.08519  0.20576  1.0000
  H   H2474     1.0  0.54621  0.17964  0.05052  1.0000
  H   H2475     1.0  0.66028  0.17747  0.01871  1.0000
  H   H2476     1.0  0.60288  0.22045  0.99995  1.0000
  C   C1448     1.0  0.72752  0.00194  0.12442  1.0000
  H   H2477     1.0  0.72645  0.99072  0.13440  1.0000
  H   H2478     1.0  0.67133  0.22627  0.02087  1.0000
  H   H2479     1.0  0.77955  0.99094  0.14786  1.0000
  C   C1449     1.0  0.52373  0.24348  0.17310  1.0000
  H   H2480     1.0  0.78887  0.14051  0.99657  1.0000
  C   C1450     1.0  0.90834  0.99415  0.20268  1.0000
  C   C1451     1.0  0.91238  0.00191  0.21311  1.0000
  H   H2481     1.0  0.52316  0.25583  0.14765  1.0000
  H   H2482     1.0  0.75640  0.04368  0.12359  1.0000
  C   C1452     1.0  0.67725  0.22268  0.00878  1.0000
  C   C1453     1.0  0.82765  0.08243  0.22180  1.0000
  H   H2483     1.0  0.68429  0.20981  0.01176  1.0000
  H   H2484     1.0  0.95274  0.02324  0.22846  1.0000
  H   H2485     1.0  0.92362  0.18058  0.22929  1.0000
  C   C1454     1.0  0.76531  0.00268  0.10132  1.0000
  C   C1455     1.0  0.86169  0.00269  0.23218  1.0000
  H   H2486     1.0  0.57489  0.22031  0.99045  1.0000
  H   H2487     1.0  0.74606  0.05335  0.21974  1.0000
  H   H2488     1.0  0.77806  0.00125  0.09351  1.0000
  C   C1456     1.0  0.56522  0.31428  0.21120  1.0000
  H   H2489     1.0  0.74952  0.98947  0.15191  1.0000
  H   H2490     1.0  0.86558  0.10750  0.21963  1.0000
  H   H2491     1.0  0.64900  0.05745  0.99115  1.0000
  H   H2492     1.0  0.82267  0.13805  0.21992  1.0000
  H   H2493     1.0  0.83289  0.04052  0.23358  1.0000
  C   C1457     1.0  0.86225  0.00376  0.18554  1.0000
  H   H2494     1.0  0.57494  0.30447  0.20590  1.0000
  H   H2495     1.0  0.86277  0.99079  0.16700  1.0000
  H   H2496     1.0  0.81075  0.11031  0.22698  1.0000
  H   H2497     1.0  0.92781  0.16547  0.20975  1.0000
  C   C1458     1.0  0.76413  0.02014  0.22700  1.0000
  H   H2498     1.0  0.97214  0.04878  0.22256  1.0000
  H   H2499     1.0  0.79915  0.99715  0.19577  1.0000
  H   H2500     1.0  0.51665  0.29866  0.04817  1.0000
  C   C1459     1.0  0.51106  0.30288  0.06001  1.0000
  H   H2501     1.0  0.54014  0.19159  0.99254  1.0000
  H   H2502     1.0  0.76367  0.98990  0.10700  1.0000
  H   H2503     1.0  0.93463  0.14768  0.22438  1.0000
  H   H2504     1.0  0.66205  0.23762  0.99194  1.0000
  H   H2505     1.0  0.83639  0.07019  0.22305  1.0000
  N   N102      1.0  0.83571  0.09568  0.22307  1.0000
  H   H2506     1.0  0.79859  0.01423  0.22608  1.0000
  H   H2507     1.0  0.68268  0.19061  0.99994  1.0000
  C   C1460     1.0  0.82361  0.11213  0.22091  1.0000
  C   C1461     1.0  0.93612  0.17218  0.22856  1.0000
  H   H2508     1.0  0.50789  0.31783  0.08426  1.0000
  C   C1462     1.0  0.78030  0.05828  0.22735  1.0000
  H   H2509     1.0  0.49909  0.29016  0.10116  1.0000
  H   H2510     1.0  0.77239  0.06914  0.22081  1.0000
  H   H2511     1.0  0.55446  0.30836  0.21772  1.0000
  N   N103      1.0  0.66724  0.21274  0.98781  1.0000
  H   H2512     1.0  0.66975  0.18653  0.98935  1.0000
  H   H2513     1.0  0.54794  0.21627  0.98688  1.0000
  C   C1463     1.0  0.77232  0.04294  0.23298  1.0000
  H   H2514     1.0  0.58577  0.31627  0.22046  1.0000
  H   H2515     1.0  0.81660  0.08095  0.23199  1.0000
  C   C1464     1.0  0.82620  0.12584  0.22812  1.0000
  H   H2516     1.0  0.88339  0.29388  0.40128  1.0000
  S   S417      1.0  0.90808  0.04326  0.25637  1.0000
  S   S418      1.0  0.85984  0.05170  0.27176  1.0000
  C   C1465     1.0  0.99061  0.22023  0.28643  1.0000
  H   H2517     1.0  0.97118  0.27061  0.40341  1.0000
  H   H2518     1.0  0.94140  0.27456  0.29844  1.0000
  H   H2519     1.0  0.99299  0.22969  0.38670  1.0000
  S   S419      1.0  0.80863  0.02246  0.25268  1.0000
  H   H2520     1.0  0.83469  0.03364  0.29228  1.0000
  H   H2521     1.0  0.91724  0.26260  0.31133  1.0000
  H   H2522     1.0  0.95256  0.29702  0.36351  1.0000
  H   H2523     1.0  0.94174  0.21617  0.29570  1.0000
  S   S420      1.0  0.78194  0.29324  0.46692  1.0000
  Fe  Fe208     1.0  0.91440  0.22474  0.40014  1.0000
  S   S421      1.0  0.92699  0.23827  0.37592  1.0000
  S   S422      1.0  0.92677  0.20199  0.41631  1.0000
  Fe  Fe209     1.0  0.88068  0.24776  0.39839  1.0000
  S   S423      1.0  0.89027  0.26318  0.37389  1.0000
  S   S424      1.0  0.85322  0.25276  0.40899  1.0000
  Fe  Fe210     1.0  0.90425  0.23896  0.36724  1.0000
  S   S425      1.0  0.90715  0.23369  0.34234  1.0000
  Fe  Fe211     1.0  0.91204  0.26123  0.38476  1.0000
  S   S426      1.0  0.92439  0.28238  0.38118  1.0000
  S   S427      1.0  0.89265  0.22357  0.39077  1.0000
  S   S428      1.0  0.90136  0.24778  0.40996  1.0000
  Fe  Fe212     1.0  0.95513  0.13508  0.29341  1.0000
  S   S429      1.0  0.96229  0.12644  0.31833  1.0000
  S   S430      1.0  0.93899  0.12105  0.28663  1.0000
  Fe  Fe213     1.0  0.96652  0.16817  0.28764  1.0000
  S   S431      1.0  0.97405  0.16206  0.31191  1.0000
  S   S432      1.0  0.96894  0.19233  0.26929  1.0000
  N   N104      1.0  0.96594  0.03437  0.25813  1.0000
  Fe  Fe214     1.0  0.95069  0.15225  0.32195  1.0000
  S   S433      1.0  0.93572  0.15717  0.34647  1.0000
  H   H2524     1.0  0.92296  0.22820  0.28862  1.0000
  S   S434      1.0  0.94189  0.16051  0.29814  1.0000
  H   H2525     1.0  0.97644  0.15813  0.24186  1.0000
  C   C1466     1.0  0.95950  0.01934  0.23876  1.0000
  H   H2526     1.0  0.96068  0.12686  0.37310  1.0000
  H   H2527     1.0  0.81550  0.09865  0.25442  1.0000
  H   H2528     1.0  0.95964  0.01366  0.27778  1.0000
  C   C1467     1.0  0.86388  0.21355  0.46308  1.0000
  C   C1468     1.0  0.93251  0.28832  0.35998  1.0000
  C   C1469     1.0  0.92506  0.28585  0.34838  1.0000
  C   C1470     1.0  0.93182  0.29010  0.33146  1.0000
  C   C1471     1.0  0.94650  0.29609  0.32613  1.0000
  H   H2529     1.0  0.78172  0.06165  0.23848  1.0000
  C   C1472     1.0  0.94684  0.29497  0.35460  1.0000
  H   H2530     1.0  0.91397  0.28084  0.35239  1.0000
  H   H2531     1.0  0.92587  0.28834  0.32256  1.0000
  H   H2532     1.0  0.98957  0.02770  0.24133  1.0000
  H   H2533     1.0  0.97416  0.26705  0.35558  1.0000
  C   C1473     1.0  0.91525  0.21248  0.34332  1.0000
  C   C1474     1.0  0.91802  0.20579  0.32938  1.0000
  C   C1475     1.0  0.92462  0.18882  0.33018  1.0000
  C   C1476     1.0  0.92778  0.17843  0.34511  1.0000
  C   C1477     1.0  0.92475  0.18511  0.35909  1.0000
  C   C1478     1.0  0.91895  0.20216  0.35807  1.0000
  H   H2534     1.0  0.91492  0.21366  0.31805  1.0000
  H   H2535     1.0  0.92676  0.18372  0.31939  1.0000
  H   H2536     1.0  0.92707  0.17719  0.37067  1.0000
  H   H2537     1.0  0.91730  0.20722  0.36875  1.0000
  C   C1479     1.0  0.97540  0.20156  0.39443  1.0000
  H   H2538     1.0  0.98721  0.24624  0.35686  1.0000
  C   C1480     1.0  0.95679  0.18910  0.42521  1.0000
  C   C1481     1.0  0.94866  0.19792  0.41234  1.0000
  C   C1482     1.0  0.95804  0.20373  0.39678  1.0000
  H   H2539     1.0  0.96830  0.22876  0.40854  1.0000
  H   H2540     1.0  0.85011  0.07883  0.24040  1.0000
  H   H2541     1.0  0.94964  0.18449  0.43724  1.0000
  H   H2542     1.0  0.95191  0.21012  0.38665  1.0000
  C   C1483     1.0  0.83349  0.26500  0.46013  1.0000
  C   C1484     1.0  0.85069  0.26043  0.45432  1.0000
  C   C1485     1.0  0.85696  0.25653  0.43863  1.0000
  C   C1486     1.0  0.84601  0.25686  0.42890  1.0000
  C   C1487     1.0  0.82883  0.26096  0.43492  1.0000
  C   C1488     1.0  0.82258  0.26514  0.45044  1.0000
  H   H2543     1.0  0.91289  0.27741  0.28309  1.0000
  H   H2544     1.0  0.87021  0.25346  0.43404  1.0000
  H   H2545     1.0  0.82032  0.26115  0.42746  1.0000
  H   H2546     1.0  0.80932  0.26836  0.45496  1.0000
  Fe  Fe215     1.0  0.98246  0.28802  0.30153  1.0000
  C   C1489     1.0  0.97939  0.13256  0.38344  1.0000
  H   H2547     1.0  0.94007  0.27427  0.27859  1.0000
  C   C1490     1.0  0.93494  0.09079  0.25085  1.0000
  H   H2548     1.0  0.74781  0.02489  0.25071  1.0000
  H   H2549     1.0  0.98715  0.21378  0.24448  1.0000
  C   C1491     1.0  0.93833  0.10868  0.27307  1.0000
  C   C1492     1.0  0.95119  0.10566  0.25949  1.0000
  C   C1493     1.0  0.94941  0.09693  0.24840  1.0000
  C   C1494     1.0  0.97405  0.18717  0.42295  1.0000
  H   H2550     1.0  0.87004  0.19564  0.41989  1.0000
  H   H2551     1.0  0.96241  0.11022  0.25742  1.0000
  H   H2552     1.0  0.97655  0.12461  0.39598  1.0000
  C   C1495     1.0  0.84537  0.04345  0.26695  1.0000
  C   C1496     1.0  0.84495  0.04513  0.25044  1.0000
  C   C1497     1.0  0.83332  0.03892  0.24637  1.0000
  C   C1498     1.0  0.82253  0.03029  0.25873  1.0000
  C   C1499     1.0  0.82308  0.02818  0.27533  1.0000
  C   C1500     1.0  0.83436  0.03503  0.27945  1.0000
  H   H2553     1.0  0.88935  0.20498  0.42699  1.0000
  H   H2554     1.0  0.75173  0.30472  0.44270  1.0000
  H   H2555     1.0  0.81465  0.02159  0.28496  1.0000
  N   N105      1.0  0.97219  0.15065  0.38385  1.0000
  H   H2556     1.0  0.94132  0.26102  0.40994  1.0000
  C   C1501     1.0  0.97069  0.16058  0.36672  1.0000
  C   C1502     1.0  0.74728  0.02125  0.23940  1.0000
  C   C1503     1.0  0.95582  0.15270  0.39608  1.0000
  C   C1504     1.0  0.92227  0.09346  0.26465  1.0000
  C   C1505     1.0  0.96499  0.17953  0.36493  1.0000
  C   C1506     1.0  0.97427  0.12528  0.37131  1.0000
  C   C1507     1.0  0.94152  0.14704  0.39275  1.0000
  H   H2557     1.0  0.86688  0.22602  0.45990  1.0000
  C   C1508     1.0  0.84926  0.30739  0.43986  1.0000
  H   H2558     1.0  0.96206  0.15662  0.36165  1.0000
  C   C1509     1.0  0.92408  0.16065  0.25790  1.0000
  C   C1510     1.0  0.85902  0.31058  0.40371  1.0000
  C   C1511     1.0  0.98809  0.21543  0.25625  1.0000
  H   H2559     1.0  0.95736  0.14536  0.40855  1.0000
  H   H2560     1.0  0.95130  0.16561  0.39809  1.0000
  H   H2561     1.0  0.84062  0.28829  0.40598  1.0000
  C   C1512     1.0  0.95324  0.14939  0.24627  1.0000
  C   C1513     1.0  0.96498  0.24245  0.40740  1.0000
  H   H2562     1.0  0.97581  0.20137  0.29755  1.0000
  C   C1514     1.0  0.92392  0.10245  0.27557  1.0000
  C   C1515     1.0  0.87008  0.29300  0.40506  1.0000
  C   C1516     1.0  0.87242  0.18527  0.45789  1.0000
  S   S435      1.0  0.99118  0.26084  0.31091  1.0000
  C   C1517     1.0  0.95341  0.03245  0.24963  1.0000
  H   H2563     1.0  0.94212  0.13360  0.39793  1.0000
  H   H2564     1.0  0.94115  0.14963  0.37957  1.0000
  H   H2565     1.0  0.92945  0.15414  0.39855  1.0000
  H   H2566     1.0  0.76020  0.04661  0.24135  1.0000
  H   H2567     1.0  0.84708  0.09947  0.24145  1.0000
  H   H2568     1.0  0.95412  0.05988  0.25879  1.0000
  H   H2569     1.0  0.93392  0.25447  0.32919  1.0000
  C   C1518     1.0  0.83433  0.30156  0.40349  1.0000
  H   H2570     1.0  0.98254  0.20663  0.38259  1.0000
  H   H2571     1.0  0.85913  0.26036  0.46180  1.0000
  H   H2572     1.0  0.73695  0.02968  0.23388  1.0000
  H   H2573     1.0  0.95472  0.25758  0.31907  1.0000
  H   H2574     1.0  0.97740  0.00828  0.26259  1.0000
  H   H2575     1.0  0.90311  0.19312  0.44805  1.0000
  C   C1519     1.0  0.72629  0.31233  0.45588  1.0000
  H   H2576     1.0  0.90999  0.15388  0.24350  1.0000
  H   H2577     1.0  0.86040  0.21678  0.41698  1.0000
  H   H2578     1.0  0.98285  0.15829  0.35795  1.0000
  H   H2579     1.0  0.91196  0.25810  0.27860  1.0000
  Fe  Fe216     1.0  0.78352  0.31990  0.45793  1.0000
  H   H2580     1.0  0.97168  0.25342  0.28997  1.0000
  H   H2581     1.0  0.97882  0.16998  0.39123  1.0000
  H   H2582     1.0  0.82470  0.30902  0.43600  1.0000
  H   H2583     1.0  0.83716  0.30579  0.38978  1.0000
  C   C1520     1.0  0.95824  0.04822  0.26737  1.0000
  H   H2584     1.0  0.92672  0.15572  0.27056  1.0000
  C   C1521     1.0  0.89905  0.21698  0.45342  1.0000
  H   H2585     1.0  0.96484  0.23572  0.37993  1.0000
  C   C1522     1.0  0.92047  0.25509  0.30170  1.0000
  C   C1523     1.0  0.88509  0.17192  0.44932  1.0000
  H   H2586     1.0  0.97880  0.13955  0.23504  1.0000
  H   H2587     1.0  0.89255  0.22367  0.46355  1.0000
  H   H2588     1.0  0.86808  0.28547  0.41779  1.0000
  C   C1524     1.0  0.94654  0.23978  0.30997  1.0000
  H   H2589     1.0  0.94025  0.24254  0.40401  1.0000
  H   H2590     1.0  0.69448  0.31785  0.45493  1.0000
  H   H2591     1.0  0.86801  0.28633  0.39656  1.0000
  C   C1525     1.0  0.93672  0.22569  0.28563  1.0000
  C   C1526     1.0  0.99158  0.24261  0.38806  1.0000
  C   C1527     1.0  0.74440  0.31463  0.44945  1.0000
  H   H2592     1.0  0.93972  0.24973  0.27046  1.0000
  H   H2593     1.0  0.89089  0.01027  0.26613  1.0000
  H   H2594     1.0  0.59012  0.31948  0.24521  1.0000
  H   H2595     1.0  0.95160  0.23895  0.33376  1.0000
  Fe  Fe217     1.0  0.79974  0.00003  0.26916  1.0000
  H   H2596     1.0  0.96754  0.05105  0.27263  1.0000
  H   H2597     1.0  0.95708  0.00708  0.24610  1.0000
  C   C1528     1.0  0.94583  0.24741  0.41155  1.0000
  H   H2598     1.0  0.70175  0.29872  0.48147  1.0000
  H   H2599     1.0  0.95735  0.23771  0.27806  1.0000
  C   C1529     1.0  0.96448  0.26432  0.28280  1.0000
  S   S436      1.0  0.95548  0.30018  0.30504  1.0000
  C   C1530     1.0  0.95410  0.29844  0.33769  1.0000
  H   H2600     1.0  0.93845  0.20263  0.25501  1.0000
  C   C1531     1.0  0.94361  0.24154  0.28182  1.0000
  H   H2601     1.0  0.95952  0.23334  0.30570  1.0000
  H   H2602     1.0  0.93981  0.22954  0.31621  1.0000
  H   H2603     1.0  0.86051  0.31641  0.39028  1.0000
  H   H2604     1.0  0.87156  0.18070  0.47147  1.0000
  C   C1532     1.0  0.98058  0.20599  0.27092  1.0000
  C   C1533     1.0  0.91023  0.26486  0.28850  1.0000
  H   H2605     1.0  0.99346  0.27938  0.38491  1.0000
  S   S437      1.0  0.97924  0.14353  0.28074  1.0000
  H   H2606     1.0  0.93899  0.05649  0.28748  1.0000
  H   H2607     1.0  0.94571  0.03449  0.29115  1.0000
  H   H2608     1.0  0.98907  0.04291  0.25188  1.0000
  H   H2609     1.0  0.94119  0.24175  0.42466  1.0000
  H   H2610     1.0  0.97946  0.13063  0.35825  1.0000
  H   H2611     1.0  0.99160  0.22210  0.29807  1.0000
  H   H2612     1.0  0.85445  0.31865  0.43461  1.0000
  C   C1534     1.0  0.93207  0.19330  0.25395  1.0000
  C   C1535     1.0  0.94297  0.04567  0.28144  1.0000
  H   H2613     1.0  0.94078  0.22024  0.27446  1.0000
  H   H2614     1.0  0.72305  0.30669  0.44716  1.0000
  C   C1536     1.0  0.91591  0.14831  0.25431  1.0000
  C   C1537     1.0  0.97082  0.01815  0.26969  1.0000
  C   C1538     1.0  0.97439  0.25363  0.35960  1.0000
  C   C1539     1.0  0.88460  0.99132  0.25783  1.0000
  H   H2615     1.0  0.86006  0.18527  0.45607  1.0000
  H   H2616     1.0  0.84198  0.30853  0.45247  1.0000
  H   H2617     1.0  0.96809  0.26339  0.26960  1.0000
  H   H2618     1.0  0.95023  0.13936  0.24244  1.0000
  C   C1540     1.0  0.94660  0.24841  0.32362  1.0000
  H   H2619     1.0  0.81131  0.29862  0.42256  1.0000
  H   H2620     1.0  0.89745  0.22519  0.44137  1.0000
  H   H2621     1.0  0.87958  0.16090  0.45163  1.0000
  H   H2622     1.0  0.95828  0.27598  0.38882  1.0000
  C   C1541     1.0  0.83783  0.30444  0.43004  1.0000
  C   C1542     1.0  0.81554  0.30160  0.40893  1.0000
  H   H2623     1.0  0.88955  0.99725  0.24496  1.0000
  H   H2624     1.0  0.97480  0.18515  0.36620  1.0000
  H   H2625     1.0  0.85340  0.05149  0.24075  1.0000
  H   H2626     1.0  0.83949  0.29081  0.43230  1.0000
  H   H2627     1.0  0.87702  0.99917  0.28166  1.0000
  H   H2628     1.0  0.80793  0.31356  0.40369  1.0000
  H   H2629     1.0  0.75014  0.31398  0.45985  1.0000
  H   H2630     1.0  0.92460  0.13649  0.25261  1.0000
  H   H2631     1.0  0.93220  0.04530  0.27671  1.0000
  N   N106      1.0  0.93905  0.25072  0.29567  1.0000
  N   N107      1.0  0.93955  0.16474  0.24568  1.0000
  H   H2632     1.0  0.81292  0.29192  0.40411  1.0000
  N   N108      1.0  0.84083  0.31147  0.41165  1.0000
  H   H2633     1.0  0.97878  0.14710  0.41655  1.0000
  H   H2634     1.0  0.89683  0.26665  0.29455  1.0000
  H   H2635     1.0  0.94253  0.02860  0.25891  1.0000
  C   C1543     1.0  0.98337  0.19364  0.40765  1.0000
  H   H2636     1.0  0.85942  0.29636  0.44189  1.0000
  H   H2637     1.0  0.91542  0.24378  0.30794  1.0000
  H   H2638     1.0  0.95604  0.18144  0.24236  1.0000
  H   H2639     1.0  0.91254  0.21407  0.45345  1.0000
  C   C1544     1.0  0.96572  0.24887  0.37782  1.0000
  H   H2640     1.0  0.86967  0.01472  0.26469  1.0000
  H   H2641     1.0  0.81761  0.12655  0.24028  1.0000
  C   C1545     1.0  0.94551  0.26647  0.28925  1.0000
  Fe  Fe218     1.0  0.88243  0.05242  0.25113  1.0000
  H   H2642     1.0  0.96844  0.27515  0.28409  1.0000
  C   C1546     1.0  0.86415  0.20586  0.42662  1.0000
  N   N109      1.0  0.87633  0.20233  0.45256  1.0000
  H   H2643     1.0  0.89652  0.16767  0.45448  1.0000
  C   C1547     1.0  0.97051  0.15187  0.23586  1.0000
  C   C1548     1.0  0.94509  0.17731  0.25135  1.0000
  H   H2644     1.0  0.87540  0.22331  0.43179  1.0000
  S   S438      1.0  0.80551  0.31675  0.46877  1.0000
  H   H2645     1.0  0.85250  0.20333  0.43518  1.0000
  H   H2646     1.0  0.99320  0.13024  0.37992  1.0000
  H   H2647     1.0  0.91109  0.08878  0.26681  1.0000
  H   H2648     1.0  0.91407  0.17191  0.25876  1.0000
  S   S439      1.0  0.77340  0.99785  0.27219  1.0000
  H   H2649     1.0  0.98008  0.18134  0.43329  1.0000
  N   N110      1.0  0.97350  0.25111  0.39078  1.0000
  H   H2650     1.0  0.85072  0.99728  0.28595  1.0000
  H   H2651     1.0  0.95276  0.25615  0.37875  1.0000
  C   C1549     1.0  0.98179  0.20842  0.28612  1.0000
  H   H2652     1.0  0.97737  0.29209  0.37508  1.0000
  H   H2653     1.0  0.96738  0.25088  0.35177  1.0000
  C   C1550     1.0  0.98417  0.15711  0.38946  1.0000
  H   H2654     1.0  0.91387  0.10468  0.28602  1.0000
  S   S440      1.0  0.93356  0.07972  0.23644  1.0000
  C   C1551     1.0  0.87689  0.20961  0.43437  1.0000
  C   C1552     1.0  0.82644  0.08827  0.25495  1.0000
  C   C1553     1.0  0.84067  0.09062  0.23964  1.0000
  C   C1554     1.0  0.84558  0.21683  0.46179  1.0000
  H   H2655     1.0  0.88861  0.17628  0.43575  1.0000
  C   C1555     1.0  0.97087  0.26925  0.39094  1.0000
  H   H2656     1.0  0.94942  0.17166  0.26313  1.0000
  H   H2657     1.0  0.96549  0.30302  0.33361  1.0000
  C   C1556     1.0  0.89324  0.20068  0.45607  1.0000
  H   H2658     1.0  0.97963  0.11177  0.37323  1.0000
  H   H2659     1.0  0.83103  0.08742  0.26619  1.0000
  C   C1557     1.0  0.98370  0.27898  0.37873  1.0000
  Fe  Fe219     1.0  0.98512  0.13698  0.30617  1.0000
  H   H2660     1.0  0.72659  0.30227  0.46715  1.0000
  C   C1558     1.0  0.88000  0.00459  0.26826  1.0000
  H   H2661     1.0  0.96929  0.24467  0.41764  1.0000
  H   H2662     1.0  0.90588  0.14512  0.26512  1.0000
  H   H2663     1.0  0.82254  0.07641  0.25674  1.0000
  H   H2664     1.0  0.95328  0.18311  0.37377  1.0000
  H   H2665     1.0  0.97604  0.02647  0.28977  1.0000
  H   H2666     1.0  0.85169  0.00528  0.25722  1.0000
  H   H2667     1.0  0.99412  0.02175  0.27364  1.0000
  H   H2668     1.0  0.84371  0.22393  0.44935  1.0000
  H   H2669     1.0  0.95478  0.14399  0.25925  1.0000
  H   H2670     1.0  0.77978  0.03320  0.24108  1.0000
  H   H2671     1.0  0.98964  0.27459  0.36715  1.0000
  H   H2672     1.0  0.74425  0.00872  0.24349  1.0000
  H   H2673     1.0  0.92287  0.19106  0.26575  1.0000
  Fe  Fe220     1.0  0.91285  0.02951  0.23603  1.0000
  H   H2674     1.0  0.98547  0.00553  0.28837  1.0000
  H   H2675     1.0  0.96253  0.18509  0.35231  1.0000
  H   H2676     1.0  0.86477  0.31782  0.40874  1.0000
  C   C1559     1.0  0.98226  0.01824  0.28090  1.0000
  C   C1560     1.0  0.69282  0.31078  0.48114  1.0000
  C   C1561     1.0  0.98939  0.14730  0.40583  1.0000
  H   H2677     1.0  0.92565  0.19889  0.24350  1.0000
  H   H2678     1.0  0.89376  0.19397  0.46904  1.0000
  C   C1562     1.0  0.85715  0.99484  0.25077  1.0000
  H   H2679     1.0  0.95935  0.09490  0.23782  1.0000
  Fe  Fe221     1.0  0.91456  0.06500  0.23631  1.0000
  H   H2680     1.0  0.83790  0.22483  0.47055  1.0000
  H   H2681     1.0  0.84062  0.20539  0.46525  1.0000
  Fe  Fe222     1.0  0.80235  0.29074  0.47986  1.0000
  H   H2682     1.0  0.86441  0.20863  0.47638  1.0000
  S   S441      1.0  0.82585  0.27093  0.47922  1.0000
  C   C1563     1.0  0.98129  0.03873  0.24586  1.0000
  H   H2683     1.0  0.94787  0.04447  0.24223  1.0000
  S   S442      1.0  0.92518  0.00233  0.23910  1.0000
  H   H2684     1.0  0.63440  0.27349  0.48301  1.0000
  H   H2685     1.0  0.99585  0.15764  0.37985  1.0000
  H   H2686     1.0  0.68025  0.30831  0.48283  1.0000
  H   H2687     1.0  0.56795  0.31189  0.23585  1.0000
  H   H2688     1.0  0.99637  0.13450  0.40505  1.0000
  H   H2689     1.0  0.77323  0.01096  0.23378  1.0000
  H   H2690     1.0  0.97057  0.06426  0.23403  1.0000
  C   C1564     1.0  0.51087  0.09632  0.71006  1.0000
  H   H2691     1.0  0.51596  0.22478  0.65450  1.0000
  H   H2692     1.0  0.50943  0.14293  0.69066  1.0000
  C   C1565     1.0  0.57211  0.10304  0.68222  1.0000
  H   H2693     1.0  0.57286  0.23047  0.59353  1.0000
  H   H2694     1.0  0.63043  0.99465  0.71047  1.0000
  Fe  Fe223     1.0  0.56615  0.04815  0.69286  1.0000
  S   S443      1.0  0.57816  0.05442  0.66607  1.0000
  S   S444      1.0  0.53910  0.05913  0.69989  1.0000
  Fe  Fe224     1.0  0.52180  0.25832  0.58004  1.0000
  S   S445      1.0  0.51570  0.28067  0.56046  1.0000
  Fe  Fe225     1.0  0.54161  0.23753  0.55560  1.0000
  S   S446      1.0  0.53706  0.25805  0.53360  1.0000
  S   S447      1.0  0.55751  0.21211  0.55488  1.0000
  Fe  Fe226     1.0  0.54249  0.27382  0.54810  1.0000
  S   S448      1.0  0.55823  0.29319  0.53620  1.0000
  Fe  Fe227     1.0  0.51057  0.26307  0.54802  1.0000
  H   H2695     1.0  0.57108  0.00530  0.68023  1.0000
  S   S449      1.0  0.54893  0.25280  0.56889  1.0000
  S   S450      1.0  0.51480  0.24120  0.56867  1.0000
  H   H2696     1.0  0.54692  0.99779  0.73055  1.0000
  C   C1566     1.0  0.50893  0.99124  0.73207  1.0000
  H   H2697     1.0  0.63216  0.06354  0.67884  1.0000
  S   S451      1.0  0.54514  0.16451  0.62510  1.0000
  H   H2698     1.0  0.59361  0.02148  0.68094  1.0000
  H   H2699     1.0  0.52250  0.16723  0.57320  1.0000
  S   S452      1.0  0.78515  0.29682  0.50332  1.0000
  H   H2700     1.0  0.64620  0.04905  0.69985  1.0000
  H   H2701     1.0  0.59882  0.27419  0.52768  1.0000
  S   S453      1.0  0.53811  0.09279  0.72303  1.0000
  Fe  Fe228     1.0  0.54646  0.06641  0.71971  1.0000
  C   C1567     1.0  0.57158  0.11063  0.64631  1.0000
  H   H2702     1.0  0.65363  0.00420  0.69859  1.0000
  C   C1568     1.0  0.72617  0.29992  0.51378  1.0000
  H   H2703     1.0  0.55514  0.08543  0.65240  1.0000
  H   H2704     1.0  0.54118  0.13092  0.64726  1.0000
  H   H2705     1.0  0.54652  0.10383  0.63935  1.0000
  C   C1569     1.0  0.70202  0.31141  0.53995  1.0000
  C   C1570     1.0  0.71004  0.29707  0.51728  1.0000
  H   H2706     1.0  0.56186  0.14051  0.65758  1.0000
  Fe  Fe229     1.0  0.56890  0.03288  0.72851  1.0000
  H   H2707     1.0  0.52869  0.22479  0.62420  1.0000
  H   H2708     1.0  0.53316  0.20815  0.65993  1.0000
  C   C1571     1.0  0.57005  0.29810  0.54770  1.0000
  C   C1572     1.0  0.57880  0.31091  0.54036  1.0000
  C   C1573     1.0  0.50902  0.19561  0.58080  1.0000
  C   C1574     1.0  0.59186  0.30445  0.56397  1.0000
  C   C1575     1.0  0.58263  0.29205  0.57160  1.0000
  C   C1576     1.0  0.57180  0.28884  0.56349  1.0000
  H   H2709     1.0  0.50513  0.21113  0.55729  1.0000
  H   H2710     1.0  0.58411  0.28470  0.58369  1.0000
  H   H2711     1.0  0.56505  0.27906  0.56934  1.0000
  C   C1577     1.0  0.55521  0.19939  0.57478  1.0000
  C   C1578     1.0  0.56425  0.18302  0.57726  1.0000
  C   C1579     1.0  0.56151  0.17244  0.59288  1.0000
  C   C1580     1.0  0.54948  0.17810  0.60594  1.0000
  C   C1581     1.0  0.54073  0.19455  0.60353  1.0000
  C   C1582     1.0  0.54376  0.20523  0.58806  1.0000
  H   H2712     1.0  0.57323  0.17848  0.56707  1.0000
  H   H2713     1.0  0.56841  0.15976  0.59471  1.0000
  H   H2714     1.0  0.54487  0.19368  0.53917  1.0000
  H   H2715     1.0  0.53709  0.21794  0.58645  1.0000
  H   H2716     1.0  0.68380  0.00347  0.71295  1.0000
  H   H2717     1.0  0.54699  0.10034  0.68513  1.0000
  H   H2718     1.0  0.51920  0.18758  0.58685  1.0000
  H   H2719     1.0  0.63103  0.04392  0.67674  1.0000
  C   C1583     1.0  0.55016  0.13722  0.66554  1.0000
  H   H2720     1.0  0.55090  0.26525  0.63331  1.0000
  C   C1584     1.0  0.52224  0.10415  0.71249  1.0000
  H   H2721     1.0  0.64057  0.26325  0.53831  1.0000
  H   H2722     1.0  0.51363  0.29071  0.59017  1.0000
  H   H2723     1.0  0.52547  0.22115  0.53346  1.0000
  C   C1585     1.0  0.59818  0.04245  0.66135  1.0000
  C   C1586     1.0  0.60987  0.04897  0.64810  1.0000
  C   C1587     1.0  0.62608  0.03972  0.64443  1.0000
  C   C1588     1.0  0.63047  0.02369  0.65361  1.0000
  C   C1589     1.0  0.60260  0.02651  0.67070  1.0000
  H   H2724     1.0  0.60650  0.06125  0.64080  1.0000
  H   H2725     1.0  0.63520  0.04491  0.63438  1.0000
  S   S454      1.0  0.50722  0.17085  0.66261  1.0000
  N   N111      1.0  0.62444  0.27732  0.52137  1.0000
  C   C1590     1.0  0.60908  0.27327  0.53385  1.0000
  C   C1591     1.0  0.61979  0.29504  0.51237  1.0000
  C   C1592     1.0  0.63744  0.27600  0.53092  1.0000
  C   C1593     1.0  0.63014  0.26515  0.51007  1.0000
  H   H2726     1.0  0.65673  0.02465  0.71932  1.0000
  C   C1594     1.0  0.58974  0.31400  0.54839  1.0000
  C   C1595     1.0  0.65431  0.27990  0.52079  1.0000
  C   C1596     1.0  0.64145  0.27035  0.49301  1.0000
  H   H2727     1.0  0.60435  0.28238  0.54198  1.0000
  H   H2728     1.0  0.63681  0.25308  0.51638  1.0000
  H   H2729     1.0  0.63053  0.29942  0.50353  1.0000
  H   H2730     1.0  0.61572  0.30354  0.52122  1.0000
  H   H2731     1.0  0.63251  0.28428  0.53999  1.0000
  H   H2732     1.0  0.61640  0.24584  0.53852  1.0000
  H   H2733     1.0  0.53669  0.21411  0.51513  1.0000
  Fe  Fe230     1.0  0.76481  0.30166  0.48935  1.0000
  H   H2734     1.0  0.59360  0.29836  0.51077  1.0000
  H   H2735     1.0  0.53205  0.24522  0.65261  1.0000
  C   C1597     1.0  0.68200  0.99116  0.71927  1.0000
  H   H2736     1.0  0.64811  0.00677  0.72544  1.0000
  H   H2737     1.0  0.74274  0.31067  0.52081  1.0000
  C   C1598     1.0  0.54420  0.12474  0.65961  1.0000
  H   H2738     1.0  0.66221  0.27919  0.52950  1.0000
  H   H2739     1.0  0.65319  0.29260  0.51308  1.0000
  H   H2740     1.0  0.66115  0.27056  0.51324  1.0000
  H   H2741     1.0  0.72350  0.32077  0.58572  1.0000
  H   H2742     1.0  0.65161  0.25959  0.49035  1.0000
  H   H2743     1.0  0.52042  0.10743  0.65986  1.0000
  C   C1599     1.0  0.55919  0.22540  0.64305  1.0000
  S   S455      1.0  0.64774  0.31177  0.54284  1.0000
  C   C1600     1.0  0.52994  0.09590  0.66222  1.0000
  H   H2744     1.0  0.54085  0.17482  0.56446  1.0000
  H   H2745     1.0  0.58046  0.08725  0.63730  1.0000
  H   H2746     1.0  0.52934  0.09158  0.67568  1.0000
  N   N112      1.0  0.55578  0.10813  0.65883  1.0000
  C   C1601     1.0  0.58460  0.09470  0.64364  1.0000
  H   H2747     1.0  0.53169  0.19909  0.61361  1.0000
  C   C1602     1.0  0.66462  0.02474  0.68450  1.0000
  H   H2748     1.0  0.57643  0.11452  0.67538  1.0000
  C   C1603     1.0  0.52143  0.12108  0.70576  1.0000
  H   H2749     1.0  0.51044  0.17737  0.53724  1.0000
  H   H2750     1.0  0.56702  0.10443  0.69524  1.0000
  C   C1604     1.0  0.73026  0.30853  0.52339  1.0000
  H   H2751     1.0  0.64266  0.01732  0.68381  1.0000
  H   H2752     1.0  0.56245  0.08524  0.67614  1.0000
  H   H2753     1.0  0.57870  0.22059  0.61284  1.0000
  S   S456      1.0  0.57389  0.05679  0.71159  1.0000
  H   H2754     1.0  0.60518  0.31152  0.49492  1.0000
  H   H2755     1.0  0.53022  0.12715  0.70764  1.0000
  C   C1605     1.0  0.62736  0.05220  0.68562  1.0000
  H   H2756     1.0  0.54552  0.20873  0.63003  1.0000
  C   C1606     1.0  0.53701  0.15767  0.55208  1.0000
  H   H2757     1.0  0.56866  0.11739  0.63404  1.0000
  H   H2758     1.0  0.59624  0.09809  0.63551  1.0000
  H   H2759     1.0  0.51536  0.21280  0.52228  1.0000
  H   H2760     1.0  0.54494  0.24301  0.60677  1.0000
  C   C1607     1.0  0.53844  0.26487  0.63206  1.0000
  H   H2761     1.0  0.70527  0.31751  0.60183  1.0000
  H   H2762     1.0  0.56051  0.24903  0.61224  1.0000
  C   C1608     1.0  0.64905  0.01752  0.69345  1.0000
  H   H2763     1.0  0.70695  0.29011  0.51009  1.0000
  C   C1609     1.0  0.53786  0.00663  0.68449  1.0000
  C   C1610     1.0  0.61099  0.25596  0.54539  1.0000
  S   S457      1.0  0.65103  0.01269  0.64920  1.0000
  H   H2764     1.0  0.60855  0.00041  0.71753  1.0000
  N   N113      1.0  0.52080  0.18784  0.55188  1.0000
  H   H2765     1.0  0.62572  0.05059  0.71119  1.0000
  C   C1611     1.0  0.62069  0.02130  0.71029  1.0000
  H   H2766     1.0  0.68547  0.30088  0.53267  1.0000
  H   H2767     1.0  0.67149  0.02603  0.69323  1.0000
  N   N114      1.0  0.63728  0.02602  0.70674  1.0000
  H   H2768     1.0  0.59842  0.25408  0.55247  1.0000
  H   H2769     1.0  0.54068  0.14895  0.66487  1.0000
  C   C1612     1.0  0.55875  0.09879  0.67574  1.0000
  H   H2770     1.0  0.57801  0.11871  0.64938  1.0000
  H   H2771     1.0  0.52702  0.15396  0.54875  1.0000
  H   H2772     1.0  0.62192  0.00461  0.67371  1.0000
  H   H2773     1.0  0.55118  0.13288  0.67867  1.0000
  C   C1613     1.0  0.52584  0.21450  0.65028  1.0000
  S   S458      1.0  0.74072  0.29285  0.49707  1.0000
  C   C1614     1.0  0.53424  0.24753  0.63888  1.0000
  C   C1615     1.0  0.54752  0.09818  0.65245  1.0000
  H   H2774     1.0  0.53587  0.18548  0.52748  1.0000
  H   H2775     1.0  0.52548  0.20721  0.56083  1.0000
  C   C1616     1.0  0.52147  0.99990  0.72952  1.0000
  S   S459      1.0  0.56402  0.02321  0.70878  1.0000
  Fe  Fe231     1.0  0.51778  0.16951  0.63607  1.0000
  H   H2776     1.0  0.61113  0.02864  0.71872  1.0000
  H   H2777     1.0  0.57734  0.31831  0.52828  1.0000
  H   H2778     1.0  0.56546  0.24446  0.65181  1.0000
  C   C1617     1.0  0.57885  0.99287  0.68363  1.0000
  H   H2779     1.0  0.64751  0.28064  0.49179  1.0000
  C   C1618     1.0  0.56798  0.22500  0.60665  1.0000
  H   H2780     1.0  0.58782  0.08691  0.65537  1.0000
  C   C1619     1.0  0.51513  0.20109  0.56201  1.0000
  C   C1620     1.0  0.53015  0.17216  0.56117  1.0000
  C   C1621     1.0  0.61864  0.01698  0.66660  1.0000
  H   H2781     1.0  0.53217  0.12326  0.66819  1.0000
  N   N115      1.0  0.54649  0.23312  0.63241  1.0000
  S   S460      1.0  0.51166  0.25725  0.60699  1.0000
  C   C1622     1.0  0.53280  0.19385  0.53630  1.0000
  H   H2782     1.0  0.58304  0.09255  0.68265  1.0000
  H   H2783     1.0  0.54683  0.16048  0.54097  1.0000
  C   C1623     1.0  0.52697  0.21148  0.52643  1.0000
  H   H2784     1.0  0.66141  0.03688  0.67611  1.0000
  H   H2785     1.0  0.71843  0.32199  0.48437  1.0000
  H   H2786     1.0  0.61580  0.02443  0.69879  1.0000
  H   H2787     1.0  0.61913  0.26242  0.50743  1.0000
  C   C1624     1.0  0.63463  0.04458  0.70136  1.0000
  S   S461      1.0  0.50321  0.15118  0.63625  1.0000
  H   H2788     1.0  0.54427  0.00993  0.69246  1.0000
  H   H2789     1.0  0.52644  0.08631  0.65803  1.0000
  H   H2790     1.0  0.67318  0.01625  0.67663  1.0000
  Fe  Fe232     1.0  0.53762  0.03489  0.71785  1.0000
  C   C1625     1.0  0.71827  0.31400  0.53668  1.0000
  C   C1626     1.0  0.69789  0.30311  0.53008  1.0000
  S   S462      1.0  0.60641  0.30720  0.57386  1.0000
  H   H2791     1.0  0.56664  0.21327  0.64027  1.0000
  H   H2792     1.0  0.53733  0.26946  0.61892  1.0000
  H   H2793     1.0  0.58834  0.98993  0.67259  1.0000
  C   C1627     1.0  0.57117  0.23616  0.64290  1.0000
  H   H2794     1.0  0.72160  0.32028  0.54433  1.0000
  C   C1628     1.0  0.60600  0.29872  0.50253  1.0000
  S   S463      1.0  0.51718  0.02143  0.72175  1.0000
  H   H2795     1.0  0.56298  0.21437  0.60646  1.0000
  H   H2796     1.0  0.51126  0.08332  0.71545  1.0000
  H   H2797     1.0  0.58274  0.22795  0.64639  1.0000
  C   C1629     1.0  0.62066  0.00286  0.71768  1.0000
  C   C1630     1.0  0.55453  0.23840  0.61444  1.0000
  C   C1631     1.0  0.53695  0.22020  0.63333  1.0000
  H   H2798     1.0  0.61355  0.05542  0.68884  1.0000
  H   H2799     1.0  0.49859  0.18928  0.58390  1.0000
  H   H2800     1.0  0.51933  0.20537  0.64903  1.0000
  H   H2801     1.0  0.61827  0.25496  0.55471  1.0000
  H   H2802     1.0  0.52177  0.24894  0.63631  1.0000
  H   H2803     1.0  0.50466  0.20673  0.58635  1.0000
  H   H2804     1.0  0.60853  0.29020  0.49404  1.0000
  H   H2805     1.0  0.54294  0.14673  0.56047  1.0000
  H   H2806     1.0  0.57542  0.24360  0.63054  1.0000
  C   C1632     1.0  0.64479  0.02054  0.72189  1.0000
  C   C1633     1.0  0.50967  0.13001  0.69614  1.0000
  H   H2807     1.0  0.52452  0.01254  0.68796  1.0000
  H   H2808     1.0  0.55292  0.22202  0.65623  1.0000
  H   H2809     1.0  0.52920  0.27378  0.63903  1.0000
  S   S464      1.0  0.68699  0.31828  0.55651  1.0000
  H   H2810     1.0  0.62200  0.99960  0.73072  1.0000
  H   H2811     1.0  0.69242  0.31595  0.49182  1.0000
  H   H2812     1.0  0.50324  0.17717  0.69921  1.0000
  H   H2813     1.0  0.54218  0.01218  0.67133  1.0000
  H   H2814     1.0  0.72356  0.31972  0.60671  1.0000
  H   H2815     1.0  0.58583  0.99353  0.69262  1.0000
  H   H2816     1.0  0.56417  0.99561  0.66010  1.0000
  C   C1634     1.0  0.50630  0.18499  0.54685  1.0000
  S   S465      1.0  0.49963  0.19172  0.62622  1.0000
  H   H2817     1.0  0.49689  0.99783  0.72947  1.0000
  C   C1635     1.0  0.49882  0.10537  0.70083  1.0000
  C   C1636     1.0  0.50148  0.29071  0.59818  1.0000
  H   H2818     1.0  0.49946  0.19687  0.54050  1.0000
  H   H2819     1.0  0.49851  0.15909  0.71390  1.0000
  C   C1637     1.0  0.49783  0.27607  0.60884  1.0000
  H   H2820     1.0  0.49790  0.16833  0.57087  1.0000
  C   C1638     1.0  0.49838  0.12214  0.69362  1.0000
  C   C1639     1.0  0.53710  0.99120  0.73276  1.0000
  H   H2821     1.0  0.75202  0.08636  0.80875  1.0000
  C   C1640     1.0  0.84094  0.14922  0.96049  1.0000
  C   C1641     1.0  0.92625  0.27132  0.83031  1.0000
  Fe  Fe233     1.0  0.63723  0.00912  0.79667  1.0000
  S   S466      1.0  0.66248  0.01514  0.79056  1.0000
  S   S467      1.0  0.61454  0.02969  0.79592  1.0000
  C   C1642     1.0  0.89790  0.26199  0.86058  1.0000
  S   S468      1.0  0.63783  0.14998  0.97126  1.0000
  C   C1643     1.0  0.69798  0.05140  0.96316  1.0000
  Fe  Fe234     1.0  0.90998  0.19054  0.91139  1.0000
  S   S469      1.0  0.90109  0.21323  0.89322  1.0000
  S   S470      1.0  0.89377  0.17215  0.92621  1.0000
  Fe  Fe235     1.0  0.94587  0.19573  0.90137  1.0000
  S   S471      1.0  0.93989  0.21812  0.88183  1.0000
  S   S472      1.0  0.97313  0.18755  0.90181  1.0000
  Fe  Fe236     1.0  0.91742  0.22526  0.90098  1.0000
  S   S473      1.0  0.90904  0.25137  0.90513  1.0000
  Fe  Fe237     1.0  0.92431  0.20415  0.87585  1.0000
  S   S474      1.0  0.92261  0.20319  0.85056  1.0000
  S   S475      1.0  0.92417  0.20344  0.92119  1.0000
  S   S476      1.0  0.93251  0.18078  0.89340  1.0000
  Fe  Fe238     1.0  0.96021  0.30237  0.83218  1.0000
  S   S477      1.0  0.95218  0.30331  0.80903  1.0000
  H   H2822     1.0  0.99258  0.27427  0.89261  1.0000
  C   C1644     1.0  0.81641  0.19626  0.97820  1.0000
  H   H2823     1.0  0.75750  0.10029  0.81731  1.0000
  H   H2824     1.0  0.78836  0.08335  0.81076  1.0000
  H   H2825     1.0  0.73960  0.07321  0.85511  1.0000
  C   C1645     1.0  0.63518  0.01943  0.85032  1.0000
  C   C1646     1.0  0.68564  0.00544  0.85765  1.0000
  H   H2826     1.0  0.70276  0.07389  0.96760  1.0000
  C   C1647     1.0  0.80292  0.03844  0.94502  1.0000
  S   S478      1.0  0.58435  0.01312  0.74440  1.0000
  Fe  Fe239     1.0  0.66287  0.15098  0.95447  1.0000
  S   S479      1.0  0.67148  0.14800  0.92822  1.0000
  S   S480      1.0  0.66530  0.17370  0.96111  1.0000
  Fe  Fe240     1.0  0.81960  0.14663  0.90910  1.0000
  S   S481      1.0  0.82521  0.12050  0.92348  1.0000
  S   S482      1.0  0.83914  0.16150  0.89422  1.0000
  Fe  Fe241     1.0  0.78208  0.14953  0.92122  1.0000
  S   S483      1.0  0.78470  0.12400  0.93695  1.0000
  S   S484      1.0  0.75673  0.16532  0.91981  1.0000
  Fe  Fe242     1.0  0.80558  0.13017  0.94376  1.0000
  S   S485      1.0  0.80912  0.12560  0.96963  1.0000
  Fe  Fe243     1.0  0.80373  0.11673  0.91506  1.0000
  S   S486      1.0  0.80334  0.09261  0.90905  1.0000
  S   S487      1.0  0.80118  0.15652  0.93003  1.0000
  S   S488      1.0  0.79989  0.14205  0.89866  1.0000
  Fe  Fe244     1.0  0.71335  0.04582  0.88091  1.0000
  S   S489      1.0  0.70513  0.07310  0.88116  1.0000
  S   S490      1.0  0.71177  0.03998  0.85663  1.0000
  Fe  Fe245     1.0  0.72421  0.03873  0.91421  1.0000
  S   S491      1.0  0.71678  0.06523  0.91630  1.0000
  S   S492      1.0  0.73276  0.02177  0.93682  1.0000
  Fe  Fe246     1.0  0.69417  0.06510  0.90798  1.0000
  S   S493      1.0  0.66994  0.07634  0.92280  1.0000
  Fe  Fe247     1.0  0.72869  0.07057  0.88954  1.0000
  S   S494      1.0  0.74311  0.09108  0.87928  1.0000
  S   S495      1.0  0.70055  0.03806  0.90753  1.0000
  S   S496      1.0  0.73798  0.04391  0.88765  1.0000
  H   H2827     1.0  0.71496  0.12458  0.96853  1.0000
  H   H2828     1.0  0.96798  0.28256  0.92840  1.0000
  H   H2829     1.0  0.94762  0.28784  0.91154  1.0000
  C   C1648     1.0  0.74113  0.02552  0.96427  1.0000
  C   C1649     1.0  0.74203  0.03104  0.94718  1.0000
  C   C1650     1.0  0.75023  0.04395  0.93858  1.0000
  C   C1651     1.0  0.75766  0.05113  0.94696  1.0000
  H   H2830     1.0  0.99318  0.25270  0.86344  1.0000
  H   H2831     1.0  0.83989  0.04756  0.96095  1.0000
  H   H2832     1.0  0.75114  0.04816  0.92539  1.0000
  H   H2833     1.0  0.79703  0.06514  0.93848  1.0000
  H   H2834     1.0  0.65832  0.05897  0.85102  1.0000
  S   S497      1.0  0.54220  0.04324  0.73856  1.0000
  H   H2835     1.0  0.97261  0.21493  0.94573  1.0000
  H   H2836     1.0  0.66073  0.05467  0.95453  1.0000
  H   H2837     1.0  0.69907  0.11906  0.94010  1.0000
  H   H2838     1.0  0.79624  0.03605  0.95806  1.0000
  C   C1652     1.0  0.93100  0.24306  0.82617  1.0000
  H   H2839     1.0  0.98968  0.24775  0.90378  1.0000
  H   H2840     1.0  0.63916  0.06963  0.83279  1.0000
  C   C1653     1.0  0.78669  0.09219  0.90065  1.0000
  C   C1654     1.0  0.78167  0.07718  0.90308  1.0000
  C   C1655     1.0  0.76818  0.07668  0.89679  1.0000
  C   C1656     1.0  0.75991  0.09111  0.88766  1.0000
  C   C1657     1.0  0.76521  0.10599  0.88487  1.0000
  C   C1658     1.0  0.77838  0.10660  0.89153  1.0000
  H   H2841     1.0  0.78805  0.06596  0.91007  1.0000
  H   H2842     1.0  0.76427  0.06512  0.89888  1.0000
  H   H2843     1.0  0.75894  0.11718  0.87772  1.0000
  H   H2844     1.0  0.78221  0.11819  0.88947  1.0000
  C   C1659     1.0  0.67067  0.12827  0.92655  1.0000
  C   C1660     1.0  0.68119  0.12142  0.91339  1.0000
  C   C1661     1.0  0.68120  0.10533  0.91235  1.0000
  C   C1662     1.0  0.67024  0.09633  0.92414  1.0000
  C   C1663     1.0  0.65960  0.10325  0.93721  1.0000
  C   C1664     1.0  0.66004  0.11908  0.93859  1.0000
  H   H2845     1.0  0.68948  0.12847  0.90411  1.0000
  H   H2846     1.0  0.68945  0.10005  0.90224  1.0000
  H   H2847     1.0  0.65106  0.09635  0.94629  1.0000
  H   H2848     1.0  0.65193  0.12431  0.94880  1.0000
  C   C1665     1.0  0.71715  0.16022  0.96763  1.0000
  C   C1666     1.0  0.71274  0.16592  0.95221  1.0000
  C   C1667     1.0  0.72497  0.16800  0.93772  1.0000
  C   C1668     1.0  0.74181  0.16360  0.93842  1.0000
  C   C1669     1.0  0.74637  0.15746  0.95380  1.0000
  C   C1670     1.0  0.73402  0.15607  0.96842  1.0000
  H   H2849     1.0  0.69988  0.16890  0.95134  1.0000
  H   H2850     1.0  0.72137  0.17264  0.92587  1.0000
  H   H2851     1.0  0.75938  0.15393  0.95444  1.0000
  H   H2852     1.0  0.70561  0.03877  0.96222  1.0000
  C   C1671     1.0  0.87863  0.16925  0.91721  1.0000
  C   C1672     1.0  0.87287  0.15438  0.92264  1.0000
  C   C1673     1.0  0.86044  0.15199  0.91600  1.0000
  C   C1674     1.0  0.85362  0.16452  0.90396  1.0000
  C   C1675     1.0  0.85926  0.17943  0.89868  1.0000
  C   C1676     1.0  0.87165  0.18183  0.90531  1.0000
  H   H2853     1.0  0.87811  0.14465  0.93194  1.0000
  H   H2854     1.0  0.85629  0.14038  0.92005  1.0000
  H   H2855     1.0  0.85396  0.18921  0.88945  1.0000
  H   H2856     1.0  0.87570  0.19346  0.90128  1.0000
  C   C1677     1.0  0.91838  0.26700  0.89087  1.0000
  C   C1678     1.0  0.93215  0.26338  0.87824  1.0000
  C   C1679     1.0  0.93920  0.27615  0.86697  1.0000
  C   C1680     1.0  0.93249  0.29263  0.86827  1.0000
  C   C1681     1.0  0.91892  0.29626  0.88105  1.0000
  C   C1682     1.0  0.91188  0.28349  0.89229  1.0000
  H   H2857     1.0  0.93757  0.25079  0.87722  1.0000
  H   H2858     1.0  0.94988  0.27321  0.85738  1.0000
  H   H2859     1.0  0.53740  0.02030  0.77011  1.0000
  H   H2860     1.0  0.90130  0.28642  0.90206  1.0000
  C   C1683     1.0  0.94057  0.18999  0.84230  1.0000
  C   C1684     1.0  0.94015  0.18207  0.83014  1.0000
  C   C1685     1.0  0.95492  0.18635  0.84868  1.0000
  H   H2861     1.0  0.92933  0.18524  0.82474  1.0000
  H   H2862     1.0  0.95539  0.19258  0.85794  1.0000
  H   H2863     1.0  0.70799  0.03770  0.82505  1.0000
  C   C1686     1.0  0.96773  0.16557  0.83205  1.0000
  H   H2864     1.0  0.84104  0.08561  0.92026  1.0000
  C   C1687     1.0  0.75651  0.04581  0.96409  1.0000
  C   C1688     1.0  0.97231  0.20360  0.92614  1.0000
  C   C1689     1.0  0.99260  0.26714  0.92557  1.0000
  H   H2865     1.0  0.74461  0.04672  0.85138  1.0000
  H   H2866     1.0  0.95937  0.20277  0.93048  1.0000
  C   C1690     1.0  0.91470  0.28861  0.83073  1.0000
  H   H2867     1.0  0.91377  0.30899  0.88220  1.0000
  H   H2868     1.0  0.95985  0.29271  0.88110  1.0000
  C   C1691     1.0  0.69304  0.01568  0.86279  1.0000
  C   C1692     1.0  0.70127  0.02733  0.85110  1.0000
  C   C1693     1.0  0.70161  0.02882  0.83425  1.0000
  C   C1694     1.0  0.69400  0.01876  0.82912  1.0000
  H   H2869     1.0  0.76532  0.04409  0.85483  1.0000
  C   C1695     1.0  0.63402  0.02665  0.73751  1.0000
  H   H2870     1.0  0.84298  0.02168  0.94463  1.0000
  C   C1696     1.0  0.59016  0.01838  0.76013  1.0000
  C   C1697     1.0  0.58886  0.03490  0.76062  1.0000
  C   C1698     1.0  0.59558  0.03853  0.77226  1.0000
  C   C1699     1.0  0.60345  0.02564  0.78336  1.0000
  C   C1700     1.0  0.60371  0.00923  0.78347  1.0000
  C   C1701     1.0  0.59729  0.00558  0.77175  1.0000
  H   H2871     1.0  0.55143  0.00110  0.81255  1.0000
  H   H2872     1.0  0.75453  0.05755  0.82110  1.0000
  H   H2873     1.0  0.60918  0.99928  0.79242  1.0000
  H   H2874     1.0  0.95935  0.14532  0.86632  1.0000
  H   H2875     1.0  0.95703  0.23927  0.90515  1.0000
  H   H2876     1.0  0.89371  0.27077  0.82839  1.0000
  N   N116      1.0  0.73292  0.11223  0.93283  1.0000
  C   C1702     1.0  0.72938  0.12104  0.91593  1.0000
  C   C1703     1.0  0.72225  0.09943  0.93954  1.0000
  C   C1704     1.0  0.75095  0.10348  0.93032  1.0000
  C   C1705     1.0  0.72936  0.12479  0.94340  1.0000
  C   C1706     1.0  0.73713  0.13637  0.90728  1.0000
  C   C1707     1.0  0.70364  0.10613  0.94615  1.0000
  C   C1708     1.0  0.75803  0.09493  0.94595  1.0000
  C   C1709     1.0  0.72718  0.11823  0.96231  1.0000
  H   H2877     1.0  0.73346  0.11231  0.90733  1.0000
  H   H2878     1.0  0.71580  0.12551  0.91647  1.0000
  H   H2879     1.0  0.72677  0.08958  0.94959  1.0000
  H   H2880     1.0  0.72313  0.09255  0.92985  1.0000
  H   H2881     1.0  0.75310  0.09387  0.92300  1.0000
  H   H2882     1.0  0.75917  0.11216  0.92309  1.0000
  H   H2883     1.0  0.73948  0.13186  0.93947  1.0000
  H   H2884     1.0  0.71788  0.13425  0.94127  1.0000
  H   H2885     1.0  0.73162  0.14667  0.91392  1.0000
  H   H2886     1.0  0.75082  0.13373  0.90557  1.0000
  H   H2887     1.0  0.73428  0.14099  0.89474  1.0000
  H   H2888     1.0  0.82869  0.17110  0.97975  1.0000
  H   H2889     1.0  0.70119  0.10547  0.95963  1.0000
  C   C1710     1.0  0.91186  0.25034  0.85106  1.0000
  H   H2890     1.0  0.75102  0.08580  0.95454  1.0000
  H   H2891     1.0  0.75894  0.10404  0.95256  1.0000
  H   H2892     1.0  0.77093  0.08803  0.94216  1.0000
  C   C1711     1.0  0.90889  0.26687  0.80496  1.0000
  H   H2893     1.0  0.89415  0.25509  0.87344  1.0000
  H   H2894     1.0  0.59530  0.05126  0.77218  1.0000
  N   N117      1.0  0.90189  0.15759  0.86175  1.0000
  C   C1712     1.0  0.90714  0.16209  0.87522  1.0000
  C   C1713     1.0  0.89615  0.17358  0.85021  1.0000
  C   C1714     1.0  0.91702  0.14712  0.85280  1.0000
  C   C1715     1.0  0.88828  0.14800  0.86978  1.0000
  C   C1716     1.0  0.91422  0.14741  0.88814  1.0000
  C   C1717     1.0  0.88054  0.18537  0.85762  1.0000
  C   C1718     1.0  0.91709  0.14632  0.83503  1.0000
  C   C1719     1.0  0.87899  0.14438  0.85839  1.0000
  H   H2895     1.0  0.91667  0.16989  0.86978  1.0000
  H   H2896     1.0  0.89658  0.16974  0.88237  1.0000
  H   H2897     1.0  0.89350  0.17148  0.83906  1.0000
  H   H2898     1.0  0.90623  0.18065  0.84532  1.0000
  H   H2899     1.0  0.92848  0.15166  0.85174  1.0000
  H   H2900     1.0  0.91919  0.13411  0.85994  1.0000
  H   H2901     1.0  0.89327  0.13568  0.87704  1.0000
  H   H2902     1.0  0.87884  0.15403  0.87928  1.0000
  H   H2903     1.0  0.91770  0.15235  0.89720  1.0000
  H   H2904     1.0  0.90480  0.14002  0.89545  1.0000
  H   H2905     1.0  0.92560  0.13934  0.88250  1.0000
  H   H2906     1.0  0.88296  0.19081  0.86691  1.0000
  H   H2907     1.0  0.87691  0.19595  0.84761  1.0000
  H   H2908     1.0  0.86976  0.17927  0.86296  1.0000
  H   H2909     1.0  0.90584  0.14286  0.83406  1.0000
  H   H2910     1.0  0.92797  0.13678  0.83082  1.0000
  H   H2911     1.0  0.91870  0.15823  0.82630  1.0000
  H   H2912     1.0  0.88514  0.13240  0.85463  1.0000
  H   H2913     1.0  0.87740  0.15424  0.84730  1.0000
  H   H2914     1.0  0.86608  0.14360  0.86525  1.0000
  N   N118      1.0  0.82658  0.18040  0.95416  1.0000
  C   C1720     1.0  0.82862  0.16312  0.95157  1.0000
  C   C1721     1.0  0.81388  0.19154  0.94448  1.0000
  S   S498      1.0  0.68127  0.00087  0.74765  1.0000
  C   C1722     1.0  0.84331  0.18520  0.94853  1.0000
  C   C1723     1.0  0.65243  0.21592  0.98008  1.0000
  C   C1724     1.0  0.81930  0.19405  0.92547  1.0000
  H   H2915     1.0  0.98920  0.13988  0.86216  1.0000
  H   H2916     1.0  0.97413  0.27510  0.87350  1.0000
  H   H2917     1.0  0.81643  0.15923  0.95552  1.0000
  H   H2918     1.0  0.83292  0.16269  0.93829  1.0000
  H   H2919     1.0  0.80984  0.20407  0.94723  1.0000
  H   H2920     1.0  0.80220  0.18668  0.94821  1.0000
  H   H2921     1.0  0.73756  0.15144  0.98030  1.0000
  H   H2922     1.0  0.81524  0.05595  0.92648  1.0000
  H   H2923     1.0  0.83963  0.03994  0.92900  1.0000
  H   H2924     1.0  0.85005  0.18086  0.93698  1.0000
  H   H2925     1.0  0.97960  0.17141  0.84843  1.0000
  H   H2926     1.0  0.97355  0.24254  0.92071  1.0000
  H   H2927     1.0  0.96347  0.15827  0.87724  1.0000
  H   H2928     1.0  0.82060  0.18265  0.92104  1.0000
  H   H2929     1.0  0.80952  0.20345  0.91978  1.0000
  H   H2930     1.0  0.83100  0.19864  0.92055  1.0000
  S   S499      1.0  0.64392  0.99147  0.77969  1.0000
  C   C1725     1.0  0.78297  0.10997  0.98152  1.0000
  H   H2931     1.0  0.85129  0.17865  0.95767  1.0000
  C   C1726     1.0  0.81987  0.17990  0.97237  1.0000
  H   H2932     1.0  0.81479  0.08456  0.93912  1.0000
  C   C1727     1.0  0.84358  0.20386  0.94502  1.0000
  C   C1728     1.0  0.97597  0.25074  0.90829  1.0000
  C   C1729     1.0  0.98173  0.19732  0.91226  1.0000
  H   H2933     1.0  0.56717  0.18150  0.98008  1.0000
  H   H2934     1.0  0.63777  0.23323  0.96322  1.0000
  C   C1730     1.0  0.79042  0.12209  0.98299  1.0000
  H   H2935     1.0  0.85614  0.03616  0.93964  1.0000
  H   H2936     1.0  0.66390  0.05517  0.79098  1.0000
  H   H2937     1.0  0.58331  0.04482  0.75166  1.0000
  H   H2938     1.0  0.82346  0.05880  0.98192  1.0000
  H   H2939     1.0  0.90147  0.28870  0.83634  1.0000
  H   H2940     1.0  0.65672  0.03804  0.85400  1.0000
  H   H2941     1.0  0.66820  0.03938  0.80838  1.0000
  C   C1731     1.0  0.65642  0.04994  0.84482  1.0000
  H   H2942     1.0  0.83461  0.06937  0.91617  1.0000
  C   C1732     1.0  0.83847  0.07302  0.92580  1.0000
  H   H2943     1.0  0.93505  0.27266  0.81808  1.0000
  Fe  Fe248     1.0  0.66776  0.99397  0.81189  1.0000
  H   H2944     1.0  0.98040  0.29394  0.87045  1.0000
  H   H2945     1.0  0.89839  0.25007  0.82638  1.0000
  H   H2946     1.0  0.91615  0.25641  0.79895  1.0000
  H   H2947     1.0  0.85041  0.06497  0.92830  1.0000
  C   C1733     1.0  0.55531  0.99741  0.80040  1.0000
  H   H2948     1.0  0.93411  0.26882  0.83950  1.0000
  S   S500      1.0  0.98343  0.14855  0.82752  1.0000
  H   H2949     1.0  0.63363  0.02639  0.86002  1.0000
  C   C1734     1.0  0.84307  0.03513  0.94119  1.0000
  S   S501      1.0  0.94108  0.30889  0.85443  1.0000
  H   H2950     1.0  0.83139  0.21220  0.94782  1.0000
  H   H2951     1.0  0.98427  0.22995  0.86317  1.0000
  H   H2952     1.0  0.66722  0.04835  0.83449  1.0000
  H   H2953     1.0  0.83116  0.07718  0.95009  1.0000
  C   C1735     1.0  0.67443  0.03793  0.97322  1.0000
  H   H2954     1.0  0.52660  0.01904  0.79162  1.0000
  C   C1736     1.0  0.94058  0.26521  0.92654  1.0000
  H   H2955     1.0  0.99233  0.12368  0.91322  1.0000
  H   H2956     1.0  0.78054  0.07258  0.79991  1.0000
  H   H2957     1.0  0.51470  0.99660  0.79138  1.0000
  N   N119      1.0  0.63564  0.04692  0.82875  1.0000
  C   C1737     1.0  0.61699  0.04918  0.83155  1.0000
  C   C1738     1.0  0.64268  0.02858  0.83295  1.0000
  C   C1739     1.0  0.63959  0.05645  0.83928  1.0000
  H   H2958     1.0  0.69605  0.09834  0.94420  1.0000
  H   H2959     1.0  0.61372  0.04105  0.82518  1.0000
  H   H2960     1.0  0.61148  0.04533  0.84491  1.0000
  H   H2961     1.0  0.64092  0.02233  0.82388  1.0000
  H   H2962     1.0  0.95719  0.13546  0.91707  1.0000
  H   H2963     1.0  0.62997  0.05694  0.85091  1.0000
  C   C1740     1.0  0.97907  0.27992  0.89571  1.0000
  H   H2964     1.0  0.95626  0.13933  0.88816  1.0000
  H   H2965     1.0  0.72791  0.10475  0.96652  1.0000
  H   H2966     1.0  0.66505  0.06115  0.80890  1.0000
  C   C1741     1.0  0.65259  0.06890  0.98317  1.0000
  C   C1742     1.0  0.77821  0.08405  0.80463  1.0000
  H   H2967     1.0  0.73490  0.01547  0.97098  1.0000
  H   H2968     1.0  0.62300  0.01693  0.85050  1.0000
  H   H2969     1.0  0.69470  0.01989  0.81611  1.0000
  H   H2970     1.0  0.90234  0.27261  0.86173  1.0000
  H   H2971     1.0  0.82609  0.03412  0.96487  1.0000
  C   C1743     1.0  0.90408  0.26106  0.82390  1.0000
  H   H2972     1.0  0.57328  0.20123  0.97569  1.0000
  H   H2973     1.0  0.61115  0.07624  0.83031  1.0000
  H   H2974     1.0  0.80725  0.20622  0.97227  1.0000
  H   H2975     1.0  0.67606  0.07535  0.98061  1.0000
  H   H2976     1.0  0.76433  0.06079  0.94009  1.0000
  H   H2977     1.0  0.60876  0.07033  0.81232  1.0000
  N   N120      1.0  0.81817  0.05845  0.95028  1.0000
  H   H2978     1.0  0.68002  0.04182  0.94597  1.0000
  H   H2979     1.0  0.92515  0.23285  0.82618  1.0000
  H   H2980     1.0  0.95291  0.16286  0.81653  1.0000
  H   H2981     1.0  0.66226  0.03312  0.95616  1.0000
  C   C1744     1.0  0.68738  0.20540  0.96127  1.0000
  C   C1745     1.0  0.97392  0.27007  0.92559  1.0000
  H   H2982     1.0  0.93682  0.24739  0.81300  1.0000
  H   H2983     1.0  0.91568  0.29648  0.81807  1.0000
  C   C1746     1.0  0.67132  0.06754  0.97516  1.0000
  C   C1747     1.0  0.95144  0.27438  0.91130  1.0000
  C   C1748     1.0  0.74813  0.03305  0.97276  1.0000
  H   H2984     1.0  0.59387  0.06759  0.83122  1.0000
  H   H2985     1.0  0.67194  0.07398  0.96194  1.0000
  H   H2986     1.0  0.95181  0.24452  0.83628  1.0000
  H   H2987     1.0  0.64354  0.00722  0.85354  1.0000
  H   H2988     1.0  0.71615  0.05478  0.97548  1.0000
  C   C1749     1.0  0.97983  0.21040  0.93479  1.0000
  H   H2989     1.0  0.92204  0.24696  0.85792  1.0000
  H   H2990     1.0  0.84936  0.20811  0.93183  1.0000
  H   H2991     1.0  0.79423  0.03844  0.93738  1.0000
  C   C1750     1.0  0.95353  0.16952  0.82539  1.0000
  H   H2992     1.0  0.94156  0.22754  0.84743  1.0000
  H   H2993     1.0  0.94757  0.27331  0.90033  1.0000
  H   H2994     1.0  0.81442  0.08031  0.97384  1.0000
  H   H2995     1.0  0.97678  0.23418  0.89264  1.0000
  H   H2996     1.0  0.65629  0.02597  0.83187  1.0000
  S   S502      1.0  0.67706  0.99311  0.83505  1.0000
  H   H2997     1.0  0.68978  0.19194  0.96652  1.0000
  C   C1751     1.0  0.96782  0.24467  0.89752  1.0000
  C   C1752     1.0  0.64198  0.05333  0.81059  1.0000
  C   C1753     1.0  0.68611  0.00685  0.84079  1.0000
  H   H2998     1.0  0.76144  0.03245  0.84225  1.0000
  C   C1754     1.0  0.76078  0.08716  0.81594  1.0000
  C   C1755     1.0  0.80578  0.06207  0.96582  1.0000
  C   C1756     1.0  0.76175  0.05813  0.82994  1.0000
  N   N121      1.0  0.91811  0.25690  0.83292  1.0000
  C   C1757     1.0  0.68270  0.21546  0.97490  1.0000
  H   H2999     1.0  0.96413  0.25400  0.88685  1.0000
  N   N122      1.0  0.96998  0.26862  0.90991  1.0000
  C   C1758     1.0  0.74124  0.08063  0.84222  1.0000
  C   C1759     1.0  0.77077  0.07613  0.84234  1.0000
  C   C1760     1.0  0.72699  0.07950  0.83487  1.0000
  C   C1761     1.0  0.77255  0.09360  0.84250  1.0000
  H   H3000     1.0  0.73884  0.09365  0.84364  1.0000
  H   H3001     1.0  0.76716  0.06990  0.85554  1.0000
  H   H3002     1.0  0.72795  0.06688  0.83314  1.0000
  H   H3003     1.0  0.72606  0.08862  0.82310  1.0000
  H   H3004     1.0  0.71501  0.08252  0.84363  1.0000
  H   H3005     1.0  0.77915  0.09972  0.83040  1.0000
  H   H3006     1.0  0.78006  0.09245  0.85170  1.0000
  H   H3007     1.0  0.76043  0.10181  0.84622  1.0000
  H   H3008     1.0  0.84248  0.13773  0.95602  1.0000
  H   H3009     1.0  0.97849  0.11729  0.90525  1.0000
  H   H3010     1.0  0.69501  0.05707  0.95073  1.0000
  H   H3011     1.0  0.91908  0.29504  0.83794  1.0000
  H   H3012     1.0  0.99411  0.26619  0.93828  1.0000
  C   C1762     1.0  0.96442  0.14518  0.87703  1.0000
  H   H3013     1.0  0.78838  0.10323  0.97168  1.0000
  C   C1763     1.0  0.98244  0.13511  0.87488  1.0000
  H   H3014     1.0  0.63652  0.06671  0.80679  1.0000
  N   N123      1.0  0.68227  0.05040  0.97632  1.0000
  C   C1764     1.0  0.60736  0.06696  0.82597  1.0000
  C   C1765     1.0  0.66089  0.05201  0.80472  1.0000
  S   S503      1.0  0.97851  0.27828  0.83157  1.0000
  H   H3015     1.0  0.59822  0.99279  0.77151  1.0000
  H   H3016     1.0  0.71917  0.06323  0.95386  1.0000
  H   H3017     1.0  0.90741  0.23872  0.85282  1.0000
  H   H3018     1.0  0.98432  0.16151  0.88493  1.0000
  S   S504      1.0  0.67733  0.13324  0.97252  1.0000
  H   H3019     1.0  0.88657  0.26623  0.85535  1.0000
  C   C1766     1.0  0.94556  0.23518  0.83516  1.0000
  H   H3020     1.0  0.77887  0.09446  0.79367  1.0000
  H   H3021     1.0  0.79489  0.07199  0.96272  1.0000
  H   H3022     1.0  0.62207  0.02251  0.74164  1.0000
  H   H3023     1.0  0.63804  0.04688  0.80299  1.0000
  H   H3024     1.0  0.97449  0.22183  0.80490  1.0000
  H   H3025     1.0  0.94045  0.26904  0.93796  1.0000
  C   C1767     1.0  0.82509  0.07380  0.94186  1.0000
  C   C1768     1.0  0.75803  0.04477  0.84563  1.0000
  H   H3026     1.0  0.58792  0.18233  0.98000  1.0000
  H   H3027     1.0  0.77501  0.05395  0.82411  1.0000
  C   C1769     1.0  0.70950  0.06149  0.96535  1.0000
  H   H3028     1.0  0.78345  0.06905  0.83793  1.0000
  H   H3029     1.0  0.69270  0.01429  0.87578  1.0000
  C   C1770     1.0  0.96867  0.14056  0.91317  1.0000
  H   H3030     1.0  0.73672  0.12139  0.96694  1.0000
  H   H3031     1.0  0.92753  0.26850  0.92486  1.0000
  C   C1771     1.0  0.96867  0.17441  0.84324  1.0000
  C   C1772     1.0  0.97279  0.28544  0.87944  1.0000
  Fe  Fe249     1.0  0.97223  0.28030  0.80728  1.0000
  N   N124      1.0  0.75865  0.07551  0.83258  1.0000
  C   C1773     1.0  0.80844  0.05522  0.93946  1.0000
  H   H3032     1.0  0.65364  0.20617  0.97320  1.0000
  Fe  Fe250     1.0  0.67800  0.15584  0.98046  1.0000
  H   H3033     1.0  0.81352  0.02793  0.94309  1.0000
  H   H3034     1.0  0.95493  0.22654  0.82805  1.0000
  H   H3035     1.0  0.96875  0.26104  0.93646  1.0000
  H   H3036     1.0  0.94459  0.25156  0.92827  1.0000
  C   C1774     1.0  0.66915  0.04235  0.95647  1.0000
  H   H3037     1.0  0.96562  0.15306  0.90548  1.0000
  S   S505      1.0  0.96871  0.25715  0.80219  1.0000
  H   H3038     1.0  0.91600  0.27686  0.80128  1.0000
  C   C1775     1.0  0.83163  0.04383  0.95511  1.0000
  H   H3039     1.0  0.89741  0.27182  0.79991  1.0000
  C   C1776     1.0  0.64873  0.23280  0.96817  1.0000
  C   C1777     1.0  0.98334  0.12828  0.90483  1.0000
  H   H3040     1.0  0.85349  0.15198  0.95774  1.0000
  S   S506      1.0  0.99196  0.29409  0.79214  1.0000
  H   H3041     1.0  0.85165  0.20574  0.95235  1.0000
  Fe  Fe251     1.0  0.64166  0.17107  0.97979  1.0000
  Fe  Fe252     1.0  0.97268  0.31708  0.79617  1.0000
  H   H3042     1.0  0.66328  0.03558  0.98280  1.0000
  C   C1778     1.0  0.99564  0.15163  0.88508  1.0000
  H   H3043     1.0  0.68176  0.22879  0.96881  1.0000
  H   H3044     1.0  0.67778  0.20858  0.95375  1.0000
  H   H3045     1.0  0.97651  0.24431  0.84646  1.0000
  H   H3046     1.0  0.80061  0.05099  0.97286  1.0000
  H   H3047     1.0  0.97130  0.14214  0.92461  1.0000
  H   H3048     1.0  0.69367  0.21218  0.98075  1.0000
  C   C1779     1.0  0.52662  0.01665  0.77953  1.0000
  H   H3049     1.0  0.97964  0.22281  0.84744  1.0000
  S   S507      1.0  0.76640  0.05481  0.97411  1.0000
  C   C1780     1.0  0.98717  0.24201  0.79928  1.0000
  C   C1781     1.0  0.98501  0.23227  0.84977  1.0000
  H   H3050     1.0  0.65910  0.23458  0.95735  1.0000
  H   H3051     1.0  0.97848  0.29169  0.89933  1.0000
  H   H3052     1.0  0.69910  0.20810  0.95270  1.0000
  H   H3053     1.0  0.98121  0.12249  0.87499  1.0000
  H   H3054     1.0  0.52215  0.99792  0.76970  1.0000
  H   H3055     1.0  0.51535  0.02497  0.77547  1.0000
  S   S508      1.0  0.64169  0.98924  0.81891  1.0000
  H   H3056     1.0  0.64078  0.02123  0.74779  1.0000
  H   H3057     1.0  0.68317  0.02561  0.97396  1.0000
  C   C1782     1.0  0.57463  0.18851  0.98336  1.0000
  C   C1783     1.0  0.98639  0.22534  0.80178  1.0000
  S   S509      1.0  0.62261  0.19434  0.98361  1.0000
  H   H3058     1.0  0.80808  0.17521  0.97650  1.0000
  H   H3059     1.0  0.55411  0.00897  0.79091  1.0000
  H   H3060     1.0  0.55879  0.99997  0.76844  1.0000
  H   H3061     1.0  0.64535  0.24331  0.97451  1.0000
  H   H3062     1.0  0.64507  0.07350  0.97346  1.0000
  N   N125      1.0  0.99213  0.13469  0.88744  1.0000
  H   H3063     1.0  0.63176  0.04028  0.73589  1.0000
  H   H3064     1.0  0.83609  0.14620  0.97402  1.0000
  C   C1784     1.0  0.52560  0.99859  0.78116  1.0000
  H   H3065     1.0  0.56867  0.99142  0.79930  1.0000
  H   H3066     1.0  0.67964  0.99627  0.86682  1.0000
  S   S510      1.0  0.97934  0.31785  0.81952  1.0000
  C   C1785     1.0  0.81221  0.06750  0.97836  1.0000
  Fe  Fe253     1.0  0.66956  0.99581  0.77496  1.0000
  H   H3067     1.0  0.82804  0.20049  0.97667  1.0000
  H   H3068     1.0  0.55124  0.98955  0.75802  1.0000
  H   H3069     1.0  0.99641  0.15241  0.91047  1.0000
  C   C1786     1.0  0.99660  0.21160  0.92920  1.0000
  Fe  Fe254     1.0  0.72113  0.53782  0.01758  1.0000
  S   S511      1.0  0.73490  0.51287  0.02861  1.0000
  H   H3070     1.0  0.63334  0.63190  0.98958  1.0000
  Fe  Fe255     1.0  0.73643  0.55607  0.03324  1.0000
  S   S512      1.0  0.75183  0.53290  0.04562  1.0000
  S   S513      1.0  0.73541  0.58242  0.03357  1.0000
  Fe  Fe256     1.0  0.75691  0.52484  0.02164  1.0000
  S   S514      1.0  0.78201  0.51091  0.01075  1.0000
  Fe  Fe257     1.0  0.72868  0.52273  0.05177  1.0000
  S   S515      1.0  0.72321  0.50568  0.07667  1.0000
  S   S516      1.0  0.74365  0.54888  0.00880  1.0000
  S   S517      1.0  0.71275  0.54671  0.04142  1.0000
  Fe  Fe258     1.0  0.80402  0.62826  0.00176  1.0000
  S   S518      1.0  0.80581  0.60122  0.01360  1.0000
  C   C1787     1.0  0.63918  0.39471  0.21853  1.0000
  H   H3071     1.0  0.80585  0.55334  0.99436  1.0000
  H   H3072     1.0  0.76607  0.57505  0.98664  1.0000
  C   C1788     1.0  0.59601  0.63510  0.00933  1.0000
  H   H3073     1.0  0.95549  0.62515  0.15390  1.0000
  S   S519      1.0  0.56506  0.39635  0.19720  1.0000
  H   H3074     1.0  0.75742  0.49290  0.00607  1.0000
  C   C1789     1.0  0.57759  0.34886  0.19343  1.0000
  Fe  Fe259     1.0  0.55580  0.42328  0.19705  1.0000
  S   S520      1.0  0.56206  0.44352  0.17519  1.0000
  H   H3075     1.0  0.51091  0.36996  0.15099  1.0000
  Fe  Fe260     1.0  0.61854  0.50419  0.17809  1.0000
  S   S521      1.0  0.64157  0.51324  0.17580  1.0000
  S   S522      1.0  0.59297  0.51653  0.18937  1.0000
  Fe  Fe261     1.0  0.63759  0.47447  0.16289  1.0000
  S   S523      1.0  0.66218  0.48115  0.15921  1.0000
  S   S524      1.0  0.63681  0.45090  0.15659  1.0000
  Fe  Fe262     1.0  0.65244  0.48637  0.18471  1.0000
  S   S525      1.0  0.66717  0.47532  0.20465  1.0000
  Fe  Fe263     1.0  0.64876  0.50714  0.15058  1.0000
  S   S526      1.0  0.65653  0.52559  0.12740  1.0000
  S   S527      1.0  0.62872  0.47781  0.18894  1.0000
  S   S528      1.0  0.62473  0.49996  0.15234  1.0000
  C   C1790     1.0  0.65344  0.47120  0.22375  1.0000
  S   S529      1.0  0.97895  0.63032  0.18344  1.0000
  H   H3076     1.0  0.53751  0.47420  0.21798  1.0000
  H   H3077     1.0  0.99569  0.65228  0.20386  1.0000
  Fe  Fe264     1.0  0.53854  0.39352  0.20776  1.0000
  H   H3078     1.0  0.99030  0.60240  0.20814  1.0000
  C   C1791     1.0  0.87432  0.65243  0.02571  1.0000
  C   C1792     1.0  0.89241  0.64615  0.02811  1.0000
  H   H3079     1.0  0.57372  0.36128  0.21327  1.0000
  H   H3080     1.0  0.58470  0.55563  0.22850  1.0000
  H   H3081     1.0  0.75582  0.51933  0.98719  1.0000
  H   H3082     1.0  0.58451  0.49265  0.17467  1.0000
  H   H3083     1.0  0.53016  0.51980  0.21775  1.0000
  H   H3084     1.0  0.89191  0.63739  0.04020  1.0000
  C   C1793     1.0  0.69716  0.56394  0.99376  1.0000
  C   C1794     1.0  0.91941  0.65167  0.02815  1.0000
  H   H3085     1.0  0.63291  0.48984  0.21606  1.0000
  N   N126      1.0  0.63421  0.42342  0.22585  1.0000
  C   C1795     1.0  0.57285  0.49803  0.17005  1.0000
  C   C1796     1.0  0.54136  0.47606  0.20432  1.0000
  C   C1797     1.0  0.60614  0.51865  0.21451  1.0000
  C   C1798     1.0  0.51440  0.34332  0.18108  1.0000
  C   C1799     1.0  0.52432  0.35398  0.18161  1.0000
  C   C1800     1.0  0.57777  0.51492  0.22175  1.0000
  H   H3086     1.0  0.52106  0.49399  0.19316  1.0000
  H   H3087     1.0  0.70118  0.61971  0.00247  1.0000
  H   H3088     1.0  0.53555  0.35510  0.17225  1.0000
  C   C1801     1.0  0.58313  0.44463  0.16946  1.0000
  C   C1802     1.0  0.58801  0.45796  0.15720  1.0000
  C   C1803     1.0  0.60443  0.46005  0.15349  1.0000
  C   C1804     1.0  0.61623  0.44836  0.16145  1.0000
  C   C1805     1.0  0.61156  0.43466  0.17326  1.0000
  C   C1806     1.0  0.59493  0.43294  0.17749  1.0000
  H   H3089     1.0  0.57895  0.46690  0.15083  1.0000
  H   H3090     1.0  0.60801  0.47062  0.14434  1.0000
  H   H3091     1.0  0.62073  0.42551  0.17928  1.0000
  H   H3092     1.0  0.59124  0.42258  0.18691  1.0000
  H   H3093     1.0  0.54860  0.49358  0.17259  1.0000
  S   S530      1.0  0.98056  0.65290  0.10508  1.0000
  H   H3094     1.0  0.62156  0.41681  0.21026  1.0000
  C   C1807     1.0  0.59226  0.51688  0.20985  1.0000
  H   H3095     1.0  0.75046  0.48376  0.99345  1.0000
  H   H3096     1.0  0.97368  0.59382  0.11348  1.0000
  C   C1808     1.0  0.56748  0.48153  0.20621  1.0000
  C   C1809     1.0  0.57736  0.34825  0.21158  1.0000
  H   H3097     1.0  0.56703  0.51356  0.21827  1.0000
  H   H3098     1.0  0.57971  0.65227  0.99484  1.0000
  C   C1810     1.0  0.70439  0.51103  0.09044  1.0000
  C   C1811     1.0  0.70162  0.50132  0.10648  1.0000
  C   C1812     1.0  0.68696  0.50567  0.11797  1.0000
  C   C1813     1.0  0.67502  0.51974  0.11342  1.0000
  C   C1814     1.0  0.67774  0.52938  0.09735  1.0000
  C   C1815     1.0  0.69233  0.52494  0.08582  1.0000
  H   H3099     1.0  0.71096  0.49056  0.11010  1.0000
  H   H3100     1.0  0.68501  0.49829  0.13040  1.0000
  H   H3101     1.0  0.66847  0.54023  0.09378  1.0000
  H   H3102     1.0  0.69421  0.53232  0.07341  1.0000
  C   C1816     1.0  0.75503  0.58754  0.02738  1.0000
  C   C1817     1.0  0.75618  0.60411  0.02450  1.0000
  C   C1818     1.0  0.77179  0.60840  0.01987  1.0000
  C   C1819     1.0  0.78626  0.59604  0.01863  1.0000
  C   C1820     1.0  0.78512  0.57945  0.02142  1.0000
  C   C1821     1.0  0.76950  0.57522  0.02556  1.0000
  H   H3103     1.0  0.74499  0.61367  0.02584  1.0000
  H   H3104     1.0  0.77260  0.62123  0.01767  1.0000
  H   H3105     1.0  0.79632  0.56989  0.02042  1.0000
  H   H3106     1.0  0.76867  0.56240  0.02771  1.0000
  H   H3107     1.0  0.51535  0.47587  0.20656  1.0000
  H   H3108     1.0  0.83615  0.59373  0.98618  1.0000
  S   S531      1.0  0.70682  0.54282  0.99764  1.0000
  H   H3109     1.0  0.91636  0.62835  0.04655  1.0000
  C   C1822     1.0  0.68357  0.58916  0.00383  1.0000
  C   C1823     1.0  0.69135  0.57238  0.00673  1.0000
  C   C1824     1.0  0.60542  0.51860  0.23106  1.0000
  H   H3110     1.0  0.67899  0.59553  0.01401  1.0000
  H   H3111     1.0  0.69242  0.56589  0.01913  1.0000
  C   C1825     1.0  0.63695  0.47994  0.22587  1.0000
  H   H3112     1.0  0.97727  0.58387  0.14005  1.0000
  C   C1826     1.0  0.74944  0.51066  0.98480  1.0000
  C   C1827     1.0  0.54855  0.34491  0.22331  1.0000
  H   H3113     1.0  0.73647  0.51379  0.99185  1.0000
  C   C1828     1.0  0.98346  0.59890  0.11562  1.0000
  H   H3114     1.0  0.98597  0.62101  0.15168  1.0000
  H   H3115     1.0  0.66035  0.41794  0.21338  1.0000
  S   S532      1.0  0.79124  0.65038  0.01285  1.0000
  H   H3116     1.0  0.61790  0.65340  0.99818  1.0000
  H   H3117     1.0  0.58976  0.63412  0.98687  1.0000
  H   H3118     1.0  0.61641  0.44379  0.21472  1.0000
  H   H3119     1.0  0.98320  0.58328  0.16483  1.0000
  C   C1829     1.0  0.52566  0.48052  0.19697  1.0000
  H   H3120     1.0  0.58897  0.46197  0.21042  1.0000
  C   C1830     1.0  0.59263  0.56166  0.23230  1.0000
  H   H3121     1.0  0.89911  0.63825  0.01894  1.0000
  H   H3122     1.0  0.77071  0.48936  0.98705  1.0000
  H   H3123     1.0  0.57597  0.49757  0.15674  1.0000
  H   H3124     1.0  0.50630  0.35370  0.14407  1.0000
  H   H3125     1.0  0.88989  0.64872  0.06010  1.0000
  H   H3126     1.0  0.58510  0.35795  0.18539  1.0000
  H   H3127     1.0  0.52361  0.50096  0.22045  1.0000
  N   N127      1.0  0.66182  0.47216  0.10467  1.0000
  C   C1831     1.0  0.67853  0.46411  0.10918  1.0000
  C   C1832     1.0  0.66498  0.47930  0.08632  1.0000
  C   C1833     1.0  0.65209  0.45875  0.10831  1.0000
  C   C1834     1.0  0.65292  0.48510  0.11491  1.0000
  C   C1835     1.0  0.67812  0.45385  0.12697  1.0000
  C   C1836     1.0  0.67737  0.49102  0.08011  1.0000
  C   C1837     1.0  0.63446  0.46425  0.10475  1.0000
  C   C1838     1.0  0.64081  0.50025  0.10712  1.0000
  H   H3128     1.0  0.68614  0.45579  0.10065  1.0000
  H   H3129     1.0  0.68585  0.47362  0.10773  1.0000
  H   H3130     1.0  0.65333  0.48618  0.08215  1.0000
  H   H3131     1.0  0.66995  0.46918  0.07927  1.0000
  H   H3132     1.0  0.65912  0.44884  0.10137  1.0000
  H   H3133     1.0  0.65026  0.45254  0.12160  1.0000
  H   H3134     1.0  0.64581  0.47936  0.12702  1.0000
  H   H3135     1.0  0.66190  0.49033  0.11827  1.0000
  H   H3136     1.0  0.67542  0.44151  0.12828  1.0000
  H   H3137     1.0  0.69050  0.45166  0.13002  1.0000
  H   H3138     1.0  0.66888  0.46030  0.13617  1.0000
  H   H3139     1.0  0.69043  0.48395  0.07904  1.0000
  H   H3140     1.0  0.67607  0.49847  0.06759  1.0000
  H   H3141     1.0  0.67520  0.49969  0.08835  1.0000
  H   H3142     1.0  0.62596  0.47156  0.11373  1.0000
  H   H3143     1.0  0.62938  0.45305  0.10662  1.0000
  H   H3144     1.0  0.63418  0.47109  0.09188  1.0000
  H   H3145     1.0  0.64748  0.50856  0.09679  1.0000
  H   H3146     1.0  0.63415  0.50784  0.11649  1.0000
  H   H3147     1.0  0.63128  0.49687  0.10282  1.0000
  N   N128      1.0  0.73042  0.55347  0.08950  1.0000
  C   C1839     1.0  0.71485  0.55194  0.08527  1.0000
  C   C1840     1.0  0.74022  0.53609  0.09426  1.0000
  C   C1841     1.0  0.74012  0.56302  0.07423  1.0000
  C   C1842     1.0  0.72519  0.56265  0.10341  1.0000
  C   C1843     1.0  0.70392  0.56824  0.07772  1.0000
  C   C1844     1.0  0.73214  0.52531  0.11030  1.0000
  C   C1845     1.0  0.75897  0.56070  0.07282  1.0000
  C   C1846     1.0  0.73905  0.56401  0.11114  1.0000
  H   H3148     1.0  0.71807  0.54365  0.07632  1.0000
  H   H3149     1.0  0.70653  0.54614  0.09638  1.0000
  H   H3150     1.0  0.75273  0.53592  0.09587  1.0000
  H   H3151     1.0  0.74268  0.52932  0.08409  1.0000
  H   H3152     1.0  0.73908  0.55954  0.06301  1.0000
  H   H3153     1.0  0.73476  0.57658  0.07261  1.0000
  H   H3154     1.0  0.71880  0.57564  0.09914  1.0000
  H   H3155     1.0  0.71551  0.55748  0.11355  1.0000
  H   H3156     1.0  0.71053  0.57453  0.06569  1.0000
  H   H3157     1.0  0.69301  0.56527  0.07521  1.0000
  H   H3158     1.0  0.69896  0.57690  0.08628  1.0000
  H   H3159     1.0  0.74040  0.51284  0.11231  1.0000
  H   H3160     1.0  0.73055  0.53055  0.12127  1.0000
  H   H3161     1.0  0.72007  0.52331  0.10958  1.0000
  H   H3162     1.0  0.76213  0.56258  0.08376  1.0000
  H   H3163     1.0  0.76381  0.56998  0.06206  1.0000
  H   H3164     1.0  0.76571  0.54833  0.07026  1.0000
  H   H3165     1.0  0.74418  0.57520  0.10446  1.0000
  H   H3166     1.0  0.74929  0.55297  0.11169  1.0000
  H   H3167     1.0  0.73379  0.56501  0.12424  1.0000
  H   H3168     1.0  0.58000  0.58729  0.22743  1.0000
  H   H3169     1.0  0.57544  0.49077  0.20295  1.0000
  C   C1847     1.0  0.96361  0.61268  0.15376  1.0000
  H   H3170     1.0  0.80925  0.49561  0.98861  1.0000
  H   H3171     1.0  0.62404  0.61675  0.98592  1.0000
  H   H3172     1.0  0.58673  0.62738  0.01625  1.0000
  H   H3173     1.0  0.55438  0.51284  0.19679  1.0000
  H   H3174     1.0  0.54632  0.34442  0.21135  1.0000
  H   H3175     1.0  0.56510  0.35323  0.19041  1.0000
  H   H3176     1.0  0.71444  0.59999  0.00705  1.0000
  H   H3177     1.0  0.80199  0.58751  0.98567  1.0000
  H   H3178     1.0  0.65280  0.43855  0.21581  1.0000
  H   H3179     1.0  0.58375  0.33676  0.18999  1.0000
  H   H3180     1.0  0.59057  0.34395  0.21267  1.0000
  H   H3181     1.0  0.63485  0.38960  0.21016  1.0000
  H   H3182     1.0  0.65199  0.39610  0.21225  1.0000
  H   H3183     1.0  0.74863  0.61025  0.99318  1.0000
  C   C1848     1.0  0.98139  0.61463  0.14458  1.0000
  H   H3184     1.0  0.56056  0.57151  0.22193  1.0000
  H   H3185     1.0  0.73912  0.58591  0.99655  1.0000
  S   S533      1.0  0.52912  0.42110  0.20595  1.0000
  C   C1849     1.0  0.57913  0.46494  0.20320  1.0000
  H   H3186     1.0  0.94735  0.64424  0.07111  1.0000
  C   C1850     1.0  0.79132  0.51846  0.99018  1.0000
  H   H3187     1.0  0.54231  0.50088  0.22674  1.0000
  H   H3188     1.0  0.60254  0.56462  0.22129  1.0000
  Fe  Fe265     1.0  0.53476  0.41720  0.23113  1.0000
  S   S534      1.0  0.53279  0.37679  0.19368  1.0000
  H   H3189     1.0  0.91771  0.64524  0.05507  1.0000
  H   H3190     1.0  0.56181  0.32403  0.20059  1.0000
  N   N129      1.0  0.56644  0.33782  0.22466  1.0000
  C   C1851     1.0  0.50679  0.36700  0.14108  1.0000
  H   H3191     1.0  0.92604  0.64523  0.01778  1.0000
  Fe  Fe266     1.0  0.56744  0.39394  0.22320  1.0000
  C   C1852     1.0  0.75750  0.49309  0.99306  1.0000
  H   H3192     1.0  0.56362  0.47546  0.17683  1.0000
  C   C1853     1.0  0.64918  0.42808  0.21311  1.0000
  H   H3193     1.0  0.56875  0.51127  0.17082  1.0000
  H   H3194     1.0  0.63939  0.38555  0.23040  1.0000
  C   C1854     1.0  0.64724  0.43286  0.19499  1.0000
  H   H3195     1.0  0.61736  0.52024  0.20536  1.0000
  H   H3196     1.0  0.82364  0.54258  0.00277  1.0000
  C   C1855     1.0  0.62725  0.41118  0.22129  1.0000
  C   C1856     1.0  0.62093  0.43908  0.22646  1.0000
  C   C1857     1.0  0.98799  0.58944  0.13239  1.0000
  H   H3197     1.0  0.52806  0.47473  0.18616  1.0000
  S   S535      1.0  0.58973  0.37568  0.23120  1.0000
  C   C1858     1.0  0.71429  0.61284  0.99984  1.0000
  H   H3198     1.0  0.53666  0.51152  0.19087  1.0000
  H   H3199     1.0  0.65815  0.43787  0.18702  1.0000
  H   H3200     1.0  0.64688  0.42194  0.19054  1.0000
  H   H3201     1.0  0.63608  0.44254  0.19296  1.0000
  C   C1859     1.0  0.96194  0.64832  0.08607  1.0000
  H   H3202     1.0  0.62611  0.44918  0.22783  1.0000
  C   C1860     1.0  0.55911  0.48817  0.17910  1.0000
  H   H3203     1.0  0.57260  0.45449  0.20741  1.0000
  C   C1861     1.0  0.54495  0.50506  0.19972  1.0000
  C   C1862     1.0  0.51983  0.36328  0.19402  1.0000
  H   H3204     1.0  0.59491  0.64432  0.01676  1.0000
  H   H3205     1.0  0.97801  0.61224  0.11488  1.0000
  H   H3206     1.0  0.58560  0.46562  0.19010  1.0000
  N   N130      1.0  0.55322  0.48771  0.19733  1.0000
  H   H3207     1.0  0.51800  0.33640  0.17136  1.0000
  C   C1863     1.0  0.81958  0.54955  0.99111  1.0000
  C   C1864     1.0  0.59201  0.64371  0.99217  1.0000
  C   C1865     1.0  0.50530  0.36162  0.20605  1.0000
  H   H3208     1.0  0.60840  0.62680  0.00874  1.0000
  H   H3209     1.0  0.93560  0.63429  0.04350  1.0000
  H   H3210     1.0  0.51660  0.36887  0.12971  1.0000
  H   H3211     1.0  0.97023  0.63632  0.08618  1.0000
  H   H3212     1.0  0.72173  0.61883  0.00440  1.0000
  H   H3213     1.0  0.52343  0.34049  0.23272  1.0000
  H   H3214     1.0  0.82560  0.57111  0.99418  1.0000
  C   C1866     1.0  0.92203  0.63918  0.04433  1.0000
  Fe  Fe267     1.0  0.97775  0.65306  0.16266  1.0000
  H   H3215     1.0  0.61663  0.40763  0.23113  1.0000
  H   H3216     1.0  0.95812  0.60628  0.14753  1.0000
  H   H3217     1.0  0.54762  0.46339  0.20230  1.0000
  S   S536      1.0  0.82706  0.63818  0.98924  1.0000
  C   C1867     1.0  0.53473  0.50651  0.21721  1.0000
  S   S537      1.0  0.56080  0.42130  0.22198  1.0000
  H   H3218     1.0  0.56281  0.47993  0.21980  1.0000
  H   H3219     1.0  0.96316  0.60629  0.16689  1.0000
  H   H3220     1.0  0.86797  0.64182  0.02934  1.0000
  C   C1868     1.0  0.68187  0.59776  0.98786  1.0000
  H   H3221     1.0  0.50162  0.36866  0.21568  1.0000
  S   S538      1.0  0.67249  0.61893  0.98488  1.0000
  H   H3222     1.0  0.98021  0.62379  0.13290  1.0000
  C   C1869     1.0  0.94902  0.65283  0.07749  1.0000
  H   H3223     1.0  0.53980  0.57009  0.23248  1.0000
  C   C1870     1.0  0.49970  0.34190  0.19292  1.0000
  H   H3224     1.0  0.77576  0.54279  0.98815  1.0000
  H   H3225     1.0  0.54529  0.35834  0.22350  1.0000
  C   C1871     1.0  0.82815  0.56452  0.98389  1.0000
  H   H3226     1.0  0.99636  0.59503  0.16710  1.0000
  C   C1872     1.0  0.99487  0.58787  0.15871  1.0000
  N   N131      1.0  0.99362  0.59877  0.14184  1.0000
  H   H3227     1.0  0.99445  0.59738  0.10532  1.0000
  Fe  Fe268     1.0  0.53188  0.53734  0.29151  1.0000
  S   S539      1.0  0.55401  0.52258  0.30206  1.0000
  S   S540      1.0  0.52069  0.56421  0.29316  1.0000
  Fe  Fe269     1.0  0.53124  0.50886  0.27557  1.0000
  S   S541      1.0  0.55345  0.49233  0.28482  1.0000
  S   S542      1.0  0.51814  0.50148  0.25968  1.0000
  Fe  Fe270     1.0  0.54119  0.50126  0.30841  1.0000
  S   S543      1.0  0.53721  0.48508  0.33379  1.0000
  Fe  Fe271     1.0  0.56370  0.51541  0.27745  1.0000
  S   S544      1.0  0.51811  0.51646  0.29969  1.0000
  S   S545      1.0  0.54237  0.53152  0.26640  1.0000
  H   H3228     1.0  0.50724  0.60272  0.32746  1.0000
  H   H3229     1.0  0.60573  0.43519  0.35437  1.0000
  H   H3230     1.0  0.98027  0.32888  0.33752  1.0000
  Fe  Fe272     1.0  0.62348  0.43522  0.28996  1.0000
  S   S546      1.0  0.60587  0.41815  0.29640  1.0000
  S   S547      1.0  0.61597  0.45813  0.27151  1.0000
  Fe  Fe273     1.0  0.64523  0.41320  0.31354  1.0000
  S   S548      1.0  0.62969  0.39382  0.32142  1.0000
  S   S549      1.0  0.66775  0.40864  0.32473  1.0000
  Fe  Fe274     1.0  0.62878  0.39834  0.29459  1.0000
  S   S550      1.0  0.63195  0.37807  0.28108  1.0000
  Fe  Fe275     1.0  0.60821  0.41544  0.32235  1.0000
  S   S551      1.0  0.58641  0.41554  0.34360  1.0000
  S   S552      1.0  0.64658  0.41557  0.28643  1.0000
  S   S553      1.0  0.62363  0.43460  0.31627  1.0000
  Fe  Fe276     1.0  0.67964  0.42209  0.40666  1.0000
  S   S554      1.0  0.69700  0.39789  0.40403  1.0000
  S   S555      1.0  0.66713  0.43800  0.38572  1.0000
  Fe  Fe277     1.0  0.68247  0.41708  0.44277  1.0000
  S   S556      1.0  0.69938  0.39201  0.44293  1.0000
  S   S557      1.0  0.67396  0.42624  0.46662  1.0000
  Fe  Fe278     1.0  0.71207  0.40443  0.41816  1.0000
  S   S558      1.0  0.73964  0.40133  0.40884  1.0000
  Fe  Fe279     1.0  0.68248  0.38816  0.42886  1.0000
  S   S559      1.0  0.67369  0.36546  0.43017  1.0000
  S   S560      1.0  0.69614  0.42988  0.41863  1.0000
  S   S561      1.0  0.66419  0.41194  0.43100  1.0000
  H   H3231     1.0  0.63422  0.35552  0.26155  1.0000
  N   N132      1.0  0.56798  0.57677  0.25220  1.0000
  H   H3232     1.0  0.70258  0.35190  0.44735  1.0000
  H   H3233     1.0  0.58487  0.54321  0.28081  1.0000
  H   H3234     1.0  0.63174  0.42668  0.46542  1.0000
  Fe  Fe280     1.0  0.54715  0.63167  0.32033  1.0000
  H   H3235     1.0  0.78641  0.38005  0.46361  1.0000
  S   S562      1.0  0.55991  0.60686  0.31341  1.0000
  H   H3236     1.0  0.98984  0.34612  0.32707  1.0000
  H   H3237     1.0  0.52729  0.40564  0.29025  1.0000
  H   H3238     1.0  0.97867  0.32463  0.29605  1.0000
  C   C1873     1.0  0.52648  0.59850  0.35082  1.0000
  H   H3239     1.0  0.51297  0.55318  0.33221  1.0000
  H   H3240     1.0  0.55516  0.58880  0.27270  1.0000
  C   C1874     1.0  0.53546  0.33672  0.23683  1.0000
  H   H3241     1.0  0.97022  0.33754  0.27005  1.0000
  C   C1875     1.0  0.55262  0.56828  0.23436  1.0000
  C   C1876     1.0  0.83585  0.34166  0.41529  1.0000
  C   C1877     1.0  0.62564  0.47594  0.24069  1.0000
  H   H3242     1.0  0.52283  0.45837  0.32430  1.0000
  C   C1878     1.0  0.66329  0.35700  0.44976  1.0000
  H   H3243     1.0  0.66548  0.41308  0.23939  1.0000
  C   C1879     1.0  0.66347  0.36222  0.46388  1.0000
  C   C1880     1.0  0.72257  0.40885  0.35874  1.0000
  H   H3244     1.0  0.66954  0.37222  0.46270  1.0000
  C   C1881     1.0  0.75170  0.38178  0.41553  1.0000
  C   C1882     1.0  0.76690  0.37652  0.40530  1.0000
  C   C1883     1.0  0.77699  0.36110  0.41022  1.0000
  C   C1884     1.0  0.77225  0.35108  0.42568  1.0000
  C   C1885     1.0  0.75720  0.35645  0.43618  1.0000
  C   C1886     1.0  0.74673  0.37166  0.43093  1.0000
  H   H3245     1.0  0.77083  0.38431  0.39344  1.0000
  H   H3246     1.0  0.78859  0.35700  0.40209  1.0000
  H   H3247     1.0  0.75356  0.34881  0.44817  1.0000
  H   H3248     1.0  0.73510  0.37578  0.43897  1.0000
  H   H3249     1.0  0.64772  0.39181  0.40371  1.0000
  H   H3250     1.0  0.63011  0.37630  0.36157  1.0000
  C   C1887     1.0  0.71358  0.34173  0.44504  1.0000
  H   H3251     1.0  0.54636  0.45903  0.28151  1.0000
  H   H3252     1.0  0.60980  0.43640  0.37325  1.0000
  H   H3253     1.0  0.70739  0.43196  0.45251  1.0000
  H   H3254     1.0  0.73277  0.45642  0.33868  1.0000
  C   C1888     1.0  0.66669  0.41684  0.34190  1.0000
  C   C1889     1.0  0.67523  0.40711  0.35425  1.0000
  C   C1890     1.0  0.67496  0.41329  0.36796  1.0000
  C   C1891     1.0  0.66675  0.42953  0.36914  1.0000
  C   C1892     1.0  0.65828  0.43933  0.35671  1.0000
  C   C1893     1.0  0.65814  0.43298  0.34319  1.0000
  H   H3255     1.0  0.68188  0.39462  0.35331  1.0000
  H   H3256     1.0  0.68117  0.40547  0.37755  1.0000
  H   H3257     1.0  0.65185  0.45190  0.35754  1.0000
  H   H3258     1.0  0.65164  0.44063  0.33365  1.0000
  C   C1894     1.0  0.63073  0.46313  0.25345  1.0000
  C   C1895     1.0  0.56206  0.60815  0.25213  1.0000
  C   C1896     1.0  0.52129  0.46312  0.31133  1.0000
  H   H3259     1.0  0.64536  0.50299  0.24989  1.0000
  C   C1897     1.0  0.61890  0.37815  0.26810  1.0000
  C   C1898     1.0  0.60472  0.39061  0.26560  1.0000
  C   C1899     1.0  0.59529  0.39007  0.25448  1.0000
  C   C1900     1.0  0.60014  0.37712  0.24587  1.0000
  C   C1901     1.0  0.61410  0.36470  0.24865  1.0000
  C   C1902     1.0  0.62336  0.36519  0.25968  1.0000
  H   H3260     1.0  0.60112  0.40063  0.27211  1.0000
  H   H3261     1.0  0.58444  0.39968  0.25245  1.0000
  C   C1903     1.0  0.62141  0.41267  0.36520  1.0000
  H   H3262     1.0  0.56114  0.40674  0.30797  1.0000
  C   C1904     1.0  0.53148  0.57584  0.29921  1.0000
  C   C1905     1.0  0.54587  0.56837  0.30548  1.0000
  C   C1906     1.0  0.55441  0.57803  0.30984  1.0000
  C   C1907     1.0  0.54856  0.59520  0.30816  1.0000
  C   C1908     1.0  0.53410  0.60268  0.30201  1.0000
  C   C1909     1.0  0.52558  0.59302  0.29760  1.0000
  H   H3263     1.0  0.55046  0.55517  0.30697  1.0000
  H   H3264     1.0  0.56558  0.57216  0.31459  1.0000
  H   H3265     1.0  0.52961  0.61594  0.30043  1.0000
  H   H3266     1.0  0.51448  0.59892  0.29271  1.0000
  C   C1910     1.0  0.55118  0.46595  0.33633  1.0000
  C   C1911     1.0  0.56518  0.46233  0.32399  1.0000
  C   C1912     1.0  0.57614  0.44689  0.32624  1.0000
  C   C1913     1.0  0.57302  0.43500  0.34082  1.0000
  C   C1914     1.0  0.55897  0.43860  0.35313  1.0000
  C   C1915     1.0  0.54810  0.45408  0.35092  1.0000
  H   H3267     1.0  0.56756  0.47141  0.31270  1.0000
  H   H3268     1.0  0.58689  0.44416  0.31660  1.0000
  H   H3269     1.0  0.55650  0.42943  0.36438  1.0000
  H   H3270     1.0  0.53725  0.45686  0.36047  1.0000
  C   C1916     1.0  0.51919  0.48078  0.25883  1.0000
  C   C1917     1.0  0.53406  0.47058  0.25237  1.0000
  C   C1918     1.0  0.51193  0.57237  0.34497  1.0000
  N   N133      1.0  0.71346  0.32744  0.45978  1.0000
  H   H3271     1.0  0.54513  0.43763  0.32290  1.0000
  C   C1919     1.0  0.74389  0.44628  0.33852  1.0000
  H   H3272     1.0  0.98008  0.37172  0.30274  1.0000
  S   S563      1.0  0.50164  0.63808  0.36864  1.0000
  H   H3273     1.0  0.61713  0.52798  0.29734  1.0000
  H   H3274     1.0  0.73039  0.38435  0.47965  1.0000
  C   C1920     1.0  0.63924  0.38692  0.37770  1.0000
  H   H3275     1.0  0.51866  0.64764  0.39514  1.0000
  C   C1921     1.0  0.65872  0.45870  0.23671  1.0000
  H   H3276     1.0  0.73382  0.40448  0.45733  1.0000
  H   H3277     1.0  0.50241  0.60278  0.36727  1.0000
  H   H3278     1.0  0.54528  0.44738  0.24433  1.0000
  H   H3279     1.0  0.72483  0.32895  0.42418  1.0000
  H   H3280     1.0  0.99493  0.32792  0.31837  1.0000
  H   H3281     1.0  0.83190  0.33903  0.42897  1.0000
  H   H3282     1.0  0.56414  0.35276  0.24239  1.0000
  C   C1922     1.0  0.51882  0.44967  0.25334  1.0000
  C   C1923     1.0  0.57727  0.51424  0.23832  1.0000
  H   H3283     1.0  0.69851  0.43537  0.36342  1.0000
  H   H3284     1.0  0.82867  0.35422  0.41084  1.0000
  C   C1924     1.0  0.63835  0.41692  0.24281  1.0000
  H   H3285     1.0  0.74852  0.39442  0.35692  1.0000
  H   H3286     1.0  0.55969  0.33277  0.25152  1.0000
  C   C1925     1.0  0.64859  0.33576  0.46690  1.0000
  N   N134      1.0  0.62716  0.49409  0.29199  1.0000
  C   C1926     1.0  0.60895  0.49826  0.30011  1.0000
  C   C1927     1.0  0.63599  0.50457  0.29691  1.0000
  C   C1928     1.0  0.63371  0.47591  0.29841  1.0000
  C   C1929     1.0  0.62843  0.49784  0.27356  1.0000
  C   C1930     1.0  0.59802  0.48665  0.29961  1.0000
  C   C1931     1.0  0.63025  0.52349  0.29146  1.0000
  C   C1932     1.0  0.65257  0.47009  0.29782  1.0000
  H   H3287     1.0  0.51865  0.45486  0.29068  1.0000
  H   H3288     1.0  0.60746  0.49834  0.31340  1.0000
  H   H3289     1.0  0.60296  0.51092  0.29430  1.0000
  H   H3290     1.0  0.64959  0.50175  0.29200  1.0000
  H   H3291     1.0  0.63457  0.50164  0.31061  1.0000
  H   H3292     1.0  0.62777  0.47208  0.31167  1.0000
  H   H3293     1.0  0.63036  0.46819  0.29172  1.0000
  H   H3294     1.0  0.62178  0.49004  0.27029  1.0000
  H   H3295     1.0  0.62171  0.51059  0.26903  1.0000
  H   H3296     1.0  0.59798  0.48621  0.28685  1.0000
  H   H3297     1.0  0.60161  0.47387  0.30670  1.0000
  H   H3298     1.0  0.58496  0.49154  0.30538  1.0000
  H   H3299     1.0  0.63791  0.52976  0.29546  1.0000
  C   C1933     1.0  0.50419  0.45970  0.26024  1.0000
  H   H3300     1.0  0.83317  0.33398  0.39429  1.0000
  H   H3301     1.0  0.66027  0.47372  0.28545  1.0000
  H   H3302     1.0  0.65560  0.45632  0.30120  1.0000
  H   H3303     1.0  0.65626  0.47459  0.30705  1.0000
  C   C1934     1.0  0.51045  0.59269  0.36103  1.0000
  C   C1935     1.0  0.64910  0.34057  0.48107  1.0000
  H   H3304     1.0  0.65585  0.39995  0.25715  1.0000
  S   S564      1.0  0.51778  0.42986  0.25143  1.0000
  C   C1936     1.0  0.68950  0.42857  0.47546  1.0000
  C   C1937     1.0  0.62867  0.41044  0.39142  1.0000
  H   H3305     1.0  0.61793  0.35466  0.24211  1.0000
  H   H3306     1.0  0.65146  0.44497  0.26148  1.0000
  H   H3307     1.0  0.65128  0.40450  0.47468  1.0000
  C   C1938     1.0  0.54348  0.42869  0.31642  1.0000
  H   H3308     1.0  0.70963  0.44960  0.38003  1.0000
  C   C1939     1.0  0.76297  0.37069  0.47701  1.0000
  C   C1940     1.0  0.99153  0.37160  0.27722  1.0000
  H   H3309     1.0  0.54819  0.64692  0.38526  1.0000
  H   H3310     1.0  0.52429  0.60855  0.34002  1.0000
  H   H3311     1.0  0.51445  0.58249  0.37117  1.0000
  H   H3312     1.0  0.57177  0.54993  0.25803  1.0000
  C   C1941     1.0  0.98275  0.33799  0.27117  1.0000
  H   H3313     1.0  0.63922  0.37625  0.38847  1.0000
  C   C1942     1.0  0.55252  0.57979  0.24548  1.0000
  S   S565      1.0  0.51996  0.64188  0.32163  1.0000
  C   C1943     1.0  0.58298  0.55647  0.27449  1.0000
  H   H3314     1.0  0.59914  0.40396  0.39577  1.0000
  H   H3315     1.0  0.55651  0.55500  0.23973  1.0000
  H   H3316     1.0  0.61760  0.41965  0.39593  1.0000
  H   H3317     1.0  0.49937  0.57209  0.32557  1.0000
  H   H3318     1.0  0.59507  0.55892  0.26675  1.0000
  H   H3319     1.0  0.73952  0.42511  0.33222  1.0000
  N   N135      1.0  0.50098  0.58711  0.35167  1.0000
  C   C1944     1.0  0.53850  0.42574  0.28994  1.0000
  C   C1945     1.0  0.70495  0.43110  0.46571  1.0000
  H   H3320     1.0  0.51746  0.56285  0.35478  1.0000
  N   N136      1.0  0.72493  0.42615  0.35711  1.0000
  H   H3321     1.0  0.65503  0.49974  0.26652  1.0000
  H   H3322     1.0  0.64285  0.32554  0.46801  1.0000
  H   H3323     1.0  0.57676  0.58870  0.26674  1.0000
  H   H3324     1.0  0.72442  0.34750  0.44287  1.0000
  C   C1946     1.0  0.53385  0.45513  0.24941  1.0000
  H   H3325     1.0  0.75170  0.44760  0.34642  1.0000
  C   C1947     1.0  0.72328  0.44470  0.37752  1.0000
  H   H3326     1.0  0.54560  0.47481  0.24923  1.0000
  C   C1948     1.0  0.64133  0.38005  0.36220  1.0000
  H   H3327     1.0  0.63811  0.41777  0.38380  1.0000
  H   H3328     1.0  0.70940  0.45103  0.35273  1.0000
  H   H3329     1.0  0.61406  0.41837  0.47799  1.0000
  C   C1949     1.0  0.70478  0.43796  0.33693  1.0000
  H   H3330     1.0  0.74059  0.42170  0.37478  1.0000
  H   H3331     1.0  0.75084  0.44828  0.32547  1.0000
  H   H3332     1.0  0.63285  0.41729  0.35833  1.0000
  H   H3333     1.0  0.75137  0.42038  0.34726  1.0000
  H   H3334     1.0  0.55062  0.41739  0.28650  1.0000
  C   C1950     1.0  0.62682  0.41514  0.47073  1.0000
  N   N137      1.0  0.53951  0.43754  0.29979  1.0000
  C   C1951     1.0  0.72751  0.42734  0.37350  1.0000
  H   H3335     1.0  0.57396  0.42768  0.28559  1.0000
  C   C1952     1.0  0.60714  0.42794  0.36693  1.0000
  H   H3336     1.0  0.51296  0.44206  0.31040  1.0000
  C   C1953     1.0  0.60524  0.43779  0.24040  1.0000
  H   H3337     1.0  0.53155  0.60347  0.35873  1.0000
  H   H3338     1.0  0.53022  0.47119  0.30463  1.0000
  C   C1954     1.0  0.74758  0.40222  0.45386  1.0000
  H   H3339     1.0  0.65108  0.39098  0.37598  1.0000
  H   H3340     1.0  0.63763  0.42733  0.24864  1.0000
  C   C1955     1.0  0.70922  0.43802  0.35322  1.0000
  H   H3341     1.0  0.70173  0.42608  0.33715  1.0000
  H   H3342     1.0  0.68665  0.33436  0.46530  1.0000
  C   C1956     1.0  0.98363  0.33594  0.28938  1.0000
  C   C1957     1.0  0.63547  0.40014  0.40690  1.0000
  H   H3343     1.0  0.59478  0.33997  0.23732  1.0000
  H   H3344     1.0  0.75245  0.39075  0.44900  1.0000
  C   C1958     1.0  0.70479  0.34729  0.48004  1.0000
  H   H3345     1.0  0.75074  0.41266  0.44357  1.0000
  C   C1959     1.0  0.75536  0.40171  0.46835  1.0000
  H   H3346     1.0  0.73284  0.38252  0.36585  1.0000
  H   H3347     1.0  0.63754  0.40877  0.41346  1.0000
  H   H3348     1.0  0.65872  0.39542  0.23746  1.0000
  H   H3349     1.0  0.77778  0.37119  0.45165  1.0000
  S   S566      1.0  0.58965  0.51688  0.26352  1.0000
  C   C1960     1.0  0.98476  0.33626  0.32511  1.0000
  H   H3350     1.0  0.60235  0.39023  0.36916  1.0000
  C   C1961     1.0  0.98607  0.36223  0.29503  1.0000
  C   C1962     1.0  0.50431  0.47527  0.26259  1.0000
  C   C1963     1.0  0.56783  0.43973  0.27904  1.0000
  C   C1964     1.0  0.64735  0.45464  0.25156  1.0000
  H   H3351     1.0  0.73689  0.39437  0.37794  1.0000
  H   H3352     1.0  0.55840  0.40666  0.32899  1.0000
  H   H3353     1.0  0.51282  0.42169  0.29907  1.0000
  H   H3354     1.0  0.57049  0.42035  0.31393  1.0000
  C   C1965     1.0  0.73612  0.39444  0.36522  1.0000
  C   C1966     1.0  0.71337  0.33769  0.42863  1.0000
  H   H3355     1.0  0.56633  0.51178  0.24748  1.0000
  H   H3356     1.0  0.71473  0.44098  0.32604  1.0000
  C   C1967     1.0  0.58324  0.57778  0.23842  1.0000
  C   C1968     1.0  0.55935  0.41498  0.31655  1.0000
  C   C1969     1.0  0.77963  0.37051  0.46417  1.0000
  C   C1970     1.0  0.58550  0.33281  0.24543  1.0000
  H   H3357     1.0  0.65072  0.48223  0.26148  1.0000
  N   N138      1.0  0.75424  0.38680  0.48235  1.0000
  H   H3358     1.0  0.54902  0.61219  0.25043  1.0000
  H   H3359     1.0  0.61880  0.40654  0.35657  1.0000
  H   H3360     1.0  0.72193  0.40680  0.34667  1.0000
  C   C1971     1.0  0.56944  0.56033  0.26429  1.0000
  H   H3361     1.0  0.60816  0.37154  0.38404  1.0000
  H   H3362     1.0  0.53535  0.43276  0.27794  1.0000
  H   H3363     1.0  0.55634  0.45325  0.29842  1.0000
  H   H3364     1.0  0.54140  0.57906  0.25585  1.0000
  S   S567      1.0  0.78528  0.33176  0.43106  1.0000
  C   C1972     1.0  0.73997  0.42882  0.34358  1.0000
  H   H3365     1.0  0.98635  0.34935  0.26299  1.0000
  H   H3366     1.0  0.54999  0.59245  0.23774  1.0000
  H   H3367     1.0  0.59505  0.42439  0.37320  1.0000
  C   C1973     1.0  0.60194  0.38485  0.38243  1.0000
  C   C1974     1.0  0.56556  0.59004  0.26176  1.0000
  H   H3368     1.0  0.57697  0.44794  0.27476  1.0000
  H   H3369     1.0  0.56486  0.43802  0.26782  1.0000
  H   H3370     1.0  0.71965  0.42008  0.38389  1.0000
  H   H3371     1.0  0.53629  0.58815  0.34665  1.0000
  H   H3372     1.0  0.62664  0.39289  0.41578  1.0000
  H   H3373     1.0  0.64506  0.38916  0.35078  1.0000
  H   H3374     1.0  0.61211  0.38517  0.40239  1.0000
  C   C1975     1.0  0.52581  0.41453  0.29819  1.0000
  H   H3375     1.0  0.63205  0.52752  0.27783  1.0000
  H   H3376     1.0  0.74943  0.41324  0.47307  1.0000
  H   H3377     1.0  0.58847  0.38582  0.38798  1.0000
  C   C1976     1.0  0.59094  0.51639  0.24296  1.0000
  H   H3378     1.0  0.65159  0.36891  0.36223  1.0000
  H   H3379     1.0  0.56350  0.61637  0.25954  1.0000
  C   C1977     1.0  0.55209  0.44804  0.29005  1.0000
  H   H3380     1.0  0.69338  0.44763  0.33527  1.0000
  H   H3381     1.0  0.53315  0.34110  0.24848  1.0000
  N   N139      1.0  0.97483  0.35035  0.29768  1.0000
  C   C1978     1.0  0.97016  0.34373  0.31610  1.0000
  C   C1979     1.0  0.95905  0.35965  0.29187  1.0000
  H   H3382     1.0  0.72742  0.44364  0.38908  1.0000
  H   H3383     1.0  0.72881  0.43552  0.46525  1.0000
  S   S568      1.0  0.76494  0.32868  0.47930  1.0000
  C   C1980     1.0  0.94508  0.34981  0.29647  1.0000
  C   C1981     1.0  0.60932  0.39413  0.39096  1.0000
  H   H3384     1.0  0.96300  0.33380  0.31879  1.0000
  H   H3385     1.0  0.96177  0.35365  0.32242  1.0000
  H   H3386     1.0  0.76834  0.40303  0.46285  1.0000
  H   H3387     1.0  0.96139  0.36414  0.27825  1.0000
  H   H3388     1.0  0.95381  0.37107  0.29701  1.0000
  H   H3389     1.0  0.63938  0.38959  0.47880  1.0000
  H   H3390     1.0  0.52783  0.40714  0.31049  1.0000
  C   C1982     1.0  0.64597  0.49537  0.26250  1.0000
  H   H3391     1.0  0.61283  0.48264  0.24217  1.0000
  H   H3392     1.0  0.70226  0.33280  0.42957  1.0000
  H   H3393     1.0  0.71050  0.40699  0.36720  1.0000
  H   H3394     1.0  0.94975  0.33712  0.29404  1.0000
  S   S569      1.0  0.54702  0.63466  0.34562  1.0000
  H   H3395     1.0  0.75474  0.36668  0.47134  1.0000
  H   H3396     1.0  0.71274  0.34931  0.41900  1.0000
  H   H3397     1.0  0.55743  0.55950  0.27331  1.0000
  H   H3398     1.0  0.72955  0.45373  0.36782  1.0000
  H   H3399     1.0  0.62565  0.41014  0.46047  1.0000
  C   C1983     1.0  0.65579  0.34386  0.45130  1.0000
  H   H3400     1.0  0.84916  0.34231  0.41138  1.0000
  H   H3401     1.0  0.93879  0.34893  0.30969  1.0000
  N   N140      1.0  0.62449  0.40084  0.38113  1.0000
  H   H3402     1.0  0.52659  0.65304  0.40958  1.0000
  H   H3403     1.0  0.62899  0.40993  0.25129  1.0000
  H   H3404     1.0  0.70454  0.35889  0.47044  1.0000
  C   C1984     1.0  0.71712  0.43299  0.47298  1.0000
  H   H3405     1.0  0.53289  0.42353  0.32500  1.0000
  H   H3406     1.0  0.52276  0.57607  0.33546  1.0000
  C   C1985     1.0  0.52265  0.44899  0.30265  1.0000
  H   H3407     1.0  0.93548  0.35634  0.28905  1.0000
  H   H3408     1.0  0.57907  0.56367  0.28438  1.0000
  H   H3409     1.0  0.61611  0.52009  0.23461  1.0000
  H   H3410     1.0  0.67151  0.45199  0.23513  1.0000
  H   H3411     1.0  0.59270  0.58209  0.24212  1.0000
  H   H3412     1.0  0.65573  0.33979  0.44040  1.0000
  C   C1986     1.0  0.71731  0.33254  0.47364  1.0000
  Fe  Fe281     1.0  0.52024  0.64625  0.34615  1.0000
  C   C1987     1.0  0.63869  0.40208  0.48086  1.0000
  H   H3413     1.0  0.98100  0.37846  0.27118  1.0000
  S   S570      1.0  0.54168  0.38929  0.23406  1.0000
  H   H3414     1.0  0.59684  0.45022  0.23973  1.0000
  H   H3415     1.0  0.72969  0.33599  0.46979  1.0000
  C   C1988     1.0  0.65658  0.35375  0.47963  1.0000
  C   C1989     1.0  0.50362  0.56374  0.33663  1.0000
  C   C1990     1.0  0.83152  0.32919  0.40791  1.0000
  H   H3416     1.0  0.81796  0.33010  0.41267  1.0000
  C   C1991     1.0  0.65562  0.40570  0.24397  1.0000
  H   H3417     1.0  0.78815  0.35836  0.46724  1.0000
  H   H3418     1.0  0.60813  0.43413  0.25290  1.0000
  H   H3419     1.0  0.57081  0.61023  0.24003  1.0000
  H   H3420     1.0  0.50868  0.47118  0.31177  1.0000
  C   C1992     1.0  0.56806  0.33952  0.24125  1.0000
  H   H3421     1.0  0.74561  0.32633  0.44038  1.0000
  H   H3422     1.0  0.53891  0.32302  0.23932  1.0000
  H   H3423     1.0  0.58470  0.33416  0.25817  1.0000
  H   H3424     1.0  0.78153  0.40157  0.48188  1.0000
  H   H3425     1.0  0.59817  0.42924  0.23903  1.0000
  H   H3426     1.0  0.99154  0.32740  0.26627  1.0000
  H   H3427     1.0  0.59895  0.55243  0.24168  1.0000
  C   C1993     1.0  0.69655  0.32312  0.46459  1.0000
  H   H3428     1.0  0.90219  0.61407  0.68116  1.0000
  S   S571      1.0  0.92878  0.63179  0.67136  1.0000
  Fe  Fe282     1.0  0.89092  0.56885  0.64894  1.0000
  S   S572      1.0  0.86538  0.56961  0.64557  1.0000
  S   S573      1.0  0.90723  0.58742  0.63509  1.0000
  Fe  Fe283     1.0  0.89191  0.53604  0.67394  1.0000
  S   S574      1.0  0.86643  0.53390  0.67337  1.0000
  S   S575      1.0  0.90999  0.51833  0.68869  1.0000
  Fe  Fe284     1.0  0.87396  0.54235  0.64595  1.0000
  S   S576      1.0  0.86957  0.52955  0.62809  1.0000
  Fe  Fe285     1.0  0.85967  0.56118  0.67314  1.0000
  S   S577      1.0  0.83535  0.57181  0.68813  1.0000
  S   S578      1.0  0.90020  0.54229  0.64647  1.0000
  S   S579      1.0  0.88437  0.56254  0.67654  1.0000
  Fe  Fe286     1.0  0.90519  0.42864  0.71266  1.0000
  H   H3429     1.0  0.64509  0.38788  0.52045  1.0000
  S   S580      1.0  0.92111  0.44194  0.69059  1.0000
  C   C1994     1.0  0.71563  0.32422  0.59737  1.0000
  C   C1995     1.0  0.71431  0.43143  0.49015  1.0000
  S   S581      1.0  0.89338  0.40845  0.71165  1.0000
  Fe  Fe287     1.0  0.80710  0.45879  0.65275  1.0000
  S   S582      1.0  0.78243  0.45264  0.66596  1.0000
  S   S583      1.0  0.83123  0.44018  0.65294  1.0000
  Fe  Fe288     1.0  0.79225  0.49435  0.64070  1.0000
  S   S584      1.0  0.76596  0.49117  0.65249  1.0000
  S   S585      1.0  0.79955  0.51835  0.62607  1.0000
  Fe  Fe289     1.0  0.77713  0.47659  0.67443  1.0000
  S   S586      1.0  0.76400  0.47778  0.70098  1.0000
  Fe  Fe290     1.0  0.77337  0.46745  0.64285  1.0000
  S   S587      1.0  0.75712  0.45427  0.63514  1.0000
  S   S588      1.0  0.80273  0.48133  0.66315  1.0000
  S   S589      1.0  0.79871  0.47210  0.62916  1.0000
  Fe  Fe291     1.0  0.73325  0.39410  0.55520  1.0000
  S   S590      1.0  0.74806  0.41327  0.54049  1.0000
  S   S591      1.0  0.74175  0.36648  0.56156  1.0000
  Fe  Fe292     1.0  0.70075  0.41860  0.55844  1.0000
  S   S592      1.0  0.71266  0.44022  0.54445  1.0000
  S   S593      1.0  0.67321  0.42129  0.56912  1.0000
  Fe  Fe293     1.0  0.72694  0.42351  0.52700  1.0000
  S   S594      1.0  0.73066  0.43161  0.49914  1.0000
  Fe  Fe294     1.0  0.73273  0.42852  0.55933  1.0000
  S   S595      1.0  0.74488  0.44513  0.56767  1.0000
  S   S596      1.0  0.71373  0.40283  0.54002  1.0000
  S   S597      1.0  0.71928  0.40842  0.57494  1.0000
  C   C1996     1.0  0.86978  0.47865  0.63884  1.0000
  S   S598      1.0  0.61842  0.34592  0.53969  1.0000
  H   H3430     1.0  0.68726  0.36049  0.55262  1.0000
  H   H3431     1.0  0.70333  0.34534  0.60806  1.0000
  C   C1997     1.0  0.75499  0.49286  0.72726  1.0000
  H   H3432     1.0  0.97054  0.54718  0.67074  1.0000
  H   H3433     1.0  0.62603  0.42877  0.49602  1.0000
  C   C1998     1.0  0.85133  0.47256  0.68589  1.0000
  H   H3434     1.0  0.66323  0.45900  0.56680  1.0000
  H   H3435     1.0  0.85221  0.48391  0.68925  1.0000
  C   C1999     1.0  0.70941  0.34317  0.59543  1.0000
  H   H3436     1.0  0.67422  0.42673  0.50009  1.0000
  C   C2000     1.0  0.66105  0.41034  0.56383  1.0000
  C   C2001     1.0  0.66779  0.39903  0.55332  1.0000
  C   C2002     1.0  0.65756  0.39009  0.55021  1.0000
  C   C2003     1.0  0.64047  0.39286  0.55720  1.0000
  C   C2004     1.0  0.63376  0.40452  0.56722  1.0000
  C   C2005     1.0  0.64399  0.41301  0.57070  1.0000
  H   H3437     1.0  0.68083  0.39709  0.54764  1.0000
  H   H3438     1.0  0.66282  0.38134  0.54219  1.0000
  H   H3439     1.0  0.62056  0.40691  0.57248  1.0000
  H   H3440     1.0  0.63861  0.42178  0.57871  1.0000
  C   C2006     1.0  0.75639  0.35910  0.54512  1.0000
  C   C2007     1.0  0.77078  0.36548  0.53837  1.0000
  C   C2008     1.0  0.78264  0.35935  0.52544  1.0000
  C   C2009     1.0  0.77979  0.34733  0.51878  1.0000
  C   C2010     1.0  0.91451  0.64855  0.61160  1.0000
  C   C2011     1.0  0.75377  0.34670  0.53877  1.0000
  H   H3441     1.0  0.77291  0.37496  0.54331  1.0000
  H   H3442     1.0  0.79387  0.36417  0.52035  1.0000
  C   C2012     1.0  0.63544  0.42069  0.51834  1.0000
  C   C2013     1.0  0.96225  0.58188  0.66533  1.0000
  H   H3443     1.0  0.70294  0.43142  0.61984  1.0000
  C   C2014     1.0  0.69881  0.42902  0.49989  1.0000
  H   H3444     1.0  0.69637  0.42815  0.51309  1.0000
  H   H3445     1.0  0.94399  0.57495  0.64475  1.0000
  C   C2015     1.0  0.75460  0.45148  0.61610  1.0000
  C   C2016     1.0  0.76094  0.46078  0.60073  1.0000
  C   C2017     1.0  0.75809  0.45842  0.58608  1.0000
  C   C2018     1.0  0.74919  0.44652  0.58650  1.0000
  C   C2019     1.0  0.74337  0.43682  0.60183  1.0000
  C   C2020     1.0  0.74581  0.43949  0.61651  1.0000
  H   H3446     1.0  0.76768  0.47007  0.60014  1.0000
  H   H3447     1.0  0.76267  0.46602  0.57432  1.0000
  H   H3448     1.0  0.73672  0.42746  0.60243  1.0000
  H   H3449     1.0  0.74095  0.43213  0.62830  1.0000
  C   C2021     1.0  0.76741  0.48962  0.71341  1.0000
  H   H3450     1.0  0.87790  0.64870  0.65274  1.0000
  H   H3451     1.0  0.68410  0.33183  0.58984  1.0000
  H   H3452     1.0  0.66869  0.47028  0.60425  1.0000
  H   H3453     1.0  0.90393  0.63932  0.63708  1.0000
  H   H3454     1.0  0.66383  0.47747  0.57246  1.0000
  H   H3455     1.0  0.60105  0.38274  0.51165  1.0000
  C   C2022     1.0  0.94940  0.56202  0.65047  1.0000
  C   C2023     1.0  0.71371  0.48241  0.57593  1.0000
  C   C2024     1.0  0.84081  0.43102  0.70471  1.0000
  C   C2025     1.0  0.85371  0.42585  0.69199  1.0000
  C   C2026     1.0  0.85068  0.42812  0.67613  1.0000
  C   C2027     1.0  0.83487  0.43590  0.67295  1.0000
  C   C2028     1.0  0.82204  0.44103  0.68568  1.0000
  C   C2029     1.0  0.82497  0.43846  0.70153  1.0000
  H   H3456     1.0  0.86594  0.41998  0.69439  1.0000
  H   H3457     1.0  0.86062  0.42409  0.66630  1.0000
  H   H3458     1.0  0.80976  0.44691  0.68340  1.0000
  H   H3459     1.0  0.81495  0.44239  0.71126  1.0000
  C   C2030     1.0  0.84931  0.52784  0.62838  1.0000
  C   C2031     1.0  0.84400  0.53197  0.61344  1.0000
  C   C2032     1.0  0.82866  0.52921  0.61292  1.0000
  C   C2033     1.0  0.81890  0.52138  0.62716  1.0000
  C   C2034     1.0  0.82435  0.51686  0.64209  1.0000
  C   C2035     1.0  0.83926  0.52060  0.64282  1.0000
  H   H3460     1.0  0.85176  0.53740  0.60219  1.0000
  H   H3461     1.0  0.82453  0.53280  0.60134  1.0000
  H   H3462     1.0  0.81684  0.51089  0.65312  1.0000
  H   H3463     1.0  0.84318  0.51748  0.65443  1.0000
  C   C2036     1.0  0.83553  0.56419  0.70916  1.0000
  C   C2037     1.0  0.82147  0.55918  0.71989  1.0000
  H   H3464     1.0  0.69483  0.48214  0.56429  1.0000
  H   H3465     1.0  0.90827  0.64120  0.60718  1.0000
  Fe  Fe295     1.0  0.94317  0.65150  0.65598  1.0000
  C   C2038     1.0  0.84992  0.56202  0.71510  1.0000
  H   H3466     1.0  0.81023  0.56122  0.71547  1.0000
  H   H3467     1.0  0.89619  0.49266  0.63717  1.0000
  H   H3468     1.0  0.65746  0.35702  0.49061  1.0000
  H   H3469     1.0  0.86069  0.56624  0.70697  1.0000
  C   C2039     1.0  0.91281  0.49739  0.68814  1.0000
  C   C2040     1.0  0.92888  0.48760  0.68622  1.0000
  C   C2041     1.0  0.93135  0.47064  0.68670  1.0000
  C   C2042     1.0  0.91772  0.46321  0.69001  1.0000
  C   C2043     1.0  0.90159  0.47292  0.69237  1.0000
  C   C2044     1.0  0.89916  0.49009  0.69092  1.0000
  H   H3470     1.0  0.96137  0.59315  0.66992  1.0000
  H   H3471     1.0  0.94383  0.46317  0.68487  1.0000
  H   H3472     1.0  0.89103  0.46723  0.69496  1.0000
  H   H3473     1.0  0.88674  0.49761  0.69244  1.0000
  C   C2045     1.0  0.92263  0.61975  0.66111  1.0000
  C   C2046     1.0  0.93133  0.61724  0.64538  1.0000
  C   C2047     1.0  0.92626  0.60755  0.63748  1.0000
  C   C2048     1.0  0.91268  0.59997  0.64535  1.0000
  C   C2049     1.0  0.90399  0.60239  0.66112  1.0000
  C   C2050     1.0  0.90896  0.61226  0.66896  1.0000
  H   H3474     1.0  0.94201  0.62270  0.63930  1.0000
  H   H3475     1.0  0.93303  0.60575  0.62528  1.0000
  H   H3476     1.0  0.89342  0.59672  0.66725  1.0000
  H   H3477     1.0  0.81951  0.54423  0.69462  1.0000
  Fe  Fe296     1.0  0.63490  0.35710  0.54833  1.0000
  H   H3478     1.0  0.62224  0.37294  0.50548  1.0000
  H   H3479     1.0  0.64669  0.37648  0.50570  1.0000
  H   H3480     1.0  0.90455  0.44048  0.65501  1.0000
  N   N141      1.0  0.87080  0.47472  0.65681  1.0000
  H   H3481     1.0  0.88227  0.47794  0.63057  1.0000
  C   C2051     1.0  0.70084  0.35777  0.55150  1.0000
  C   C2052     1.0  0.95739  0.52779  0.67586  1.0000
  H   H3482     1.0  0.91884  0.56812  0.67025  1.0000
  H   H3483     1.0  0.72188  0.48704  0.56407  1.0000
  H   H3484     1.0  0.84707  0.47187  0.63761  1.0000
  H   H3485     1.0  0.74274  0.34162  0.54393  1.0000
  H   H3486     1.0  0.69061  0.44491  0.57516  1.0000
  H   H3487     1.0  0.86039  0.46176  0.69100  1.0000
  H   H3488     1.0  0.68978  0.42979  0.60753  1.0000
  H   H3489     1.0  0.96573  0.52435  0.66439  1.0000
  H   H3490     1.0  0.71207  0.44235  0.58912  1.0000
  Fe  Fe297     1.0  0.64198  0.33486  0.52386  1.0000
  H   H3491     1.0  0.87309  0.63959  0.61366  1.0000
  C   C2053     1.0  0.85335  0.47488  0.66702  1.0000
  Fe  Fe298     1.0  0.87073  0.42189  0.72682  1.0000
  C   C2054     1.0  0.92759  0.55721  0.67580  1.0000
  H   H3492     1.0  0.61682  0.39613  0.52129  1.0000
  H   H3493     1.0  0.87481  0.48125  0.72424  1.0000
  H   H3494     1.0  0.70871  0.34943  0.49054  1.0000
  H   H3495     1.0  0.91415  0.65558  0.63391  1.0000
  H   H3496     1.0  0.68027  0.49369  0.61078  1.0000
  H   H3497     1.0  0.69967  0.47961  0.60780  1.0000
  Fe  Fe299     1.0  0.62481  0.32338  0.55907  1.0000
  H   H3498     1.0  0.70533  0.36949  0.54819  1.0000
  C   C2055     1.0  0.78398  0.50486  0.72067  1.0000
  H   H3499     1.0  0.69425  0.37244  0.60692  1.0000
  C   C2056     1.0  0.61312  0.38481  0.50343  1.0000
  H   H3500     1.0  0.68427  0.39029  0.59423  1.0000
  H   H3501     1.0  0.62433  0.41699  0.52724  1.0000
  H   H3502     1.0  0.71077  0.45547  0.60224  1.0000
  H   H3503     1.0  0.68195  0.47329  0.62279  1.0000
  S   S599      1.0  0.95872  0.64960  0.63071  1.0000
  H   H3504     1.0  0.89277  0.44829  0.63920  1.0000
  C   C2057     1.0  0.86079  0.46768  0.63410  1.0000
  H   H3505     1.0  0.81450  0.55952  0.64660  1.0000
  H   H3506     1.0  0.95676  0.54562  0.68988  1.0000
  H   H3507     1.0  0.96308  0.56039  0.64569  1.0000
  Fe  Fe300     1.0  0.78691  0.32318  0.49113  1.0000
  N   N142      1.0  0.79480  0.54565  0.67865  1.0000
  C   C2058     1.0  0.78842  0.54322  0.66477  1.0000
  C   C2059     1.0  0.80145  0.56137  0.67234  1.0000
  C   C2060     1.0  0.78014  0.54761  0.69295  1.0000
  C   C2061     1.0  0.80795  0.53060  0.68323  1.0000
  C   C2062     1.0  0.77955  0.52858  0.66886  1.0000
  C   C2063     1.0  0.81704  0.56080  0.65817  1.0000
  C   C2064     1.0  0.78242  0.55375  0.70737  1.0000
  C   C2065     1.0  0.81905  0.53159  0.69443  1.0000
  H   H3508     1.0  0.77955  0.55458  0.66011  1.0000
  H   H3509     1.0  0.79867  0.54120  0.65394  1.0000
  H   H3510     1.0  0.80473  0.56528  0.68216  1.0000
  H   H3511     1.0  0.79164  0.57194  0.66801  1.0000
  H   H3512     1.0  0.76924  0.55644  0.68851  1.0000
  H   H3513     1.0  0.77611  0.53563  0.69863  1.0000
  H   H3514     1.0  0.80227  0.51969  0.68940  1.0000
  H   H3515     1.0  0.81645  0.52693  0.67198  1.0000
  H   H3516     1.0  0.76777  0.53029  0.67820  1.0000
  H   H3517     1.0  0.77614  0.52784  0.65748  1.0000
  H   H3518     1.0  0.78766  0.51651  0.67287  1.0000
  H   H3519     1.0  0.79208  0.54514  0.71366  1.0000
  H   H3520     1.0  0.77066  0.55422  0.71688  1.0000
  H   H3521     1.0  0.78465  0.56653  0.70368  1.0000
  H   H3522     1.0  0.94487  0.52577  0.67681  1.0000
  H   H3523     1.0  0.69206  0.34487  0.48480  1.0000
  C   C2066     1.0  0.67973  0.47566  0.59723  1.0000
  N   N143      1.0  0.81283  0.41927  0.61949  1.0000
  C   C2067     1.0  0.81754  0.43284  0.60485  1.0000
  C   C2068     1.0  0.80487  0.40874  0.61360  1.0000
  C   C2069     1.0  0.82858  0.40914  0.62502  1.0000
  C   C2070     1.0  0.80110  0.42750  0.63294  1.0000
  C   C2071     1.0  0.82974  0.44249  0.60663  1.0000
  C   C2072     1.0  0.78827  0.41751  0.60825  1.0000
  C   C2073     1.0  0.82802  0.39173  0.63597  1.0000
  C   C2074     1.0  0.79246  0.41636  0.64832  1.0000
  H   H3524     1.0  0.82338  0.42778  0.59346  1.0000
  H   H3525     1.0  0.80632  0.44228  0.60192  1.0000
  H   H3526     1.0  0.80227  0.39762  0.62310  1.0000
  H   H3527     1.0  0.81356  0.40372  0.60300  1.0000
  H   H3528     1.0  0.83878  0.40711  0.61406  1.0000
  H   H3529     1.0  0.83297  0.41597  0.63189  1.0000
  H   H3530     1.0  0.80765  0.43428  0.63767  1.0000
  H   H3531     1.0  0.79121  0.43749  0.62798  1.0000
  H   H3532     1.0  0.84261  0.43496  0.60556  1.0000
  H   H3533     1.0  0.83007  0.45369  0.59650  1.0000
  H   H3534     1.0  0.82606  0.44672  0.61843  1.0000
  H   H3535     1.0  0.78367  0.40874  0.60393  1.0000
  H   H3536     1.0  0.77860  0.42136  0.61881  1.0000
  H   H3537     1.0  0.78950  0.42834  0.59786  1.0000
  H   H3538     1.0  0.84004  0.38654  0.64002  1.0000
  H   H3539     1.0  0.82676  0.38306  0.62900  1.0000
  H   H3540     1.0  0.81825  0.39182  0.64734  1.0000
  H   H3541     1.0  0.79935  0.41317  0.65845  1.0000
  H   H3542     1.0  0.79063  0.40493  0.64607  1.0000
  H   H3543     1.0  0.77971  0.42323  0.65279  1.0000
  C   C2075     1.0  0.88170  0.45800  0.66199  1.0000
  H   H3544     1.0  0.87439  0.44807  0.66630  1.0000
  H   H3545     1.0  0.94658  0.53766  0.64807  1.0000
  H   H3546     1.0  0.65539  0.35216  0.59104  1.0000
  C   C2076     1.0  0.89674  0.45182  0.64887  1.0000
  H   H3547     1.0  0.84471  0.48660  0.66276  1.0000
  H   H3548     1.0  0.76317  0.33164  0.52035  1.0000
  H   H3549     1.0  0.93571  0.58543  0.67017  1.0000
  H   H3550     1.0  0.90483  0.46084  0.64291  1.0000
  H   H3551     1.0  0.84832  0.46479  0.66543  1.0000
  H   H3552     1.0  0.86825  0.50049  0.65707  1.0000
  H   H3553     1.0  0.67484  0.48730  0.58887  1.0000
  H   H3554     1.0  0.88661  0.45773  0.67288  1.0000
  H   H3555     1.0  0.92531  0.54667  0.67214  1.0000
  H   H3556     1.0  0.87693  0.48645  0.67329  1.0000
  H   H3557     1.0  0.96377  0.58584  0.65171  1.0000
  S   S600      1.0  0.62671  0.38318  0.55276  1.0000
  C   C2077     1.0  0.89444  0.49077  0.65075  1.0000
  S   S601      1.0  0.65790  0.34832  0.53031  1.0000
  H   H3558     1.0  0.78176  0.39319  0.50308  1.0000
  C   C2078     1.0  0.70297  0.45037  0.59722  1.0000
  C   C2079     1.0  0.68216  0.45513  0.58095  1.0000
  C   C2080     1.0  0.67168  0.46614  0.56835  1.0000
  H   H3559     1.0  0.83211  0.52556  0.68985  1.0000
  H   H3560     1.0  0.90410  0.48046  0.65556  1.0000
  H   H3561     1.0  0.67332  0.44902  0.59131  1.0000
  H   H3562     1.0  0.86396  0.46885  0.62048  1.0000
  H   H3563     1.0  0.82126  0.57267  0.65531  1.0000
  C   C2081     1.0  0.68649  0.37653  0.59748  1.0000
  H   H3564     1.0  0.79515  0.50951  0.71820  1.0000
  H   H3565     1.0  0.68816  0.37681  0.57217  1.0000
  H   H3566     1.0  0.92954  0.55479  0.64391  1.0000
  H   H3567     1.0  0.90899  0.55188  0.69824  1.0000
  C   C2082     1.0  0.49984  0.42332  0.64745  1.0000
  H   H3568     1.0  0.66851  0.40155  0.50094  1.0000
  N   N144      1.0  0.94523  0.55955  0.66910  1.0000
  C   C2083     1.0  0.77907  0.39085  0.49201  1.0000
  C   C2084     1.0  0.76090  0.38892  0.49612  1.0000
  H   H3569     1.0  0.89357  0.49920  0.72018  1.0000
  C   C2085     1.0  0.90536  0.65155  0.62898  1.0000
  H   H3570     1.0  0.83872  0.47021  0.69211  1.0000
  N   N145      1.0  0.69791  0.35134  0.58351  1.0000
  H   H3571     1.0  0.86320  0.49172  0.63514  1.0000
  S   S602      1.0  0.79389  0.34131  0.50144  1.0000
  S   S603      1.0  0.84401  0.42859  0.72465  1.0000
  H   H3572     1.0  0.92084  0.56563  0.69942  1.0000
  H   H3573     1.0  0.72892  0.39863  0.49194  1.0000
  H   H3574     1.0  0.86425  0.45441  0.63997  1.0000
  C   C2086     1.0  0.70648  0.34649  0.56715  1.0000
  C   C2087     1.0  0.69535  0.36980  0.58171  1.0000
  H   H3575     1.0  0.70749  0.37375  0.57714  1.0000
  H   H3576     1.0  0.70625  0.49345  0.58087  1.0000
  H   H3577     1.0  0.82760  0.55085  0.66169  1.0000
  C   C2088     1.0  0.87686  0.48839  0.66003  1.0000
  H   H3578     1.0  0.67965  0.46944  0.55595  1.0000
  H   H3579     1.0  0.89648  0.50218  0.65310  1.0000
  H   H3580     1.0  0.76613  0.44528  0.73058  1.0000
  H   H3581     1.0  0.63478  0.43385  0.51823  1.0000
  H   H3582     1.0  0.70653  0.35144  0.54096  1.0000
  H   H3583     1.0  0.67757  0.34492  0.60392  1.0000
  H   H3584     1.0  0.78496  0.45244  0.72210  1.0000
  C   C2089     1.0  0.94619  0.57521  0.67350  1.0000
  Fe  Fe301     1.0  0.66142  0.32618  0.55093  1.0000
  H   H3585     1.0  0.51348  0.42130  0.64638  1.0000
  C   C2090     1.0  0.86266  0.51571  0.71676  1.0000
  H   H3586     1.0  0.94482  0.57358  0.68706  1.0000
  S   S604      1.0  0.88198  0.44301  0.72586  1.0000
  H   H3587     1.0  0.92729  0.64123  0.61219  1.0000
  C   C2091     1.0  0.66716  0.35390  0.58203  1.0000
  H   H3588     1.0  0.49964  0.42714  0.67838  1.0000
  H   H3589     1.0  0.81513  0.52506  0.70735  1.0000
  H   H3590     1.0  0.80370  0.46104  0.72908  1.0000
  C   C2092     1.0  0.68196  0.34508  0.59045  1.0000
  H   H3591     1.0  0.75312  0.39987  0.50117  1.0000
  H   H3592     1.0  0.73366  0.37617  0.51587  1.0000
  H   H3593     1.0  0.71848  0.37276  0.50710  1.0000
  H   H3594     1.0  0.86014  0.50559  0.71263  1.0000
  H   H3595     1.0  0.85259  0.52670  0.71416  1.0000
  H   H3596     1.0  0.87443  0.51920  0.70921  1.0000
  C   C2093     1.0  0.68611  0.48055  0.61022  1.0000
  H   H3597     1.0  0.72070  0.34867  0.59166  1.0000
  N   N146      1.0  0.69187  0.46374  0.58725  1.0000
  C   C2094     1.0  0.92171  0.55446  0.69476  1.0000
  C   C2095     1.0  0.94320  0.55102  0.64278  1.0000
  C   C2096     1.0  0.76536  0.34098  0.52544  1.0000
  C   C2097     1.0  0.66615  0.38972  0.50022  1.0000
  C   C2098     1.0  0.69402  0.43879  0.61188  1.0000
  C   C2099     1.0  0.70256  0.47276  0.57244  1.0000
  C   C2100     1.0  0.64773  0.38867  0.50693  1.0000
  C   C2101     1.0  0.87419  0.64317  0.62481  1.0000
  H   H3598     1.0  0.94870  0.55293  0.62932  1.0000
  H   H3599     1.0  0.96175  0.51889  0.68665  1.0000
  H   H3600     1.0  0.72003  0.34592  0.56480  1.0000
  C   C2102     1.0  0.68631  0.42803  0.49250  1.0000
  H   H3601     1.0  0.76012  0.37816  0.50664  1.0000
  H   H3602     1.0  0.67384  0.37973  0.50795  1.0000
  H   H3603     1.0  0.68334  0.44569  0.61966  1.0000
  C   C2103     1.0  0.73185  0.37311  0.50475  1.0000
  H   H3604     1.0  0.93947  0.49315  0.68419  1.0000
  H   H3605     1.0  0.79190  0.49270  0.69979  1.0000
  C   C2104     1.0  0.61808  0.39909  0.50763  1.0000
  N   N147      1.0  0.63519  0.40224  0.49898  1.0000
  H   H3606     1.0  0.92965  0.54353  0.70120  1.0000
  C   C2105     1.0  0.63623  0.41900  0.50069  1.0000
  H   H3607     1.0  0.64685  0.41348  0.52280  1.0000
  H   H3608     1.0  0.72215  0.47463  0.58414  1.0000
  C   C2106     1.0  0.78209  0.49545  0.71023  1.0000
  H   H3609     1.0  0.67067  0.38776  0.48738  1.0000
  H   H3610     1.0  0.67416  0.37320  0.60278  1.0000
  S   S605      1.0  0.64068  0.32929  0.50022  1.0000
  H   H3611     1.0  0.66584  0.36746  0.57825  1.0000
  H   H3612     1.0  0.88388  0.63323  0.62996  1.0000
  H   H3613     1.0  0.60824  0.41038  0.50529  1.0000
  C   C2107     1.0  0.95766  0.54550  0.67672  1.0000
  H   H3614     1.0  0.97348  0.57286  0.66856  1.0000
  H   H3615     1.0  0.71079  0.46393  0.56473  1.0000
  H   H3616     1.0  0.78783  0.37925  0.48947  1.0000
  H   H3617     1.0  0.66782  0.34867  0.57129  1.0000
  H   H3618     1.0  0.50357  0.40029  0.66544  1.0000
  H   H3619     1.0  0.73912  0.36053  0.50349  1.0000
  C   C2108     1.0  0.77860  0.44434  0.73290  1.0000
  H   H3620     1.0  0.86227  0.64305  0.63404  1.0000
  H   H3621     1.0  0.61134  0.38788  0.49053  1.0000
  C   C2109     1.0  0.73601  0.38645  0.48904  1.0000
  H   H3622     1.0  0.70548  0.33373  0.56748  1.0000
  S   S606      1.0  0.63913  0.33555  0.56940  1.0000
  H   H3623     1.0  0.74363  0.48839  0.72985  1.0000
  H   H3624     1.0  0.64780  0.42269  0.49282  1.0000
  H   H3625     1.0  0.90777  0.47309  0.73010  1.0000
  H   H3626     1.0  0.76530  0.36070  0.48796  1.0000
  H   H3627     1.0  0.49814  0.42507  0.63466  1.0000
  C   C2110     1.0  0.85027  0.55452  0.73170  1.0000
  H   H3628     1.0  0.59664  0.32366  0.54243  1.0000
  H   H3629     1.0  0.78528  0.43129  0.73337  1.0000
  H   H3630     1.0  0.50708  0.65163  0.73094  1.0000
  Fe  Fe302     1.0  0.80003  0.55441  0.91962  1.0000
  S   S607      1.0  0.77658  0.57045  0.93032  1.0000
  S   S608      1.0  0.81572  0.53534  0.93603  1.0000
  Fe  Fe303     1.0  0.79541  0.56887  0.88429  1.0000
  S   S609      1.0  0.77166  0.58645  0.89230  1.0000
  S   S610      1.0  0.80573  0.56752  0.85738  1.0000
  Fe  Fe304     1.0  0.78484  0.59081  0.90977  1.0000
  S   S611      1.0  0.77828  0.61562  0.91699  1.0000
  Fe  Fe305     1.0  0.76579  0.56453  0.91208  1.0000
  S   S612      1.0  0.74054  0.55852  0.92078  1.0000
  S   S613      1.0  0.80936  0.57517  0.90008  1.0000
  S   S614      1.0  0.78854  0.54659  0.90299  1.0000
  H   H3631     1.0  0.68662  0.59606  0.96234  1.0000
  N   N148      1.0  0.91144  0.38790  0.79476  1.0000
  C   C2111     1.0  0.92082  0.40181  0.78852  1.0000
  S   S615      1.0  0.66399  0.63528  0.93956  1.0000
  S   S616      1.0  0.70201  0.63447  0.94214  1.0000
  Fe  Fe306     1.0  0.68803  0.63865  0.92214  1.0000
  S   S617      1.0  0.69730  0.62868  0.89908  1.0000
  C   C2112     1.0  0.90512  0.48170  0.73862  1.0000
  C   C2113     1.0  0.83653  0.54848  0.74212  1.0000
  H   H3632     1.0  0.56484  0.59691  0.86975  1.0000
  H   H3633     1.0  0.80787  0.40725  0.76247  1.0000
  H   H3634     1.0  0.55596  0.55748  0.88360  1.0000
  C   C2114     1.0  0.89063  0.37589  0.78658  1.0000
  S   S618      1.0  0.88764  0.43972  0.77009  1.0000
  H   H3635     1.0  0.84730  0.47871  0.75628  1.0000
  Fe  Fe307     1.0  0.80431  0.49312  0.78875  1.0000
  S   S619      1.0  0.77733  0.50529  0.79138  1.0000
  S   S620      1.0  0.81134  0.46561  0.79730  1.0000
  Fe  Fe308     1.0  0.81544  0.52537  0.77263  1.0000
  S   S621      1.0  0.78932  0.54016  0.77392  1.0000
  S   S622      1.0  0.83789  0.53670  0.76203  1.0000
  Fe  Fe309     1.0  0.78455  0.52484  0.79965  1.0000
  S   S623      1.0  0.76970  0.53418  0.82275  1.0000
  Fe  Fe310     1.0  0.78510  0.51909  0.76533  1.0000
  H   H3636     1.0  0.64146  0.62407  0.97160  1.0000
  S   S624      1.0  0.81108  0.51138  0.79888  1.0000
  S   S625      1.0  0.81168  0.50553  0.76221  1.0000
  C   C2115     1.0  0.87783  0.50493  0.76674  1.0000
  H   H3637     1.0  0.54251  0.64852  0.81385  1.0000
  H   H3638     1.0  0.59187  0.65002  0.95280  1.0000
  C   C2116     1.0  0.55986  0.60080  0.85832  1.0000
  H   H3639     1.0  0.75492  0.54714  0.95545  1.0000
  C   C2117     1.0  0.80481  0.58404  0.97343  1.0000
  C   C2118     1.0  0.62343  0.65186  0.92648  1.0000
  H   H3640     1.0  0.87337  0.50311  0.78036  1.0000
  H   H3641     1.0  0.76821  0.46253  0.74776  1.0000
  C   C2119     1.0  0.64325  0.64197  0.86717  1.0000
  H   H3642     1.0  0.71671  0.62665  0.97463  1.0000
  C   C2120     1.0  0.52351  0.64072  0.85448  1.0000
  C   C2121     1.0  0.53516  0.64574  0.84035  1.0000
  C   C2122     1.0  0.53300  0.64569  0.82469  1.0000
  C   C2123     1.0  0.51879  0.64148  0.82302  1.0000
  H   H3643     1.0  0.78921  0.59660  0.95516  1.0000
  H   H3644     1.0  0.83883  0.55856  0.95426  1.0000
  C   C2124     1.0  0.79990  0.46365  0.74170  1.0000
  H   H3645     1.0  0.76101  0.62911  0.88979  1.0000
  N   N149      1.0  0.65323  0.64564  0.87741  1.0000
  H   H3646     1.0  0.82322  0.54069  0.98275  1.0000
  C   C2125     1.0  0.88577  0.40593  0.81003  1.0000
  H   H3647     1.0  0.78412  0.48063  0.76663  1.0000
  C   C2126     1.0  0.75677  0.50246  0.73741  1.0000
  C   C2127     1.0  0.77636  0.44995  0.74919  1.0000
  C   C2128     1.0  0.95482  0.34784  0.76713  1.0000
  C   C2129     1.0  0.77182  0.65409  0.86592  1.0000
  H   H3648     1.0  0.84748  0.58220  0.96060  1.0000
  H   H3649     1.0  0.67661  0.63370  0.86390  1.0000
  H   H3650     1.0  0.54522  0.56609  0.85991  1.0000
  H   H3651     1.0  0.52538  0.59301  0.89945  1.0000
  H   H3652     1.0  0.94640  0.36023  0.80576  1.0000
  C   C2130     1.0  0.86647  0.44664  0.77814  1.0000
  C   C2131     1.0  0.85444  0.44195  0.77304  1.0000
  C   C2132     1.0  0.83755  0.44746  0.77934  1.0000
  C   C2133     1.0  0.83256  0.45840  0.79010  1.0000
  C   C2134     1.0  0.84453  0.46339  0.79504  1.0000
  C   C2135     1.0  0.86151  0.45716  0.78937  1.0000
  H   H3653     1.0  0.85805  0.43412  0.76420  1.0000
  H   H3654     1.0  0.82838  0.44345  0.77561  1.0000
  H   H3655     1.0  0.84067  0.47183  0.80342  1.0000
  H   H3656     1.0  0.74081  0.58398  0.95236  1.0000
  H   H3657     1.0  0.79524  0.41854  0.77772  1.0000
  C   C2136     1.0  0.50687  0.63699  0.83712  1.0000
  H   H3658     1.0  0.79042  0.60931  0.96823  1.0000
  H   H3659     1.0  0.57150  0.60660  0.83177  1.0000
  Fe  Fe311     1.0  0.81387  0.64902  0.96802  1.0000
  H   H3660     1.0  0.61460  0.63177  0.92323  1.0000
  H   H3661     1.0  0.69979  0.56598  0.96766  1.0000
  C   C2137     1.0  0.79446  0.55998  0.84740  1.0000
  C   C2138     1.0  0.80038  0.55933  0.83061  1.0000
  C   C2139     1.0  0.79270  0.55174  0.82281  1.0000
  C   C2140     1.0  0.77887  0.54497  0.83170  1.0000
  C   C2141     1.0  0.77256  0.54621  0.84831  1.0000
  C   C2142     1.0  0.78037  0.55359  0.85617  1.0000
  H   H3662     1.0  0.81122  0.56432  0.82372  1.0000
  H   H3663     1.0  0.79757  0.55099  0.80997  1.0000
  H   H3664     1.0  0.76177  0.54115  0.85521  1.0000
  H   H3665     1.0  0.77562  0.55414  0.86906  1.0000
  C   C2143     1.0  0.79216  0.62385  0.92289  1.0000
  C   C2144     1.0  0.80943  0.61871  0.91836  1.0000
  C   C2145     1.0  0.81996  0.62540  0.92383  1.0000
  C   C2146     1.0  0.81320  0.63689  0.93416  1.0000
  C   C2147     1.0  0.79595  0.64234  0.93818  1.0000
  C   C2148     1.0  0.78549  0.63595  0.93246  1.0000
  H   H3666     1.0  0.81466  0.60960  0.91071  1.0000
  H   H3667     1.0  0.83331  0.62130  0.92050  1.0000
  H   H3668     1.0  0.72054  0.59766  0.95484  1.0000
  H   H3669     1.0  0.77216  0.64022  0.93575  1.0000
  C   C2149     1.0  0.72684  0.57680  0.91429  1.0000
  C   C2150     1.0  0.72973  0.58515  0.89775  1.0000
  C   C2151     1.0  0.71999  0.60081  0.89287  1.0000
  C   C2152     1.0  0.70768  0.60822  0.90464  1.0000
  C   C2153     1.0  0.70454  0.59974  0.92112  1.0000
  C   C2154     1.0  0.71400  0.58390  0.92591  1.0000
  H   H3670     1.0  0.73964  0.57962  0.88875  1.0000
  H   H3671     1.0  0.72249  0.60741  0.88014  1.0000
  H   H3672     1.0  0.69501  0.60546  0.93023  1.0000
  H   H3673     1.0  0.71188  0.57748  0.93871  1.0000
  H   H3674     1.0  0.87830  0.40656  0.82268  1.0000
  H   H3675     1.0  0.55041  0.59546  0.83190  1.0000
  C   C2155     1.0  0.79303  0.53995  0.96509  1.0000
  C   C2156     1.0  0.80616  0.52927  0.95689  1.0000
  H   H3676     1.0  0.81746  0.55763  0.95939  1.0000
  H   H3677     1.0  0.93807  0.38129  0.74019  1.0000
  N   N150      1.0  0.54737  0.59102  0.85864  1.0000
  H   H3678     1.0  0.78873  0.55241  0.95871  1.0000
  H   H3679     1.0  0.82241  0.50518  0.95937  1.0000
  H   H3680     1.0  0.87619  0.48053  0.76603  1.0000
  C   C2157     1.0  0.95326  0.36316  0.75596  1.0000
  H   H3681     1.0  0.66185  0.63537  0.90032  1.0000
  H   H3682     1.0  0.89078  0.41741  0.80518  1.0000
  H   H3683     1.0  0.58206  0.58744  0.84333  1.0000
  C   C2158     1.0  0.93921  0.36948  0.74881  1.0000
  H   H3684     1.0  0.93768  0.38012  0.81026  1.0000
  C   C2159     1.0  0.57505  0.60028  0.84379  1.0000
  H   H3685     1.0  0.52436  0.60524  0.87043  1.0000
  S   S626      1.0  0.87709  0.40763  0.75100  1.0000
  H   H3686     1.0  0.81909  0.60740  0.97723  1.0000
  H   H3687     1.0  0.92851  0.36291  0.82248  1.0000
  C   C2160     1.0  0.79794  0.41839  0.76438  1.0000
  H   H3688     1.0  0.85737  0.49532  0.76584  1.0000
  C   C2161     1.0  0.92849  0.34492  0.76360  1.0000
  H   H3689     1.0  0.84954  0.51189  0.74219  1.0000
  H   H3690     1.0  0.96283  0.37028  0.75296  1.0000
  H   H3691     1.0  0.90166  0.47475  0.75143  1.0000
  H   H3692     1.0  0.87788  0.46945  0.74383  1.0000
  C   C2162     1.0  0.94246  0.33867  0.77085  1.0000
  H   H3693     1.0  0.80906  0.43185  0.74070  1.0000
  C   C2163     1.0  0.93440  0.36862  0.80978  1.0000
  C   C2164     1.0  0.68789  0.58946  0.97473  1.0000
  H   H3694     1.0  0.81151  0.54622  0.74402  1.0000
  H   H3695     1.0  0.90673  0.39073  0.82001  1.0000
  H   H3696     1.0  0.91675  0.48563  0.73792  1.0000
  H   H3697     1.0  0.84414  0.48952  0.73579  1.0000
  H   H3698     1.0  0.76525  0.47329  0.76960  1.0000
  H   H3699     1.0  0.91591  0.36117  0.80260  1.0000
  N   N151      1.0  0.75010  0.51334  0.96654  1.0000
  C   C2165     1.0  0.76782  0.51365  0.95752  1.0000
  C   C2166     1.0  0.82213  0.55087  0.73617  1.0000
  C   C2167     1.0  0.73844  0.52937  0.96122  1.0000
  C   C2168     1.0  0.74482  0.49961  0.96262  1.0000
  C   C2169     1.0  0.77093  0.51850  0.93852  1.0000
  H   H3700     1.0  0.52540  0.58355  0.87552  1.0000
  C   C2170     1.0  0.74266  0.54511  0.96309  1.0000
  H   H3701     1.0  0.73546  0.62142  0.95091  1.0000
  H   H3702     1.0  0.77277  0.52228  0.96161  1.0000
  H   H3703     1.0  0.77611  0.50136  0.96060  1.0000
  C   C2171     1.0  0.72707  0.49700  0.97140  1.0000
  C   C2172     1.0  0.54075  0.59826  0.84296  1.0000
  H   H3704     1.0  0.73750  0.53106  0.94817  1.0000
  H   H3705     1.0  0.72554  0.52919  0.96846  1.0000
  H   H3706     1.0  0.74502  0.50204  0.94918  1.0000
  H   H3707     1.0  0.75385  0.48761  0.96480  1.0000
  H   H3708     1.0  0.76762  0.50977  0.93304  1.0000
  H   H3709     1.0  0.76436  0.53129  0.93413  1.0000
  H   H3710     1.0  0.78442  0.51821  0.93363  1.0000
  H   H3711     1.0  0.56341  0.57118  0.84674  1.0000
  H   H3712     1.0  0.76244  0.60847  0.97419  1.0000
  C   C2173     1.0  0.85225  0.47937  0.74287  1.0000
  H   H3713     1.0  0.89777  0.36292  0.78788  1.0000
  H   H3714     1.0  0.78687  0.41679  0.76102  1.0000
  C   C2174     1.0  0.79765  0.59949  0.96138  1.0000
  H   H3715     1.0  0.63346  0.64371  0.93183  1.0000
  Fe  Fe312     1.0  0.67711  0.63448  0.95926  1.0000
  C   C2175     1.0  0.86265  0.51167  0.73538  1.0000
  C   C2176     1.0  0.65420  0.63265  0.89309  1.0000
  H   H3716     1.0  0.78059  0.44423  0.77989  1.0000
  H   H3717     1.0  0.92477  0.40460  0.79867  1.0000
  C   C2177     1.0  0.90208  0.38844  0.78192  1.0000
  H   H3718     1.0  0.62746  0.62620  0.88609  1.0000
  H   H3719     1.0  0.88086  0.37746  0.79782  1.0000
  C   C2178     1.0  0.93630  0.39927  0.77453  1.0000
  H   H3720     1.0  0.93078  0.36817  0.78574  1.0000
  C   C2179     1.0  0.81212  0.51340  0.96554  1.0000
  H   H3721     1.0  0.82593  0.45596  0.74479  1.0000
  S   S627      1.0  0.51691  0.64072  0.80334  1.0000
  C   C2180     1.0  0.62957  0.62785  0.98017  1.0000
  H   H3722     1.0  0.52217  0.59846  0.82975  1.0000
  C   C2181     1.0  0.87094  0.49345  0.76030  1.0000
  H   H3723     1.0  0.67568  0.61199  0.88961  1.0000
  S   S628      1.0  0.79172  0.63765  0.98018  1.0000
  H   H3724     1.0  0.82679  0.56692  0.93008  1.0000
  H   H3725     1.0  0.94626  0.38891  0.77869  1.0000
  N   N152      1.0  0.87398  0.49583  0.74176  1.0000
  H   H3726     1.0  0.73575  0.60088  0.93621  1.0000
  H   H3727     1.0  0.89477  0.50834  0.73548  1.0000
  C   C2182     1.0  0.78779  0.45328  0.77120  1.0000
  H   H3728     1.0  0.91260  0.41358  0.78368  1.0000
  S   S629      1.0  0.77142  0.52384  0.74457  1.0000
  H   H3729     1.0  0.87077  0.46079  0.79340  1.0000
  S   S630      1.0  0.58667  0.64594  0.90825  1.0000
  H   H3730     1.0  0.89385  0.37931  0.81680  1.0000
  C   C2183     1.0  0.61266  0.64508  0.92157  1.0000
  H   H3731     1.0  0.57102  0.57061  0.87648  1.0000
  H   H3732     1.0  0.76556  0.58384  0.96531  1.0000
  H   H3733     1.0  0.57441  0.55318  0.86800  1.0000
  C   C2184     1.0  0.89975  0.39020  0.81094  1.0000
  S   S631      1.0  0.82626  0.64375  0.94265  1.0000
  H   H3734     1.0  0.87708  0.40584  0.80247  1.0000
  S   S632      1.0  0.97186  0.34091  0.77690  1.0000
  C   C2185     1.0  0.73401  0.59703  0.94981  1.0000
  H   H3735     1.0  0.88413  0.37788  0.77637  1.0000
  H   H3736     1.0  0.64192  0.63288  0.90169  1.0000
  H   H3737     1.0  0.93319  0.39721  0.76360  1.0000
  H   H3738     1.0  0.73318  0.55599  0.95881  1.0000
  H   H3739     1.0  0.71793  0.50449  0.96372  1.0000
  H   H3740     1.0  0.81089  0.58263  0.93782  1.0000
  C   C2186     1.0  0.89170  0.49712  0.73377  1.0000
  H   H3741     1.0  0.51419  0.59671  0.85134  1.0000
  C   C2187     1.0  0.78567  0.53454  0.98175  1.0000
  C   C2188     1.0  0.92302  0.37123  0.79757  1.0000
  H   H3742     1.0  0.83269  0.59687  0.95075  1.0000
  C   C2189     1.0  0.56445  0.56323  0.87263  1.0000
  C   C2190     1.0  0.82386  0.57599  0.93813  1.0000
  H   H3743     1.0  0.83259  0.58444  0.93220  1.0000
  N   N153      1.0  0.81445  0.50057  0.85361  1.0000
  C   C2191     1.0  0.79644  0.49910  0.85843  1.0000
  C   C2192     1.0  0.82010  0.50005  0.86903  1.0000
  C   C2193     1.0  0.82532  0.48671  0.84549  1.0000
  C   C2194     1.0  0.81570  0.51672  0.84149  1.0000
  C   C2195     1.0  0.78949  0.49528  0.84525  1.0000
  C   C2196     1.0  0.81290  0.51557  0.87665  1.0000
  C   C2197     1.0  0.82526  0.46912  0.85618  1.0000
  C   C2198     1.0  0.83322  0.52073  0.83504  1.0000
  H   H3744     1.0  0.79413  0.48937  0.86980  1.0000
  H   H3745     1.0  0.78824  0.51079  0.86167  1.0000
  H   H3746     1.0  0.83389  0.49781  0.86688  1.0000
  H   H3747     1.0  0.81675  0.48935  0.87893  1.0000
  H   H3748     1.0  0.82197  0.48730  0.83361  1.0000
  H   H3749     1.0  0.83852  0.48801  0.84193  1.0000
  H   H3750     1.0  0.81108  0.51732  0.83038  1.0000
  H   H3751     1.0  0.80721  0.52720  0.84664  1.0000
  H   H3752     1.0  0.79172  0.50394  0.83321  1.0000
  H   H3753     1.0  0.79463  0.48242  0.84341  1.0000
  H   H3754     1.0  0.77579  0.49665  0.84939  1.0000
  H   H3755     1.0  0.81638  0.51313  0.88880  1.0000
  H   H3756     1.0  0.81809  0.52640  0.86881  1.0000
  H   H3757     1.0  0.79913  0.51895  0.87881  1.0000
  H   H3758     1.0  0.83255  0.45994  0.84851  1.0000
  H   H3759     1.0  0.81259  0.46654  0.86083  1.0000
  H   H3760     1.0  0.83131  0.46695  0.86675  1.0000
  H   H3761     1.0  0.83916  0.51687  0.82308  1.0000
  H   H3762     1.0  0.84163  0.51494  0.84377  1.0000
  H   H3763     1.0  0.83215  0.53431  0.83310  1.0000
  C   C2199     1.0  0.74768  0.63546  0.89141  1.0000
  C   C2200     1.0  0.73895  0.62631  0.90812  1.0000
  C   C2201     1.0  0.52531  0.59257  0.84206  1.0000
  H   H3764     1.0  0.76711  0.64843  0.90081  1.0000
  C   C2202     1.0  0.82600  0.56636  0.95564  1.0000
  H   H3765     1.0  0.74182  0.61290  0.90801  1.0000
  H   H3766     1.0  0.74333  0.62760  0.91866  1.0000
  H   H3767     1.0  0.72530  0.63046  0.91022  1.0000
  C   C2203     1.0  0.80436  0.43387  0.75355  1.0000
  S   S633      1.0  0.91471  0.41507  0.73574  1.0000
  S   S634      1.0  0.52734  0.63785  0.87430  1.0000
  H   H3768     1.0  0.74778  0.63660  0.96058  1.0000
  H   H3769     1.0  0.94149  0.41066  0.77039  1.0000
  C   C2204     1.0  0.92673  0.36042  0.75273  1.0000
  C   C2205     1.0  0.75858  0.57767  0.97707  1.0000
  C   C2206     1.0  0.74934  0.61351  0.97961  1.0000
  C   C2207     1.0  0.74092  0.60843  0.95639  1.0000
  H   H3770     1.0  0.50049  0.63215  0.86375  1.0000
  C   C2208     1.0  0.74677  0.63242  0.97411  1.0000
  H   H3771     1.0  0.52756  0.57900  0.84328  1.0000
  H   H3772     1.0  0.77452  0.47105  0.78666  1.0000
  H   H3773     1.0  0.76883  0.44200  0.75916  1.0000
  H   H3774     1.0  0.75770  0.56578  0.97488  1.0000
  C   C2209     1.0  0.50938  0.63634  0.85283  1.0000
  H   H3775     1.0  0.54626  0.64878  0.84158  1.0000
  N   N154      1.0  0.79213  0.45015  0.75392  1.0000
  H   H3776     1.0  0.75441  0.60711  0.95064  1.0000
  H   H3777     1.0  0.55372  0.61407  0.85796  1.0000
  C   C2210     1.0  0.61794  0.64158  0.97038  1.0000
  H   H3778     1.0  0.77478  0.64072  0.86569  1.0000
  H   H3779     1.0  0.74290  0.63277  0.88169  1.0000
  C   C2211     1.0  0.77733  0.47060  0.77336  1.0000
  C   C2212     1.0  0.55500  0.57297  0.85880  1.0000
  H   H3780     1.0  0.91892  0.33782  0.76655  1.0000
  H   H3781     1.0  0.79918  0.45127  0.77607  1.0000
  H   H3782     1.0  0.81562  0.43384  0.75778  1.0000
  H   H3783     1.0  0.61798  0.64809  0.88224  1.0000
  Fe  Fe313     1.0  0.89022  0.42775  0.74889  1.0000
  H   H3784     1.0  0.91083  0.38616  0.77023  1.0000
  H   H3785     1.0  0.58369  0.60712  0.84548  1.0000
  H   H3786     1.0  0.80704  0.60510  0.95177  1.0000
  H   H3787     1.0  0.89443  0.40103  0.77843  1.0000
  C   C2213     1.0  0.83417  0.58870  0.96284  1.0000
  H   H3788     1.0  0.74209  0.54488  0.97618  1.0000
  H   H3789     1.0  0.61242  0.63497  0.96434  1.0000
  H   H3790     1.0  0.86138  0.55289  0.73628  1.0000
  H   H3791     1.0  0.61983  0.63595  0.86766  1.0000
  C   C2214     1.0  0.87053  0.48117  0.73769  1.0000
  C   C2215     1.0  0.71985  0.61346  0.98108  1.0000
  H   H3792     1.0  0.67872  0.64731  0.87505  1.0000
  C   C2216     1.0  0.80469  0.50800  0.98209  1.0000
  H   H3793     1.0  0.53741  0.61197  0.84088  1.0000
  C   C2217     1.0  0.53297  0.59305  0.87319  1.0000
  N   N155      1.0  0.82300  0.57631  0.96867  1.0000
  H   H3794     1.0  0.81291  0.47039  0.75738  1.0000
  H   H3795     1.0  0.72011  0.65497  0.88885  1.0000
  H   H3796     1.0  0.84181  0.55942  0.98141  1.0000
  C   C2218     1.0  0.67065  0.64584  0.86749  1.0000
  C   C2219     1.0  0.81544  0.46682  0.74531  1.0000
  H   H3797     1.0  0.75660  0.63656  0.97732  1.0000
  H   H3798     1.0  0.89162  0.50187  0.76428  1.0000
  S   S635      1.0  0.90859  0.36829  0.74467  1.0000
  C   C2220     1.0  0.69534  0.57248  0.97773  1.0000
  H   H3799     1.0  0.87342  0.51820  0.76151  1.0000
  N   N156      1.0  0.73777  0.60575  0.97499  1.0000
  H   H3800     1.0  0.65918  0.61171  0.88033  1.0000
  H   H3801     1.0  0.79704  0.57484  0.97532  1.0000
  N   N157      1.0  0.60449  0.65302  0.97989  1.0000
  H   H3802     1.0  0.65669  0.60595  0.90203  1.0000
  H   H3803     1.0  0.83992  0.60967  0.96832  1.0000
  H   H3804     1.0  0.54581  0.58111  0.89416  1.0000
  C   C2221     1.0  0.66196  0.61465  0.89096  1.0000
  C   C2222     1.0  0.53706  0.59250  0.88984  1.0000
  H   H3805     1.0  0.54187  0.60351  0.88936  1.0000
  Fe  Fe314     1.0  0.90093  0.39596  0.73596  1.0000
  H   H3806     1.0  0.94362  0.32679  0.77932  1.0000
  H   H3807     1.0  0.71150  0.60732  0.97796  1.0000
  C   C2223     1.0  0.83205  0.60037  0.97450  1.0000
  H   H3808     1.0  0.62579  0.64857  0.95977  1.0000
  H   H3809     1.0  0.79066  0.47552  0.74075  1.0000
  H   H3810     1.0  0.85149  0.46760  0.74024  1.0000
  H   H3811     1.0  0.73149  0.58147  0.98150  1.0000
  H   H3812     1.0  0.73469  0.63862  0.98071  1.0000
  H   H3813     1.0  0.65039  0.63171  0.86079  1.0000
  H   H3814     1.0  0.79066  0.65158  0.94565  1.0000
  H   H3815     1.0  0.72674  0.48370  0.97359  1.0000
  H   H3816     1.0  0.86605  0.52236  0.73770  1.0000
  C   C2224     1.0  0.62624  0.63781  0.87654  1.0000
  H   H3817     1.0  0.74665  0.50562  0.74750  1.0000
  H   H3818     1.0  0.81955  0.47730  0.73565  1.0000
  N   N158      1.0  0.74568  0.65391  0.88950  1.0000
  C   C2225     1.0  0.74090  0.58762  0.98292  1.0000
  H   H3819     1.0  0.74803  0.65264  0.91438  1.0000
  H   H3820     1.0  0.64060  0.65277  0.85695  1.0000
  H   H3821     1.0  0.72284  0.50027  0.98370  1.0000
  H   H3822     1.0  0.57386  0.65565  0.96855  1.0000
  C   C2226     1.0  0.77122  0.50860  0.73416  1.0000
  C   C2227     1.0  0.59948  0.65533  0.91448  1.0000
  H   H3823     1.0  0.92328  0.95394  0.21920  1.0000
  H   H3824     1.0  0.88618  0.67622  0.13749  1.0000
  H   H3825     1.0  0.92208  0.78030  0.21596  1.0000
  Fe  Fe315     1.0  0.92239  0.79465  0.13382  1.0000
  S   S636      1.0  0.91436  0.79933  0.10981  1.0000
  S   S637      1.0  0.94436  0.77555  0.14086  1.0000
  Fe  Fe316     1.0  0.89650  0.82310  0.14617  1.0000
  S   S638      1.0  0.88556  0.83011  0.12362  1.0000
  S   S639      1.0  0.88694  0.83597  0.16773  1.0000
  Fe  Fe317     1.0  0.88860  0.80271  0.12562  1.0000
  S   S640      1.0  0.86734  0.79180  0.12530  1.0000
  Fe  Fe318     1.0  0.91209  0.82617  0.10972  1.0000
  S   S641      1.0  0.92032  0.84662  0.08912  1.0000
  S   S642      1.0  0.89686  0.79613  0.14977  1.0000
  S   S643      1.0  0.92273  0.82102  0.13218  1.0000
  Fe  Fe319     1.0  0.95595  0.68601  0.14998  1.0000
  S   S644      1.0  0.97449  0.69187  0.12635  1.0000
  S   S645      1.0  0.93141  0.70349  0.15489  1.0000
  H   H3826     1.0  0.98964  0.71710  0.07409  1.0000
  Fe  Fe320     1.0  0.90978  0.69975  0.05822  1.0000
  S   S646      1.0  0.91454  0.71180  0.03131  1.0000
  H   H3827     1.0  0.92482  0.75818  0.20326  1.0000
  Fe  Fe321     1.0  0.88281  0.72868  0.06734  1.0000
  S   S647      1.0  0.88485  0.74270  0.04101  1.0000
  S   S648      1.0  0.86431  0.73680  0.08939  1.0000
  Fe  Fe322     1.0  0.88656  0.71825  0.03449  1.0000
  S   S649      1.0  0.87607  0.71365  0.01427  1.0000
  Fe  Fe323     1.0  0.91243  0.73481  0.04024  1.0000
  S   S650      1.0  0.92805  0.75438  0.02974  1.0000
  S   S651      1.0  0.88210  0.70497  0.06102  1.0000
  S   S652      1.0  0.91010  0.72208  0.06700  1.0000
  C   C2228     1.0  0.91299  0.68301  0.00388  1.0000
  S   S653      1.0  0.91447  0.91786  0.20886  1.0000
  C   C2229     1.0  0.90218  0.79534  0.19626  1.0000
  Fe  Fe324     1.0  0.87326  0.92976  0.19323  1.0000
  S   S654      1.0  0.89767  0.93284  0.17635  1.0000
  S   S655      1.0  0.84906  0.93511  0.18516  1.0000
  Fe  Fe325     1.0  0.90748  0.90756  0.19053  1.0000
  S   S656      1.0  0.92346  0.88810  0.17607  1.0000
  Fe  Fe326     1.0  0.90198  0.94289  0.19628  1.0000
  S   S657      1.0  0.90859  0.96813  0.18982  1.0000
  S   S658      1.0  0.88264  0.90410  0.20629  1.0000
  S   S659      1.0  0.87659  0.94182  0.21197  1.0000
  C   C2230     1.0  0.84853  0.95158  0.16799  1.0000
  Fe  Fe327     1.0  0.88860  0.91627  0.22347  1.0000
  C   C2231     1.0  0.84796  0.68984  0.00023  1.0000
  H   H3828     1.0  0.81761  0.93505  0.21213  1.0000
  H   H3829     1.0  0.87420  0.94416  0.15637  1.0000
  H   H3830     1.0  0.94112  0.71036  0.11644  1.0000
  C   C2232     1.0  0.96410  0.65920  0.09456  1.0000
  H   H3831     1.0  0.89703  0.82091  0.20045  1.0000
  H   H3832     1.0  0.88949  0.67684  0.00766  1.0000
  H   H3833     1.0  0.86619  0.71058  0.14424  1.0000
  H   H3834     1.0  0.92636  0.66133  0.02725  1.0000
  H   H3835     1.0  0.78558  0.93011  0.23325  1.0000
  C   C2233     1.0  0.94868  0.75067  0.03233  1.0000
  C   C2234     1.0  0.95800  0.73459  0.03619  1.0000
  C   C2235     1.0  0.97443  0.73211  0.03815  1.0000
  C   C2236     1.0  0.98140  0.74564  0.03696  1.0000
  C   C2237     1.0  0.97204  0.76172  0.03320  1.0000
  C   C2238     1.0  0.95586  0.76421  0.03059  1.0000
  H   H3836     1.0  0.95265  0.72408  0.03739  1.0000
  H   H3837     1.0  0.95228  0.80006  0.17765  1.0000
  H   H3838     1.0  0.97732  0.77225  0.03212  1.0000
  H   H3839     1.0  0.94874  0.77669  0.02754  1.0000
  H   H3840     1.0  0.89624  0.79838  0.18539  1.0000
  H   H3841     1.0  0.96929  0.71850  0.07158  1.0000
  H   H3842     1.0  0.84043  0.94735  0.21652  1.0000
  H   H3843     1.0  0.92078  0.81161  0.21411  1.0000
  C   C2239     1.0  0.75273  0.72073  0.98952  1.0000
  C   C2240     1.0  0.89816  0.84934  0.17045  1.0000
  C   C2241     1.0  0.89195  0.85713  0.18393  1.0000
  C   C2242     1.0  0.89987  0.86868  0.18597  1.0000
  C   C2243     1.0  0.91409  0.87259  0.17455  1.0000
  C   C2244     1.0  0.92072  0.86428  0.16140  1.0000
  C   C2245     1.0  0.91273  0.85276  0.15929  1.0000
  H   H3844     1.0  0.88080  0.85442  0.19274  1.0000
  H   H3845     1.0  0.89502  0.87441  0.19650  1.0000
  H   H3846     1.0  0.93179  0.86716  0.15256  1.0000
  H   H3847     1.0  0.91763  0.84692  0.14882  1.0000
  C   C2246     1.0  0.86601  0.75267  0.09815  1.0000
  C   C2247     1.0  0.87959  0.76058  0.09286  1.0000
  C   C2248     1.0  0.88057  0.77246  0.10118  1.0000
  C   C2249     1.0  0.86776  0.77665  0.11450  1.0000
  C   C2250     1.0  0.85423  0.76882  0.11948  1.0000
  C   C2251     1.0  0.85343  0.75687  0.11147  1.0000
  H   H3848     1.0  0.88927  0.75750  0.08245  1.0000
  H   H3849     1.0  0.89096  0.77861  0.09709  1.0000
  H   H3850     1.0  0.84425  0.77205  0.12963  1.0000
  H   H3851     1.0  0.84289  0.75092  0.11560  1.0000
  C   C2252     1.0  0.93838  0.84011  0.07494  1.0000
  C   C2253     1.0  0.94517  0.85188  0.06200  1.0000
  C   C2254     1.0  0.96021  0.84706  0.05119  1.0000
  C   C2255     1.0  0.96857  0.83044  0.05332  1.0000
  C   C2256     1.0  0.96152  0.81864  0.06601  1.0000
  C   C2257     1.0  0.94650  0.82345  0.07686  1.0000
  H   H3852     1.0  0.93889  0.86478  0.06043  1.0000
  H   H3853     1.0  0.90999  0.69095  0.01297  1.0000
  H   H3854     1.0  0.96770  0.80584  0.06770  1.0000
  H   H3855     1.0  0.94133  0.81428  0.08679  1.0000
  C   C2258     1.0  0.94053  0.75552  0.14566  1.0000
  C   C2259     1.0  0.92452  0.75314  0.14728  1.0000
  C   C2260     1.0  0.92163  0.73707  0.15085  1.0000
  C   C2261     1.0  0.93485  0.72340  0.15211  1.0000
  C   C2262     1.0  0.95087  0.72576  0.15052  1.0000
  C   C2263     1.0  0.95365  0.74181  0.14756  1.0000
  H   H3856     1.0  0.91434  0.76363  0.14572  1.0000
  H   H3857     1.0  0.90919  0.73527  0.15239  1.0000
  H   H3858     1.0  0.96114  0.71525  0.15154  1.0000
  H   H3859     1.0  0.96609  0.74360  0.14623  1.0000
  C   C2264     1.0  0.83732  0.68416  0.01497  1.0000
  C   C2265     1.0  0.83851  0.68773  0.02969  1.0000
  C   C2266     1.0  0.85023  0.69670  0.02975  1.0000
  C   C2267     1.0  0.86082  0.70246  0.01500  1.0000
  C   C2268     1.0  0.85952  0.69903  0.00026  1.0000
  C   C2269     1.0  0.97430  0.80036  0.11944  1.0000
  H   H3860     1.0  0.83032  0.68347  0.04117  1.0000
  H   H3861     1.0  0.85099  0.69927  0.04119  1.0000
  H   H3862     1.0  0.92184  0.81892  0.18467  1.0000
  S   S660      1.0  0.97409  0.67879  0.16661  1.0000
  C   C2270     1.0  0.94071  0.67955  0.08516  1.0000
  C   C2271     1.0  0.95880  0.83586  0.11207  1.0000
  H   H3863     1.0  0.97622  0.78799  0.11660  1.0000
  C   C2272     1.0  0.61151  0.66200  0.98853  1.0000
  H   H3864     1.0  0.88091  0.98524  0.17537  1.0000
  C   C2273     1.0  0.85987  0.70023  0.12692  1.0000
  C   C2274     1.0  0.78885  0.98282  0.21933  1.0000
  N   N159      1.0  0.90169  0.65946  0.02655  1.0000
  C   C2275     1.0  0.98782  0.83124  0.11572  1.0000
  H   H3865     1.0  0.94174  0.77973  0.20238  1.0000
  H   H3866     1.0  0.95116  0.83016  0.10730  1.0000
  C   C2276     1.0  0.92005  0.96729  0.21760  1.0000
  C   C2277     1.0  0.95107  0.85457  0.10858  1.0000
  H   H3867     1.0  0.94603  0.81937  0.16394  1.0000
  C   C2278     1.0  0.86268  0.96734  0.14277  1.0000
  H   H3868     1.0  0.94185  0.80828  0.20254  1.0000
  H   H3869     1.0  0.97377  0.81153  0.09397  1.0000
  H   H3870     1.0  0.82215  0.98639  0.15307  1.0000
  C   C2279     1.0  0.94014  0.71982  0.10484  1.0000
  H   H3871     1.0  0.86237  0.70098  0.11339  1.0000
  S   S661      1.0  0.92233  0.67318  0.06609  1.0000
  C   C2280     1.0  0.90216  0.66989  0.00924  1.0000
  C   C2281     1.0  0.94349  0.80675  0.16942  1.0000
  H   H3872     1.0  0.90852  0.76242  0.19173  1.0000
  H   H3873     1.0  0.92135  0.78255  0.16992  1.0000
  H   H3874     1.0  0.62907  0.67763  0.98516  1.0000
  N   N160      1.0  0.97704  0.83046  0.10470  1.0000
  C   C2282     1.0  0.98795  0.84850  0.11791  1.0000
  C   C2283     1.0  0.84817  0.97959  0.14215  1.0000
  H   H3875     1.0  0.87389  0.96883  0.13350  1.0000
  H   H3876     1.0  0.86866  0.72198  0.12351  1.0000
  C   C2284     1.0  0.77715  0.69647  0.00806  1.0000
  H   H3877     1.0  0.94998  0.85919  0.09544  1.0000
  C   C2285     1.0  0.87109  0.70926  0.13114  1.0000
  H   H3878     1.0  0.96554  0.85625  0.04137  1.0000
  H   H3879     1.0  0.86074  0.68723  0.13384  1.0000
  H   H3880     1.0  0.89639  0.73258  0.11072  1.0000
  C   C2286     1.0  0.98124  0.84061  0.08746  1.0000
  C   C2287     1.0  0.89365  0.80878  0.20644  1.0000
  H   H3881     1.0  0.75256  0.96972  0.22779  1.0000
  C   C2288     1.0  0.91234  0.97688  0.20464  1.0000
  C   C2289     1.0  0.86291  0.95344  0.15580  1.0000
  Fe  Fe328     1.0  0.97764  0.66507  0.12609  1.0000
  C   C2290     1.0  0.83372  0.96324  0.16671  1.0000
  H   H3882     1.0  0.90734  0.67620  0.10471  1.0000
  N   N161      1.0  0.95381  0.74492  0.08916  1.0000
  C   C2291     1.0  0.95267  0.76222  0.09121  1.0000
  C   C2292     1.0  0.94461  0.74668  0.07580  1.0000
  H   H3883     1.0  0.88241  0.73797  0.12939  1.0000
  C   C2293     1.0  0.94653  0.73488  0.10554  1.0000
  C   C2294     1.0  0.96330  0.76373  0.10253  1.0000
  C   C2295     1.0  0.92628  0.75597  0.07881  1.0000
  H   H3884     1.0  0.82421  0.96166  0.20763  1.0000
  C   C2296     1.0  0.93847  0.66846  0.07686  1.0000
  H   H3885     1.0  0.95618  0.77051  0.07897  1.0000
  H   H3886     1.0  0.93965  0.76792  0.09646  1.0000
  H   H3887     1.0  0.94477  0.73461  0.07325  1.0000
  H   H3888     1.0  0.95095  0.75349  0.06392  1.0000
  H   H3889     1.0  0.97740  0.74576  0.07201  1.0000
  H   H3890     1.0  0.98167  0.71965  0.04086  1.0000
  H   H3891     1.0  0.95571  0.73036  0.11372  1.0000
  H   H3892     1.0  0.93565  0.74286  0.11218  1.0000
  H   H3893     1.0  0.97667  0.76209  0.09660  1.0000
  H   H3894     1.0  0.95936  0.77638  0.10515  1.0000
  H   H3895     1.0  0.96181  0.75475  0.11444  1.0000
  H   H3896     1.0  0.92529  0.76952  0.07688  1.0000
  H   H3897     1.0  0.92022  0.75429  0.06955  1.0000
  H   H3898     1.0  0.91919  0.75137  0.09128  1.0000
  H   H3899     1.0  0.91758  0.81202  0.16895  1.0000
  H   H3900     1.0  0.75131  0.69686  0.02247  1.0000
  H   H3901     1.0  0.94689  0.71362  0.09452  1.0000
  H   H3902     1.0  0.77042  0.71789  0.02978  1.0000
  C   C2297     1.0  0.83357  0.97729  0.15383  1.0000
  H   H3903     1.0  0.92677  0.72339  0.10452  1.0000
  C   C2298     1.0  0.89786  0.71270  0.13316  1.0000
  H   H3904     1.0  0.88318  0.68022  0.03422  1.0000
  H   H3905     1.0  0.89404  0.71238  0.14671  1.0000
  H   H3906     1.0  0.91156  0.70811  0.13073  1.0000
  H   H3907     1.0  0.90407  0.73717  0.12601  1.0000
  C   C2299     1.0  0.98006  0.81259  0.10336  1.0000
  H   H3908     1.0  0.95784  0.86215  0.11191  1.0000
  S   S662      1.0  0.99083  0.77792  0.06406  1.0000
  H   H3909     1.0  0.79152  0.70904  0.02350  1.0000
  H   H3910     1.0  0.88650  0.68611  0.15287  1.0000
  H   H3911     1.0  0.82250  0.96173  0.17596  1.0000
  H   H3912     1.0  0.75195  0.98599  0.19939  1.0000
  H   H3913     1.0  0.97287  0.83972  0.07993  1.0000
  S   S663      1.0  0.82208  0.67291  0.01581  1.0000
  C   C2300     1.0  0.83807  0.91685  0.23321  1.0000
  C   C2301     1.0  0.76028  0.72504  0.00196  1.0000
  N   N162      1.0  0.87213  0.88816  0.13980  1.0000
  C   C2302     1.0  0.86105  0.87874  0.15389  1.0000
  C   C2303     1.0  0.88206  0.89539  0.14722  1.0000
  C   C2304     1.0  0.88364  0.87605  0.12956  1.0000
  C   C2305     1.0  0.86103  0.90143  0.12974  1.0000
  C   C2306     1.0  0.85172  0.86807  0.14911  1.0000
  C   C2307     1.0  0.87201  0.90695  0.15910  1.0000
  C   C2308     1.0  0.90090  0.87975  0.12035  1.0000
  C   C2309     1.0  0.86955  0.91373  0.11562  1.0000
  H   H3914     1.0  0.86836  0.87034  0.16298  1.0000
  H   H3915     1.0  0.85131  0.88730  0.16093  1.0000
  H   H3916     1.0  0.89060  0.90248  0.13759  1.0000
  H   H3917     1.0  0.89028  0.88525  0.15424  1.0000
  H   H3918     1.0  0.88655  0.86347  0.13749  1.0000
  H   H3919     1.0  0.87751  0.87441  0.12028  1.0000
  H   H3920     1.0  0.85429  0.89583  0.12391  1.0000
  H   H3921     1.0  0.85121  0.90889  0.13787  1.0000
  H   H3922     1.0  0.84432  0.86167  0.16058  1.0000
  H   H3923     1.0  0.84285  0.87564  0.14123  1.0000
  H   H3924     1.0  0.86027  0.85817  0.14301  1.0000
  H   H3925     1.0  0.86507  0.90026  0.17067  1.0000
  H   H3926     1.0  0.88082  0.91199  0.16293  1.0000
  H   H3927     1.0  0.86348  0.91770  0.15318  1.0000
  H   H3928     1.0  0.90045  0.89244  0.11284  1.0000
  H   H3929     1.0  0.90695  0.87106  0.11186  1.0000
  H   H3930     1.0  0.90913  0.87757  0.12913  1.0000
  H   H3931     1.0  0.87633  0.92055  0.12003  1.0000
  H   H3932     1.0  0.85985  0.92319  0.10986  1.0000
  H   H3933     1.0  0.87785  0.90754  0.10573  1.0000
  C   C2310     1.0  0.92182  0.76212  0.19082  1.0000
  H   H3934     1.0  0.93671  0.79682  0.22310  1.0000
  H   H3935     1.0  0.60124  0.67044  0.99529  1.0000
  C   C2311     1.0  0.97626  0.71995  0.08010  1.0000
  N   N163      1.0  0.88946  0.70172  0.12835  1.0000
  C   C2312     1.0  0.76422  0.69033  0.02332  1.0000
  H   H3936     1.0  0.93267  0.69169  0.08460  1.0000
  H   H3937     1.0  0.98750  0.85825  0.10656  1.0000
  H   H3938     1.0  0.95510  0.68321  0.10080  1.0000
  H   H3939     1.0  0.94604  0.80036  0.15904  1.0000
  H   H3940     1.0  0.97913  0.73663  0.09284  1.0000
  C   C2313     1.0  0.89233  0.68500  0.13984  1.0000
  H   H3941     1.0  0.91005  0.70130  0.10727  1.0000
  H   H3942     1.0  0.75407  0.98312  0.13303  1.0000
  H   H3943     1.0  0.81173  0.90876  0.22769  1.0000
  H   H3944     1.0  0.89837  0.78385  0.20420  1.0000
  C   C2314     1.0  0.89488  0.73110  0.12421  1.0000
  H   H3945     1.0  0.91635  0.68162  0.14654  1.0000
  C   C2315     1.0  0.81623  0.93957  0.22358  1.0000
  N   N164      1.0  0.92085  0.79275  0.19065  1.0000
  C   C2316     1.0  0.92645  0.77886  0.18132  1.0000
  C   C2317     1.0  0.92513  0.80819  0.17863  1.0000
  H   H3946     1.0  0.78953  0.68898  0.01007  1.0000
  C   C2318     1.0  0.92925  0.78790  0.20520  1.0000
  C   C2319     1.0  0.76267  0.97585  0.22091  1.0000
  C   C2320     1.0  0.91073  0.67628  0.13944  1.0000
  H   H3947     1.0  0.87997  0.81084  0.20775  1.0000
  H   H3948     1.0  0.89421  0.68933  0.09174  1.0000
  H   H3949     1.0  0.89061  0.71213  0.10224  1.0000
  H   H3950     1.0  0.94023  0.77610  0.17709  1.0000
  H   H3951     1.0  0.76474  0.67704  0.02415  1.0000
  Fe  Fe329     1.0  0.81359  0.66142  0.99873  1.0000
  H   H3952     1.0  0.89607  0.80468  0.21913  1.0000
  C   C2321     1.0  0.95336  0.67478  0.09429  1.0000
  H   H3953     1.0  0.96087  0.80386  0.12477  1.0000
  H   H3954     1.0  0.97459  0.71057  0.09178  1.0000
  C   C2322     1.0  0.89659  0.70098  0.11038  1.0000
  H   H3955     1.0  0.88887  0.66752  0.06557  1.0000
  C   C2323     1.0  0.89552  0.68557  0.10481  1.0000
  H   H3956     1.0  0.90232  0.67754  0.03982  1.0000
  H   H3957     1.0  0.84234  0.91810  0.21957  1.0000
  H   H3958     1.0  0.76085  0.73837  0.99757  1.0000
  C   C2324     1.0  0.92417  0.97509  0.22812  1.0000
  C   C2325     1.0  0.93214  0.80209  0.21142  1.0000
  H   H3959     1.0  0.90605  0.97569  0.13560  1.0000
  C   C2326     1.0  0.89344  0.67054  0.03880  1.0000
  H   H3960     1.0  0.87191  0.66541  0.05862  1.0000
  H   H3961     1.0  0.78711  0.73743  0.02772  1.0000
  Fe  Fe330     1.0  0.99293  0.68268  0.14286  1.0000
  C   C2327     1.0  0.78105  0.71856  0.01897  1.0000
  H   H3962     1.0  0.95624  0.83142  0.12574  1.0000
  H   H3963     1.0  0.76699  0.69120  0.03495  1.0000
  C   C2328     1.0  0.82696  0.95275  0.21910  1.0000
  S   S664      1.0  0.75348  0.67272  0.99196  1.0000
  H   H3964     1.0  0.92905  0.75241  0.18374  1.0000
  H   H3965     1.0  0.84673  0.70672  0.13035  1.0000
  C   C2329     1.0  0.89981  0.98068  0.14691  1.0000
  H   H3966     1.0  0.98387  0.82414  0.12845  1.0000
  N   N165      1.0  0.77710  0.71468  0.00445  1.0000
  C   C2330     1.0  0.78514  0.73577  0.01601  1.0000
  H   H3967     1.0  0.88495  0.67970  0.11177  1.0000
  S   S665      1.0  0.98839  0.82511  0.04091  1.0000
  C   C2331     1.0  0.97194  0.73754  0.08346  1.0000
  H   H3968     1.0  0.77483  0.74593  0.01231  1.0000
  H   H3969     1.0  0.75097  0.72441  0.01386  1.0000
  H   H3970     1.0  0.90659  0.66194  0.99988  1.0000
  H   H3971     1.0  0.77526  0.69287  0.99725  1.0000
  C   C2332     1.0  0.77557  0.98480  0.14016  1.0000
  H   H3972     1.0  0.91838  0.67689  0.12674  1.0000
  H   H3973     1.0  0.91148  0.66300  0.14553  1.0000
  C   C2333     1.0  0.80815  0.71075  0.98941  1.0000
  C   C2334     1.0  0.76239  0.98497  0.20480  1.0000
  H   H3974     1.0  0.92647  0.67734  0.00162  1.0000
  H   H3975     1.0  0.93817  0.85659  0.11605  1.0000
  H   H3976     1.0  0.97763  0.85232  0.12808  1.0000
  H   H3977     1.0  0.77730  0.97145  0.14624  1.0000
  H   H3978     1.0  0.97886  0.85401  0.08724  1.0000
  H   H3979     1.0  0.86760  0.70343  0.98876  1.0000
  C   C2335     1.0  0.77567  0.97505  0.22836  1.0000
  H   H3980     1.0  0.81124  0.70965  0.00142  1.0000
  H   H3981     1.0  0.87376  0.65804  0.01258  1.0000
  H   H3982     1.0  0.79899  0.98213  0.22499  1.0000
  H   H3983     1.0  0.91041  0.69131  0.99206  1.0000
  H   H3984     1.0  0.71933  0.67328  0.99268  1.0000
  H   H3985     1.0  0.79680  0.73701  0.00668  1.0000
  C   C2336     1.0  0.88570  0.66225  0.05656  1.0000
  H   H3986     1.0  0.98170  0.79867  0.12883  1.0000
  H   H3987     1.0  0.86706  0.66146  0.03346  1.0000
  H   H3988     1.0  0.78398  0.98571  0.12779  1.0000
  H   H3989     1.0  0.89323  0.97113  0.15555  1.0000
  H   H3990     1.0  0.74964  0.70828  0.99387  1.0000
  Fe  Fe331     1.0  0.78092  0.66085  0.98979  1.0000
  H   H3991     1.0  0.80317  0.94647  0.22630  1.0000
  H   H3992     1.0  0.90968  0.98219  0.15226  1.0000
  C   C2337     1.0  0.78975  0.71868  0.98877  1.0000
  H   H3993     1.0  0.82400  0.95999  0.22885  1.0000
  H   H3994     1.0  0.74084  0.72971  0.98819  1.0000
  H   H3995     1.0  0.84721  0.68728  0.98879  1.0000
  S   S666      1.0  0.95754  0.65995  0.14834  1.0000
  H   H3996     1.0  0.81172  0.69827  0.98648  1.0000
  H   H3997     1.0  0.78864  0.73229  0.98411  1.0000
  H   H3998     1.0  0.99351  0.80750  0.09903  1.0000
  Fe  Fe332     1.0  0.71517  0.92189  0.42583  1.0000
  S   S667      1.0  0.72988  0.89781  0.43717  1.0000
  S   S668      1.0  0.69887  0.94030  0.44090  1.0000
  Fe  Fe333     1.0  0.72909  0.91644  0.39087  1.0000
  S   S669      1.0  0.74503  0.89175  0.39936  1.0000
  S   S670      1.0  0.73043  0.92400  0.36336  1.0000
  Fe  Fe334     1.0  0.72274  0.88739  0.41933  1.0000
  S   S671      1.0  0.71847  0.86148  0.42875  1.0000
  Fe  Fe335     1.0  0.75090  0.90416  0.41631  1.0000
  S   S672      1.0  0.77752  0.89949  0.41853  1.0000
  S   S673      1.0  0.70601  0.91101  0.40960  1.0000
  S   S674      1.0  0.73687  0.92934  0.40626  1.0000
  H   H3999     1.0  0.78403  0.96443  0.33180  1.0000
  Fe  Fe336     1.0  0.64741  0.82387  0.45356  1.0000
  S   S675      1.0  0.65779  0.79845  0.44809  1.0000
  S   S676      1.0  0.64875  0.84684  0.43356  1.0000
  C   C2338     1.0  0.68214  0.87888  0.46490  1.0000
  C   C2339     1.0  0.56666  0.72612  0.31375  1.0000
  S   S677      1.0  0.81131  0.97627  0.26042  1.0000
  H   H4000     1.0  0.52061  0.72538  0.34789  1.0000
  H   H4001     1.0  0.55671  0.79085  0.29635  1.0000
  S   S678      1.0  0.80146  0.82583  0.45522  1.0000
  C   C2340     1.0  0.50454  0.67820  0.38070  1.0000
  H   H4002     1.0  0.79707  0.90548  0.33461  1.0000
  H   H4003     1.0  0.49846  0.70089  0.31587  1.0000
  H   H4004     1.0  0.50700  0.80977  0.30935  1.0000
  H   H4005     1.0  0.88462  0.94715  0.26740  1.0000
  H   H4006     1.0  0.73366  0.92097  0.45439  1.0000
  Fe  Fe337     1.0  0.81020  0.96488  0.28735  1.0000
  S   S679      1.0  0.82954  0.94549  0.29913  1.0000
  S   S680      1.0  0.78500  0.95935  0.29168  1.0000
  Fe  Fe338     1.0  0.55082  0.75667  0.42112  1.0000
  S   S681      1.0  0.55122  0.76349  0.39380  1.0000
  S   S682      1.0  0.56466  0.77283  0.42804  1.0000
  Fe  Fe339     1.0  0.52713  0.73301  0.42611  1.0000
  S   S683      1.0  0.52617  0.73813  0.39942  1.0000
  H   H4007     1.0  0.50776  0.85639  0.28180  1.0000
  Fe  Fe340     1.0  0.55354  0.73650  0.39502  1.0000
  S   S684      1.0  0.57314  0.72525  0.37534  1.0000
  Fe  Fe341     1.0  0.52389  0.76446  0.40077  1.0000
  N   N166      1.0  0.50999  0.67339  0.39701  1.0000
  S   S685      1.0  0.55511  0.72929  0.42186  1.0000
  S   S686      1.0  0.52283  0.75963  0.42791  1.0000
  H   H4008     1.0  0.53976  0.79631  0.31249  1.0000
  H   H4009     1.0  0.69620  0.80994  0.48015  1.0000
  C   C2341     1.0  0.87840  0.96968  0.24818  1.0000
  H   H4010     1.0  0.68756  0.88887  0.46590  1.0000
  H   H4011     1.0  0.52816  0.72041  0.28440  1.0000
  S   S687      1.0  0.55417  0.65625  0.30821  1.0000
  H   H4012     1.0  0.59605  0.68541  0.33989  1.0000
  C   C2342     1.0  0.79300  0.95403  0.33754  1.0000
  H   H4013     1.0  0.81969  0.93195  0.34359  1.0000
  C   C2343     1.0  0.52628  0.73352  0.28514  1.0000
  C   C2344     1.0  0.49787  0.83558  0.30989  1.0000
  H   H4014     1.0  0.53148  0.70210  0.31013  1.0000
  S   S688      1.0  0.75641  0.98859  0.32120  1.0000
  H   H4015     1.0  0.76334  0.90289  0.45442  1.0000
  Fe  Fe342     1.0  0.63493  0.79170  0.46637  1.0000
  C   C2345     1.0  0.50856  0.78245  0.36824  1.0000
  H   H4016     1.0  0.77104  0.78845  0.46935  1.0000
  H   H4017     1.0  0.53603  0.83741  0.29488  1.0000
  C   C2346     1.0  0.51236  0.77768  0.33629  1.0000
  C   C2347     1.0  0.52454  0.76930  0.34549  1.0000
  C   C2348     1.0  0.52250  0.77149  0.36156  1.0000
  H   H4018     1.0  0.77262  0.92620  0.38804  1.0000
  C   C2349     1.0  0.77348  0.78489  0.45729  1.0000
  H   H4019     1.0  0.53540  0.76091  0.34038  1.0000
  H   H4020     1.0  0.53176  0.76471  0.36875  1.0000
  C   C2350     1.0  0.57096  0.71053  0.36540  1.0000
  C   C2351     1.0  0.55575  0.70622  0.36677  1.0000
  C   C2352     1.0  0.55514  0.69432  0.35828  1.0000
  C   C2353     1.0  0.56976  0.68665  0.34867  1.0000
  C   C2354     1.0  0.58530  0.70307  0.35549  1.0000
  H   H4021     1.0  0.54458  0.71213  0.37425  1.0000
  H   H4022     1.0  0.54351  0.69105  0.35917  1.0000
  H   H4023     1.0  0.54358  0.80784  0.27489  1.0000
  H   H4024     1.0  0.52199  0.70590  0.34239  1.0000
  C   C2355     1.0  0.65729  0.86953  0.46571  1.0000
  S   S689      1.0  0.69630  0.77992  0.46974  1.0000
  C   C2356     1.0  0.86893  0.91656  0.26389  1.0000
  C   C2357     1.0  0.86000  0.93222  0.25776  1.0000
  C   C2358     1.0  0.84781  0.94112  0.26853  1.0000
  C   C2359     1.0  0.84469  0.93450  0.28550  1.0000
  C   C2360     1.0  0.85385  0.91900  0.29172  1.0000
  C   C2361     1.0  0.86586  0.90998  0.28091  1.0000
  H   H4025     1.0  0.80968  0.91042  0.27223  1.0000
  H   H4026     1.0  0.84110  0.95324  0.26371  1.0000
  H   H4027     1.0  0.85155  0.91387  0.30488  1.0000
  H   H4028     1.0  0.87282  0.89790  0.28573  1.0000
  C   C2362     1.0  0.60528  0.77288  0.45483  1.0000
  C   C2363     1.0  0.59822  0.78730  0.44469  1.0000
  C   C2364     1.0  0.58566  0.78704  0.43685  1.0000
  C   C2365     1.0  0.58005  0.77240  0.43890  1.0000
  C   C2366     1.0  0.58701  0.75802  0.44916  1.0000
  C   C2367     1.0  0.59954  0.75828  0.45703  1.0000
  H   H4029     1.0  0.60245  0.79864  0.44284  1.0000
  H   H4030     1.0  0.58036  0.79828  0.42901  1.0000
  H   H4031     1.0  0.58279  0.74668  0.45099  1.0000
  H   H4032     1.0  0.51295  0.73835  0.29003  1.0000
  C   C2368     1.0  0.51939  0.72791  0.32195  1.0000
  C   C2369     1.0  0.73700  0.94237  0.35197  1.0000
  C   C2370     1.0  0.74163  0.94473  0.33470  1.0000
  C   C2371     1.0  0.74760  0.95886  0.32521  1.0000
  C   C2372     1.0  0.74870  0.97091  0.33292  1.0000
  C   C2373     1.0  0.74379  0.96873  0.35018  1.0000
  C   C2374     1.0  0.73807  0.95443  0.35971  1.0000
  H   H4033     1.0  0.74067  0.93552  0.32864  1.0000
  H   H4034     1.0  0.75100  0.96061  0.31191  1.0000
  H   H4035     1.0  0.74453  0.97806  0.35619  1.0000
  H   H4036     1.0  0.73435  0.95280  0.37300  1.0000
  C   C2375     1.0  0.78415  0.87905  0.42879  1.0000
  C   C2376     1.0  0.77273  0.87045  0.44033  1.0000
  C   C2377     1.0  0.77813  0.85445  0.44913  1.0000
  C   C2378     1.0  0.79483  0.84649  0.44554  1.0000
  C   C2379     1.0  0.80625  0.85490  0.43368  1.0000
  C   C2380     1.0  0.80098  0.87133  0.42562  1.0000
  H   H4037     1.0  0.75974  0.87618  0.44256  1.0000
  H   H4038     1.0  0.76926  0.84819  0.45838  1.0000
  H   H4039     1.0  0.81918  0.84880  0.43084  1.0000
  H   H4040     1.0  0.80987  0.87791  0.41666  1.0000
  C   C2381     1.0  0.69991  0.85723  0.42737  1.0000
  C   C2382     1.0  0.68779  0.86952  0.42035  1.0000
  C   C2383     1.0  0.67229  0.86606  0.42123  1.0000
  C   C2384     1.0  0.66899  0.85034  0.42916  1.0000
  C   C2385     1.0  0.68153  0.83785  0.43522  1.0000
  C   C2386     1.0  0.69688  0.84132  0.43444  1.0000
  H   H4041     1.0  0.69016  0.88177  0.41464  1.0000
  H   H4042     1.0  0.66266  0.87571  0.41639  1.0000
  H   H4043     1.0  0.67931  0.82554  0.44080  1.0000
  H   H4044     1.0  0.70625  0.83168  0.43967  1.0000
  H   H4045     1.0  0.82639  0.83243  0.47207  1.0000
  C   C2387     1.0  0.69447  0.94841  0.47060  1.0000
  C   C2388     1.0  0.69727  0.93549  0.46241  1.0000
  H   H4046     1.0  0.50439  0.81421  0.28088  1.0000
  H   H4047     1.0  0.76944  0.90511  0.36619  1.0000
  H   H4048     1.0  0.69365  0.96103  0.46359  1.0000
  H   H4049     1.0  0.70070  0.90921  0.46521  1.0000
  C   C2389     1.0  0.53512  0.80691  0.28730  1.0000
  H   H4050     1.0  0.53601  0.67439  0.41292  1.0000
  H   H4051     1.0  0.63341  0.77053  0.37431  1.0000
  H   H4052     1.0  0.59001  0.79050  0.37206  1.0000
  H   H4053     1.0  0.68658  0.85205  0.47516  1.0000
  H   H4054     1.0  0.57220  0.71270  0.31480  1.0000
  H   H4055     1.0  0.53365  0.74911  0.29668  1.0000
  C   C2390     1.0  0.54217  0.70643  0.31154  1.0000
  H   H4056     1.0  0.54254  0.83484  0.27410  1.0000
  C   C2391     1.0  0.84304  0.89808  0.24027  1.0000
  H   H4057     1.0  0.50360  0.66720  0.37676  1.0000
  H   H4058     1.0  0.76568  0.93060  0.36933  1.0000
  H   H4059     1.0  0.61503  0.77314  0.41498  1.0000
  C   C2392     1.0  0.51118  0.82458  0.27678  1.0000
  C   C2393     1.0  0.77557  0.87650  0.47966  1.0000
  H   H4060     1.0  0.55016  0.73498  0.28769  1.0000
  H   H4061     1.0  0.57894  0.79646  0.47513  1.0000
  C   C2394     1.0  0.77420  0.90618  0.35270  1.0000
  H   H4062     1.0  0.84663  0.97806  0.29900  1.0000
  H   H4063     1.0  0.79275  0.95615  0.34979  1.0000
  H   H4064     1.0  0.84611  0.92304  0.23676  1.0000
  S   S690      1.0  0.51456  0.77432  0.31651  1.0000
  H   H4065     1.0  0.76634  0.91658  0.34564  1.0000
  H   H4066     1.0  0.76609  0.77561  0.45838  1.0000
  H   H4067     1.0  0.83277  0.84427  0.48250  1.0000
  H   H4068     1.0  0.53727  0.66256  0.37135  1.0000
  H   H4069     1.0  0.60485  0.74705  0.46488  1.0000
  H   H4070     1.0  0.82642  0.89438  0.34653  1.0000
  C   C2395     1.0  0.82705  0.90566  0.35021  1.0000
  C   C2396     1.0  0.49848  0.78869  0.34295  1.0000
  C   C2397     1.0  0.83575  0.79769  0.47900  1.0000
  Fe  Fe343     1.0  0.52675  0.66678  0.31168  1.0000
  C   C2398     1.0  0.68732  0.86363  0.47823  1.0000
  C   C2399     1.0  0.49816  0.71070  0.27487  1.0000
  H   H4071     1.0  0.80538  0.95478  0.32937  1.0000
  H   H4072     1.0  0.52897  0.79650  0.28863  1.0000
  H   H4073     1.0  0.63899  0.87838  0.44975  1.0000
  H   H4074     1.0  0.77278  0.89473  0.34991  1.0000
  C   C2400     1.0  0.81804  0.91922  0.26926  1.0000
  H   H4075     1.0  0.79647  0.91124  0.37523  1.0000
  H   H4076     1.0  0.83831  0.89444  0.25370  1.0000
  H   H4077     1.0  0.51408  0.68358  0.37061  1.0000
  H   H4078     1.0  0.61137  0.71827  0.39466  1.0000
  S   S691      1.0  0.80089  0.98898  0.29568  1.0000
  C   C2401     1.0  0.66079  0.89714  0.45003  1.0000
  C   C2402     1.0  0.63942  0.87303  0.46296  1.0000
  H   H4079     1.0  0.52929  0.74072  0.27230  1.0000
  C   C2403     1.0  0.81548  0.92119  0.34230  1.0000
  C   C2404     1.0  0.66804  0.91277  0.44612  1.0000
  H   H4080     1.0  0.56973  0.73301  0.30084  1.0000
  H   H4081     1.0  0.66552  0.86274  0.45616  1.0000
  H   H4082     1.0  0.84011  0.90726  0.34557  1.0000
  H   H4083     1.0  0.56508  0.68975  0.30262  1.0000
  H   H4084     1.0  0.68876  0.87587  0.45267  1.0000
  H   H4085     1.0  0.66591  0.89131  0.43909  1.0000
  H   H4086     1.0  0.64727  0.90178  0.45029  1.0000
  H   H4087     1.0  0.62880  0.75623  0.42464  1.0000
  C   C2405     1.0  0.52330  0.65779  0.39720  1.0000
  C   C2406     1.0  0.51998  0.82484  0.25854  1.0000
  H   H4088     1.0  0.87138  0.79234  0.46226  1.0000
  H   H4089     1.0  0.82440  0.90376  0.36387  1.0000
  C   C2407     1.0  0.79267  0.90713  0.34764  1.0000
  C   C2408     1.0  0.55680  0.70130  0.29747  1.0000
  C   C2409     1.0  0.51623  0.71927  0.34040  1.0000
  H   H4090     1.0  0.66703  0.91957  0.43333  1.0000
  H   H4091     1.0  0.68141  0.91010  0.44635  1.0000
  H   H4092     1.0  0.66069  0.92148  0.45421  1.0000
  S   S692      1.0  0.62119  0.77232  0.46509  1.0000
  H   H4093     1.0  0.54537  0.69885  0.32343  1.0000
  S   S693      1.0  0.62368  0.81772  0.47046  1.0000
  N   N167      1.0  0.60946  0.75290  0.39429  1.0000
  C   C2410     1.0  0.59612  0.74323  0.39703  1.0000
  C   C2411     1.0  0.60148  0.77105  0.39015  1.0000
  C   C2412     1.0  0.61552  0.74890  0.41023  1.0000
  C   C2413     1.0  0.62331  0.74753  0.38047  1.0000
  H   H4094     1.0  0.60996  0.77919  0.38930  1.0000
  H   H4095     1.0  0.78338  0.91013  0.24523  1.0000
  C   C2414     1.0  0.62402  0.76146  0.41306  1.0000
  C   C2415     1.0  0.63745  0.75723  0.37401  1.0000
  H   H4096     1.0  0.58489  0.74793  0.40604  1.0000
  H   H4097     1.0  0.59185  0.74483  0.38543  1.0000
  H   H4098     1.0  0.50262  0.72040  0.34521  1.0000
  H   H4099     1.0  0.59084  0.77430  0.40031  1.0000
  H   H4100     1.0  0.60494  0.74762  0.42103  1.0000
  H   H4101     1.0  0.62434  0.73669  0.41162  1.0000
  H   H4102     1.0  0.62956  0.73441  0.38436  1.0000
  H   H4103     1.0  0.61841  0.74731  0.36972  1.0000
  C   C2416     1.0  0.59505  0.77693  0.37392  1.0000
  H   H4104     1.0  0.85666  0.80244  0.44180  1.0000
  Fe  Fe344     1.0  0.66971  0.79401  0.46983  1.0000
  C   C2417     1.0  0.51632  0.68759  0.39876  1.0000
  H   H4105     1.0  0.81435  0.92594  0.27956  1.0000
  C   C2418     1.0  0.52142  0.85456  0.27790  1.0000
  H   H4106     1.0  0.81133  0.90217  0.24915  1.0000
  H   H4107     1.0  0.63470  0.76423  0.40303  1.0000
  H   H4108     1.0  0.58467  0.77121  0.37434  1.0000
  H   H4109     1.0  0.64759  0.75154  0.38094  1.0000
  H   H4110     1.0  0.84922  0.77936  0.46343  1.0000
  H   H4111     1.0  0.64267  0.75692  0.36075  1.0000
  N   N168      1.0  0.75312  0.81095  0.44550  1.0000
  C   C2419     1.0  0.77028  0.80002  0.44311  1.0000
  C   C2420     1.0  0.75132  0.82324  0.42952  1.0000
  C   C2421     1.0  0.73989  0.80088  0.45006  1.0000
  C   C2422     1.0  0.75111  0.81947  0.45941  1.0000
  H   H4112     1.0  0.50399  0.70614  0.26363  1.0000
  C   C2423     1.0  0.76191  0.83658  0.42442  1.0000
  C   C2424     1.0  0.74041  0.79060  0.43758  1.0000
  C   C2425     1.0  0.73553  0.83353  0.46181  1.0000
  H   H4113     1.0  0.77331  0.79536  0.43149  1.0000
  H   H4114     1.0  0.77993  0.80723  0.44155  1.0000
  H   H4115     1.0  0.73814  0.82967  0.42977  1.0000
  H   H4116     1.0  0.75474  0.81679  0.41904  1.0000
  H   H4117     1.0  0.74033  0.79232  0.46221  1.0000
  H   H4118     1.0  0.72724  0.80887  0.45175  1.0000
  H   H4119     1.0  0.93035  0.96768  0.23797  1.0000
  H   H4120     1.0  0.76219  0.82478  0.45761  1.0000
  H   H4121     1.0  0.77535  0.83122  0.42366  1.0000
  H   H4122     1.0  0.76036  0.84406  0.41197  1.0000
  H   H4123     1.0  0.75767  0.84541  0.43279  1.0000
  H   H4124     1.0  0.73057  0.78319  0.44282  1.0000
  H   H4125     1.0  0.75241  0.78173  0.43520  1.0000
  H   H4126     1.0  0.73757  0.79865  0.42578  1.0000
  H   H4127     1.0  0.78679  0.77861  0.45464  1.0000
  H   H4128     1.0  0.72542  0.83321  0.45617  1.0000
  H   H4129     1.0  0.51100  0.72413  0.31639  1.0000
  H   H4130     1.0  0.80161  0.93116  0.36885  1.0000
  H   H4131     1.0  0.52543  0.69178  0.38746  1.0000
  H   H4132     1.0  0.59706  0.70634  0.35428  1.0000
  H   H4133     1.0  0.77451  0.93955  0.34300  1.0000
  H   H4134     1.0  0.81837  0.92153  0.32876  1.0000
  H   H4135     1.0  0.79902  0.89588  0.35537  1.0000
  H   H4136     1.0  0.82496  0.94026  0.25163  1.0000
  C   C2426     1.0  0.54786  0.72909  0.32109  1.0000
  H   H4137     1.0  0.72932  0.89800  0.47235  1.0000
  C   C2427     1.0  0.74456  0.92517  0.45518  1.0000
  N   N169      1.0  0.52235  0.82286  0.28843  1.0000
  C   C2428     1.0  0.86353  0.80467  0.46401  1.0000
  C   C2429     1.0  0.51230  0.82107  0.30592  1.0000
  C   C2430     1.0  0.53131  0.83698  0.28410  1.0000
  H   H4138     1.0  0.50120  0.83585  0.27686  1.0000
  H   H4139     1.0  0.56480  0.71034  0.29130  1.0000
  C   C2431     1.0  0.69834  0.91919  0.47154  1.0000
  C   C2432     1.0  0.79344  0.92373  0.36720  1.0000
  H   H4140     1.0  0.86837  0.96507  0.24582  1.0000
  H   H4141     1.0  0.50251  0.84664  0.30951  1.0000
  H   H4142     1.0  0.52026  0.81930  0.31489  1.0000
  H   H4143     1.0  0.84677  0.98854  0.25232  1.0000
  C   C2433     1.0  0.81645  0.93195  0.25303  1.0000
  C   C2434     1.0  0.77553  0.93196  0.37468  1.0000
  S   S694      1.0  0.51248  0.71493  0.44421  1.0000
  H   H4144     1.0  0.51456  0.74138  0.32141  1.0000
  C   C2435     1.0  0.50276  0.70189  0.28977  1.0000
  H   H4145     1.0  0.52511  0.86365  0.28265  1.0000
  C   C2436     1.0  0.83735  0.83411  0.47556  1.0000
  Fe  Fe345     1.0  0.78510  0.97317  0.26546  1.0000
  H   H4146     1.0  0.75069  0.93010  0.44230  1.0000
  C   C2437     1.0  0.54654  0.80125  0.29992  1.0000
  H   H4147     1.0  0.84410  0.82044  0.44958  1.0000
  H   H4148     1.0  0.57279  0.73059  0.32117  1.0000
  N   N170      1.0  0.81992  0.92517  0.23765  1.0000
  C   C2438     1.0  0.52467  0.68436  0.41356  1.0000
  C   C2439     1.0  0.74030  0.89026  0.47729  1.0000
  H   H4149     1.0  0.80378  0.93984  0.25500  1.0000
  H   H4150     1.0  0.63521  0.86113  0.46607  1.0000
  N   N171      1.0  0.66370  0.88446  0.46556  1.0000
  H   H4151     1.0  0.79046  0.93572  0.32584  1.0000
  Fe  Fe346     1.0  0.78854  0.81979  0.48183  1.0000
  H   H4152     1.0  0.73890  0.84587  0.45720  1.0000
  C   C2440     1.0  0.75720  0.91107  0.46344  1.0000
  S   S695      1.0  0.52405  0.67241  0.33648  1.0000
  N   N172      1.0  0.87100  0.98286  0.25835  1.0000
  C   C2441     1.0  0.85659  0.81230  0.44804  1.0000
  S   S696      1.0  0.77525  0.96366  0.24872  1.0000
  H   H4153     1.0  0.59028  0.71873  0.40464  1.0000
  H   H4154     1.0  0.52865  0.69579  0.41338  1.0000
  C   C2442     1.0  0.53748  0.73592  0.29545  1.0000
  H   H4155     1.0  0.54356  0.74237  0.32194  1.0000
  H   H4156     1.0  0.89498  0.94573  0.24676  1.0000
  S   S697      1.0  0.57061  0.67132  0.33795  1.0000
  H   H4157     1.0  0.49983  0.66676  0.42329  1.0000
  S   S698      1.0  0.51864  0.68403  0.28921  1.0000
  C   C2443     1.0  0.83885  0.78081  0.47424  1.0000
  H   H4158     1.0  0.74728  0.88327  0.46750  1.0000
  H   H4159     1.0  0.60400  0.72114  0.41586  1.0000
  H   H4160     1.0  0.55215  0.69806  0.28803  1.0000
  C   C2444     1.0  0.60102  0.72432  0.40343  1.0000
  H   H4161     1.0  0.83108  0.91251  0.26915  1.0000
  H   H4162     1.0  0.77454  0.94527  0.37422  1.0000
  H   H4163     1.0  0.75070  0.81038  0.47142  1.0000
  C   C2445     1.0  0.86416  0.97464  0.27591  1.0000
  H   H4164     1.0  0.52487  0.85823  0.26421  1.0000
  C   C2446     1.0  0.58472  0.69120  0.34730  1.0000
  H   H4165     1.0  0.54684  0.72188  0.33399  1.0000
  S   S699      1.0  0.50518  0.78427  0.38873  1.0000
  N   N173      1.0  0.53710  0.72455  0.31227  1.0000
  C   C2447     1.0  0.78817  0.93754  0.33872  1.0000
  H   H4166     1.0  0.60511  0.77472  0.36303  1.0000
  C   C2448     1.0  0.89058  0.95428  0.25552  1.0000
  H   H4167     1.0  0.85976  0.96348  0.27610  1.0000
  H   H4168     1.0  0.87411  0.97002  0.28322  1.0000
  N   N174      1.0  0.79704  0.92252  0.34928  1.0000
  H   H4169     1.0  0.73029  0.83278  0.47522  1.0000
  H   H4170     1.0  0.89539  0.98224  0.26208  1.0000
  C   C2449     1.0  0.53949  0.65919  0.38410  1.0000
  H   H4171     1.0  0.90179  0.95742  0.25705  1.0000
  S   S700      1.0  0.66089  0.81990  0.47397  1.0000
  H   H4172     1.0  0.51602  0.68161  0.42561  1.0000
  C   C2450     1.0  0.78996  0.92027  0.24344  1.0000
  N   N175      1.0  0.75030  0.90106  0.48002  1.0000
  H   H4173     1.0  0.52672  0.81224  0.25672  1.0000
  H   H4174     1.0  0.74017  0.93566  0.46163  1.0000
  H   H4175     1.0  0.70050  0.86252  0.47863  1.0000
  H   H4176     1.0  0.86244  0.93750  0.24476  1.0000
  H   H4177     1.0  0.50602  0.69860  0.39993  1.0000
  H   H4178     1.0  0.66721  0.91142  0.47806  1.0000
  H   H4179     1.0  0.85683  0.89435  0.23810  1.0000
  H   H4180     1.0  0.54597  0.66805  0.38585  1.0000
  Fe  Fe347     1.0  0.77553  0.98435  0.29811  1.0000
  H   H4181     1.0  0.82885  0.80693  0.47017  1.0000
  H   H4182     1.0  0.76722  0.91675  0.46424  1.0000
  S   S701      1.0  0.88382  0.90487  0.25063  1.0000
  H   H4183     1.0  0.55237  0.81124  0.30029  1.0000
  H   H4184     1.0  0.87228  0.81219  0.46427  1.0000
  H   H4185     1.0  0.84641  0.83847  0.46435  1.0000
  Fe  Fe348     1.0  0.55106  0.66042  0.33374  1.0000
  H   H4186     1.0  0.88545  0.97488  0.23580  1.0000
  C   C2451     1.0  0.65430  0.89113  0.48083  1.0000
  H   H4187     1.0  0.86509  0.81999  0.43912  1.0000
  H   H4188     1.0  0.76861  0.86688  0.48075  1.0000
  H   H4189     1.0  0.83763  0.98649  0.28127  1.0000
  H   H4190     1.0  0.78114  0.88095  0.46650  1.0000
  H   H4191     1.0  0.82744  0.77973  0.47102  1.0000
  C   C2452     1.0  0.70869  0.78445  0.48086  1.0000
  H   H4192     1.0  0.51046  0.82894  0.25078  1.0000
  H   H4193     1.0  0.64203  0.89908  0.47897  1.0000
  H   H4194     1.0  0.52860  0.83350  0.25384  1.0000
  C   C2453     1.0  0.80889  0.91337  0.23934  1.0000
  C   C2454     1.0  0.84903  0.98492  0.28594  1.0000
  H   H4195     1.0  0.65752  0.86040  0.47768  1.0000
  H   H4196     1.0  0.78593  0.92488  0.25510  1.0000
  H   H4197     1.0  0.63053  0.88128  0.47080  1.0000
  N   N176      1.0  0.85100  0.80275  0.48018  1.0000
  C   C2455     1.0  0.49681  0.79139  0.35875  1.0000
  H   H4198     1.0  0.72388  0.75981  0.48342  1.0000
  H   H4199     1.0  0.83883  0.89082  0.23376  1.0000
  Fe  Fe349     1.0  0.92213  0.78390  0.55511  1.0000
  S   S702      1.0  0.92471  0.78168  0.58099  1.0000
  S   S703      1.0  0.94237  0.77526  0.53458  1.0000
  Fe  Fe350     1.0  0.88588  0.80187  0.56074  1.0000
  S   S704      1.0  0.88525  0.80154  0.58717  1.0000
  S   S705      1.0  0.86385  0.81639  0.54924  1.0000
  Fe  Fe351     1.0  0.91042  0.80791  0.57822  1.0000
  S   S706      1.0  0.91595  0.82871  0.58608  1.0000
  Fe  Fe352     1.0  0.89941  0.77547  0.58793  1.0000
  S   S707      1.0  0.89287  0.75675  0.61084  1.0000
  S   S708      1.0  0.90987  0.81081  0.55158  1.0000
  S   S709      1.0  0.89809  0.77503  0.56228  1.0000
  Fe  Fe353     1.0  0.96245  0.81190  0.65731  1.0000
  S   S710      1.0  0.96772  0.79852  0.68245  1.0000
  S   S711      1.0  0.93680  0.82486  0.65291  1.0000
  H   H4200     1.0  0.70190  0.96672  0.53755  1.0000
  Fe  Fe354     1.0  0.98305  0.77843  0.66896  1.0000
  H   H4201     1.0  0.68204  0.98376  0.69698  1.0000
  S   S712      1.0  0.97648  0.79123  0.64447  1.0000
  H   H4202     1.0  0.65182  0.96483  0.54689  1.0000
  H   H4203     1.0  0.95755  0.79404  0.57668  1.0000
  Fe  Fe355     1.0  0.94522  0.67569  0.62305  1.0000
  S   S713      1.0  0.92845  0.67690  0.64781  1.0000
  S   S714      1.0  0.93396  0.68604  0.60060  1.0000
  Fe  Fe356     1.0  0.94804  0.68701  0.65281  1.0000
  S   S715      1.0  0.94035  0.71199  0.66029  1.0000
  H   H4204     1.0  0.90024  0.65697  0.66046  1.0000
  S   S716      1.0  0.96384  0.68723  0.62744  1.0000
  C   C2456     1.0  0.73901  0.91206  0.49134  1.0000
  Fe  Fe357     1.0  0.66834  0.95185  0.64994  1.0000
  S   S717      1.0  0.64394  0.96957  0.64874  1.0000
  S   S718      1.0  0.68098  0.93714  0.62987  1.0000
  Fe  Fe358     1.0  0.66830  0.95710  0.68429  1.0000
  C   C2457     1.0  0.98856  0.72993  0.54201  1.0000
  S   S719      1.0  0.67922  0.94908  0.70724  1.0000
  Fe  Fe359     1.0  0.63625  0.95700  0.67509  1.0000
  S   S720      1.0  0.61091  0.95088  0.68322  1.0000
  H   H4205     1.0  0.67346  0.79184  0.52690  1.0000
  H   H4206     1.0  0.99379  0.87777  0.68503  1.0000
  S   S721      1.0  0.66009  0.93833  0.67590  1.0000
  S   S722      1.0  0.67932  0.96879  0.65830  1.0000
  Fe  Fe360     1.0  0.67650  0.90777  0.53479  1.0000
  S   S723      1.0  0.67571  0.88316  0.53097  1.0000
  S   S724      1.0  0.69284  0.92507  0.51825  1.0000
  Fe  Fe361     1.0  0.65169  0.90466  0.56798  1.0000
  S   S725      1.0  0.64834  0.87967  0.56693  1.0000
  S   S726      1.0  0.63887  0.91838  0.58888  1.0000
  Fe  Fe362     1.0  0.67603  0.87451  0.55796  1.0000
  S   S727      1.0  0.69295  0.85085  0.56676  1.0000
  Fe  Fe363     1.0  0.64813  0.89033  0.54000  1.0000
  S   S728      1.0  0.63155  0.88705  0.52488  1.0000
  S   S729      1.0  0.67938  0.89845  0.56108  1.0000
  S   S730      1.0  0.64883  0.91597  0.54173  1.0000
  C   C2458     1.0  0.97754  0.82970  0.59873  1.0000
  S   S731      1.0  0.63018  0.81594  0.51639  1.0000
  H   H4207     1.0  0.65136  0.88088  0.49144  1.0000
  Fe  Fe364     1.0  0.79688  0.79948  0.51450  1.0000
  S   S732      1.0  0.79909  0.82516  0.50062  1.0000
  S   S733      1.0  0.81816  0.78281  0.52601  1.0000
  Fe  Fe365     1.0  0.76225  0.80372  0.50719  1.0000
  H   H4208     1.0  0.99328  0.67906  0.57615  1.0000
  C   C2459     1.0  0.89229  0.68090  0.62306  1.0000
  H   H4209     1.0  0.97847  0.77584  0.58413  1.0000
  Fe  Fe366     1.0  0.77264  0.83239  0.51325  1.0000
  S   S734      1.0  0.76430  0.85544  0.52338  1.0000
  H   H4210     1.0  0.72609  0.80709  0.54517  1.0000
  S   S735      1.0  0.77090  0.80705  0.52853  1.0000
  H   H4211     1.0  0.98857  0.83410  0.57294  1.0000
  H   H4212     1.0  0.83699  0.81665  0.49892  1.0000
  C   C2460     1.0  0.66300  0.90095  0.48740  1.0000
  N   N177      1.0  0.59017  0.79126  0.51303  1.0000
  H   H4213     1.0  0.97623  0.67308  0.55381  1.0000
  H   H4214     1.0  0.75625  0.91737  0.50340  1.0000
  H   H4215     1.0  0.60020  0.81358  0.50397  1.0000
  C   C2461     1.0  0.53944  0.98777  0.68788  1.0000
  C   C2462     1.0  0.67964  0.96377  0.71822  1.0000
  C   C2463     1.0  0.71318  0.85253  0.55600  1.0000
  C   C2464     1.0  0.72627  0.83877  0.55744  1.0000
  C   C2465     1.0  0.74217  0.83976  0.54775  1.0000
  C   C2466     1.0  0.74505  0.85460  0.53692  1.0000
  C   C2467     1.0  0.73215  0.86859  0.53612  1.0000
  C   C2468     1.0  0.71616  0.86746  0.54540  1.0000
  H   H4216     1.0  0.72412  0.82729  0.56585  1.0000
  H   H4217     1.0  0.75225  0.82911  0.54888  1.0000
  H   H4218     1.0  0.73435  0.88015  0.52793  1.0000
  H   H4219     1.0  0.70618  0.87814  0.54415  1.0000
  C   C2469     1.0  0.63145  0.86709  0.52278  1.0000
  C   C2470     1.0  0.63615  0.85287  0.53447  1.0000
  C   C2471     1.0  0.63541  0.83724  0.53257  1.0000
  C   C2472     1.0  0.63095  0.83565  0.51853  1.0000
  C   C2473     1.0  0.62646  0.84984  0.50676  1.0000
  C   C2474     1.0  0.62621  0.86553  0.50917  1.0000
  H   H4220     1.0  0.63980  0.85399  0.54521  1.0000
  H   H4221     1.0  0.63833  0.82634  0.54196  1.0000
  H   H4222     1.0  0.57803  0.96756  0.69374  1.0000
  H   H4223     1.0  0.62200  0.87653  0.50043  1.0000
  H   H4224     1.0  0.89781  0.68262  0.60959  1.0000
  H   H4225     1.0  0.71771  0.93232  0.54591  1.0000
  H   H4226     1.0  0.61775  0.93512  0.73022  1.0000
  C   C2475     1.0  0.66892  0.93158  0.61911  1.0000
  C   C2476     1.0  0.67651  0.91981  0.60923  1.0000
  C   C2477     1.0  0.66739  0.91542  0.60017  1.0000
  C   C2478     1.0  0.65062  0.92297  0.60067  1.0000
  C   C2479     1.0  0.64295  0.93453  0.61076  1.0000
  C   C2480     1.0  0.65203  0.93879  0.61998  1.0000
  H   H4227     1.0  0.68952  0.91402  0.60862  1.0000
  H   H4228     1.0  0.67337  0.90617  0.59282  1.0000
  H   H4229     1.0  0.62997  0.94041  0.61128  1.0000
  H   H4230     1.0  0.64602  0.94787  0.62750  1.0000
  H   H4231     1.0  0.56219  0.98116  0.70430  1.0000
  H   H4232     1.0  0.98479  0.70871  0.63367  1.0000
  C   C2481     1.0  0.88808  0.66554  0.65965  1.0000
  H   H4233     1.0  0.96480  0.83603  0.59693  1.0000
  H   H4234     1.0  0.54712  0.95794  0.67866  1.0000
  H   H4235     1.0  0.68465  0.83319  0.51303  1.0000
  C   C2482     1.0  0.60952  0.93294  0.69866  1.0000
  C   C2483     1.0  0.62374  0.92116  0.70204  1.0000
  H   H4236     1.0  0.58286  0.93962  0.70562  1.0000
  H   H4237     1.0  0.63577  0.92245  0.69453  1.0000
  H   H4238     1.0  0.94761  0.81222  0.56448  1.0000
  C   C2484     1.0  0.99638  0.80347  0.56514  1.0000
  C   C2485     1.0  0.97234  0.73997  0.67350  1.0000
  C   C2486     1.0  0.96989  0.72443  0.68316  1.0000
  C   C2487     1.0  0.96091  0.71528  0.67864  1.0000
  C   C2488     1.0  0.95463  0.72141  0.66420  1.0000
  C   C2489     1.0  0.95756  0.73671  0.65425  1.0000
  C   C2490     1.0  0.96623  0.74603  0.65895  1.0000
  H   H4239     1.0  0.97460  0.71962  0.69442  1.0000
  H   H4240     1.0  0.95840  0.70371  0.68663  1.0000
  H   H4241     1.0  0.95291  0.74150  0.64299  1.0000
  H   H4242     1.0  0.84965  0.78611  0.50424  1.0000
  C   C2491     1.0  0.85089  0.80657  0.54373  1.0000
  C   C2492     1.0  0.83662  0.81629  0.53809  1.0000
  C   C2493     1.0  0.82619  0.80904  0.53320  1.0000
  C   C2494     1.0  0.83007  0.79202  0.53368  1.0000
  C   C2495     1.0  0.84427  0.78226  0.53947  1.0000
  C   C2496     1.0  0.85464  0.78949  0.54451  1.0000
  H   H4243     1.0  0.83357  0.82950  0.53753  1.0000
  H   H4244     1.0  0.81518  0.81667  0.52902  1.0000
  H   H4245     1.0  0.84734  0.76907  0.53991  1.0000
  H   H4246     1.0  0.86558  0.78187  0.54885  1.0000
  C   C2497     1.0  0.92098  0.82608  0.60540  1.0000
  C   C2498     1.0  0.91457  0.83908  0.61382  1.0000
  C   C2499     1.0  0.91935  0.83832  0.62846  1.0000
  C   C2500     1.0  0.93121  0.82492  0.63447  1.0000
  C   C2501     1.0  0.93781  0.81188  0.62600  1.0000
  C   C2502     1.0  0.93235  0.81224  0.61171  1.0000
  H   H4247     1.0  0.90592  0.84988  0.60896  1.0000
  H   H4248     1.0  0.91417  0.84842  0.63492  1.0000
  H   H4249     1.0  0.94689  0.80143  0.63061  1.0000
  H   H4250     1.0  0.93741  0.80219  0.60521  1.0000
  C   C2503     1.0  0.90388  0.73712  0.60775  1.0000
  C   C2504     1.0  0.91389  0.72742  0.61872  1.0000
  C   C2505     1.0  0.92337  0.71201  0.61613  1.0000
  C   C2506     1.0  0.92234  0.70577  0.60305  1.0000
  C   C2507     1.0  0.91199  0.71528  0.59221  1.0000
  C   C2508     1.0  0.90302  0.73116  0.59434  1.0000
  H   H4251     1.0  0.91468  0.73188  0.62907  1.0000
  H   H4252     1.0  0.93160  0.70516  0.62428  1.0000
  H   H4253     1.0  0.91093  0.71043  0.58219  1.0000
  H   H4254     1.0  0.89517  0.73866  0.58588  1.0000
  H   H4255     1.0  0.96800  0.80242  0.55583  1.0000
  H   H4256     1.0  0.88969  0.67853  0.65630  1.0000
  C   C2509     1.0  0.98973  0.78127  0.51861  1.0000
  H   H4257     1.0  0.77319  0.89876  0.48773  1.0000
  H   H4258     1.0  0.72805  0.91947  0.48614  1.0000
  C   C2510     1.0  0.96892  0.77129  0.54893  1.0000
  C   C2511     1.0  0.96267  0.77639  0.53443  1.0000
  C   C2512     1.0  0.97315  0.78121  0.51928  1.0000
  H   H4259     1.0  0.97973  0.71023  0.57346  1.0000
  H   H4260     1.0  0.64711  0.95832  0.56912  1.0000
  H   H4261     1.0  0.96083  0.76767  0.56066  1.0000
  H   H4262     1.0  0.96841  0.78507  0.50804  1.0000
  H   H4263     1.0  0.66748  0.80734  0.57672  1.0000
  C   C2513     1.0  0.61313  0.76411  0.51457  1.0000
  N   N178      1.0  0.86052  0.85168  0.57834  1.0000
  C   C2514     1.0  0.87178  0.84951  0.56183  1.0000
  C   C2515     1.0  0.84813  0.84070  0.58210  1.0000
  C   C2516     1.0  0.87131  0.84622  0.59106  1.0000
  C   C2517     1.0  0.85225  0.86972  0.57696  1.0000
  C   C2518     1.0  0.88632  0.85873  0.55595  1.0000
  C   C2519     1.0  0.83521  0.84601  0.57101  1.0000
  C   C2520     1.0  0.86302  0.84032  0.60926  1.0000
  C   C2521     1.0  0.83889  0.87446  0.59197  1.0000
  H   H4264     1.0  0.87745  0.83616  0.56209  1.0000
  H   H4265     1.0  0.86474  0.85361  0.55175  1.0000
  H   H4266     1.0  0.84075  0.83972  0.59492  1.0000
  H   H4267     1.0  0.85473  0.82773  0.58134  1.0000
  H   H4268     1.0  0.88156  0.83564  0.58814  1.0000
  H   H4269     1.0  0.87760  0.85622  0.59072  1.0000
  H   H4270     1.0  0.86163  0.87734  0.57492  1.0000
  H   H4271     1.0  0.84679  0.87466  0.56572  1.0000
  H   H4272     1.0  0.89408  0.85526  0.54425  1.0000
  H   H4273     1.0  0.88190  0.87236  0.55316  1.0000
  H   H4274     1.0  0.89465  0.85517  0.56484  1.0000
  H   H4275     1.0  0.82681  0.85806  0.57261  1.0000
  H   H4276     1.0  0.84095  0.84649  0.55776  1.0000
  H   H4277     1.0  0.82733  0.83662  0.57465  1.0000
  H   H4278     1.0  0.87212  0.83847  0.61711  1.0000
  H   H4279     1.0  0.85980  0.82808  0.61119  1.0000
  H   H4280     1.0  0.85192  0.84931  0.61379  1.0000
  H   H4281     1.0  0.84459  0.87720  0.60093  1.0000
  H   H4282     1.0  0.83138  0.86500  0.59843  1.0000
  H   H4283     1.0  0.82977  0.88570  0.58766  1.0000
  N   N179      1.0  0.63135  0.89839  0.65840  1.0000
  C   C2522     1.0  0.64949  0.89646  0.64985  1.0000
  C   C2523     1.0  0.62344  0.88973  0.65026  1.0000
  C   C2524     1.0  0.63061  0.88970  0.67628  1.0000
  C   C2525     1.0  0.62365  0.91663  0.65694  1.0000
  C   C2526     1.0  0.66046  0.90350  0.65683  1.0000
  C   C2527     1.0  0.62445  0.89637  0.63151  1.0000
  C   C2528     1.0  0.61323  0.88923  0.68739  1.0000
  C   C2529     1.0  0.60455  0.92184  0.65856  1.0000
  H   H4284     1.0  0.65539  0.88316  0.64992  1.0000
  H   H4285     1.0  0.65089  0.90280  0.63660  1.0000
  H   H4286     1.0  0.61014  0.89008  0.65600  1.0000
  H   H4287     1.0  0.62928  0.87627  0.65206  1.0000
  H   H4288     1.0  0.63770  0.87663  0.67715  1.0000
  H   H4289     1.0  0.63664  0.89566  0.68248  1.0000
  H   H4290     1.0  0.62694  0.92159  0.66615  1.0000
  H   H4291     1.0  0.62903  0.92368  0.64469  1.0000
  H   H4292     1.0  0.66237  0.89633  0.66923  1.0000
  H   H4293     1.0  0.67301  0.90263  0.64858  1.0000
  H   H4294     1.0  0.65546  0.91678  0.65705  1.0000
  H   H4295     1.0  0.63710  0.89225  0.62427  1.0000
  H   H4296     1.0  0.61588  0.89128  0.62740  1.0000
  H   H4297     1.0  0.62083  0.91005  0.62820  1.0000
  H   H4298     1.0  0.61472  0.88190  0.69992  1.0000
  H   H4299     1.0  0.60582  0.88308  0.68300  1.0000
  H   H4300     1.0  0.60629  0.90177  0.68916  1.0000
  H   H4301     1.0  0.59969  0.93206  0.66540  1.0000
  H   H4302     1.0  0.59749  0.91210  0.66526  1.0000
  H   H4303     1.0  0.60143  0.92715  0.64619  1.0000
  H   H4304     1.0  0.63516  0.96926  0.73227  1.0000
  C   C2530     1.0  0.71642  0.80323  0.49311  1.0000
  H   H4305     1.0  0.61915  0.76559  0.50125  1.0000
  C   C2531     1.0  0.65299  0.95412  0.55736  1.0000
  H   H4306     1.0  0.64547  0.94570  0.55650  1.0000
  H   H4307     1.0  0.63347  0.89894  0.71847  1.0000
  C   C2532     1.0  0.69750  0.94293  0.56464  1.0000
  H   H4308     1.0  0.53023  0.98546  0.68209  1.0000
  C   C2533     1.0  0.76465  0.89086  0.48785  1.0000
  H   H4309     1.0  0.57454  0.78637  0.53737  1.0000
  N   N180      1.0  0.68398  0.95414  0.55604  1.0000
  H   H4310     1.0  0.67472  0.93767  0.54696  1.0000
  N   N181      1.0  0.98325  0.80941  0.57921  1.0000
  H   H4311     1.0  0.57444  0.96021  0.65436  1.0000
  C   C2534     1.0  0.87718  0.69539  0.62511  1.0000
  H   H4312     1.0  0.73371  0.90453  0.50338  1.0000
  H   H4313     1.0  0.71391  0.81516  0.49630  1.0000
  H   H4314     1.0  0.99092  0.69296  0.67015  1.0000
  H   H4315     1.0  0.76028  0.88576  0.50118  1.0000
  H   H4316     1.0  0.99339  0.79318  0.56167  1.0000
  H   H4317     1.0  0.96829  0.75784  0.65126  1.0000
  H   H4318     1.0  0.66379  0.95475  0.58707  1.0000
  C   C2535     1.0  0.98602  0.77761  0.59192  1.0000
  S   S736      1.0  0.78824  0.79332  0.49459  1.0000
  H   H4319     1.0  0.59371  0.77700  0.49422  1.0000
  H   H4320     1.0  0.86681  0.66940  0.64876  1.0000
  H   H4321     1.0  0.85643  0.82208  0.48877  1.0000
  C   C2536     1.0  0.70009  0.80647  0.55853  1.0000
  H   H4322     1.0  0.87137  0.69558  0.63826  1.0000
  N   N182      1.0  0.96384  0.71530  0.55573  1.0000
  C   C2537     1.0  0.97376  0.69976  0.54977  1.0000
  C   C2538     1.0  0.97015  0.72976  0.54362  1.0000
  C   C2539     1.0  0.94578  0.71662  0.55582  1.0000
  C   C2540     1.0  0.96631  0.71371  0.57291  1.0000
  C   C2541     1.0  0.96724  0.68369  0.55846  1.0000
  C   C2542     1.0  0.68995  0.79965  0.53753  1.0000
  C   C2543     1.0  0.93430  0.73400  0.55462  1.0000
  C   C2544     1.0  0.95814  0.72864  0.58118  1.0000
  H   H4323     1.0  0.97447  0.70134  0.53629  1.0000
  H   H4324     1.0  0.91575  0.66023  0.60244  1.0000
  H   H4325     1.0  0.96290  0.74173  0.54663  1.0000
  H   H4326     1.0  0.96835  0.73038  0.53105  1.0000
  H   H4327     1.0  0.94470  0.71218  0.54513  1.0000
  H   H4328     1.0  0.94007  0.70837  0.56704  1.0000
  H   H4329     1.0  0.96124  0.70318  0.58159  1.0000
  H   H4330     1.0  0.67038  0.93449  0.56859  1.0000
  S   S737      1.0  0.76203  0.82983  0.49298  1.0000
  H   H4331     1.0  0.95513  0.68407  0.55569  1.0000
  H   H4332     1.0  0.98512  0.68563  0.65491  1.0000
  H   H4333     1.0  0.69669  0.90336  0.49596  1.0000
  H   H4334     1.0  0.70510  0.83289  0.53790  1.0000
  C   C2545     1.0  0.54786  0.95250  0.70448  1.0000
  H   H4335     1.0  0.92122  0.73277  0.55672  1.0000
  H   H4336     1.0  0.93715  0.74171  0.54201  1.0000
  H   H4337     1.0  0.93475  0.74068  0.56381  1.0000
  H   H4338     1.0  0.98687  0.69717  0.55117  1.0000
  H   H4339     1.0  0.95872  0.74066  0.57259  1.0000
  C   C2546     1.0  0.87964  0.66168  0.64768  1.0000
  H   H4340     1.0  0.55823  0.76941  0.52836  1.0000
  C   C2547     1.0  0.98584  0.77034  0.54810  1.0000
  H   H4341     1.0  0.56740  0.95156  0.68307  1.0000
  N   N183      1.0  0.91058  0.76712  0.65727  1.0000
  C   C2548     1.0  0.90917  0.75342  0.67257  1.0000
  C   C2549     1.0  0.92365  0.77574  0.65788  1.0000
  C   C2550     1.0  0.91586  0.75921  0.64238  1.0000
  C   C2551     1.0  0.89379  0.77862  0.65741  1.0000
  C   C2552     1.0  0.89825  0.74129  0.67334  1.0000
  C   C2553     1.0  0.91970  0.78470  0.67230  1.0000
  C   C2554     1.0  0.92510  0.76868  0.62613  1.0000
  C   C2555     1.0  0.89270  0.79435  0.64352  1.0000
  H   H4342     1.0  0.92173  0.74573  0.67396  1.0000
  H   H4343     1.0  0.90396  0.75855  0.68394  1.0000
  H   H4344     1.0  0.92639  0.78516  0.64652  1.0000
  H   H4345     1.0  0.93566  0.76677  0.65845  1.0000
  H   H4346     1.0  0.92432  0.74691  0.64499  1.0000
  H   H4347     1.0  0.90490  0.75662  0.63956  1.0000
  H   H4348     1.0  0.88460  0.77205  0.65634  1.0000
  H   H4349     1.0  0.88844  0.78240  0.66951  1.0000
  H   H4350     1.0  0.89844  0.73183  0.68505  1.0000
  H   H4351     1.0  0.88509  0.74754  0.67341  1.0000
  H   H4352     1.0  0.90310  0.73436  0.66320  1.0000
  H   H4353     1.0  0.91867  0.77603  0.68450  1.0000
  H   H4354     1.0  0.93017  0.79071  0.67107  1.0000
  H   H4355     1.0  0.90839  0.79470  0.67199  1.0000
  H   H4356     1.0  0.91803  0.78127  0.62197  1.0000
  H   H4357     1.0  0.92696  0.76178  0.61625  1.0000
  H   H4358     1.0  0.93766  0.76924  0.62708  1.0000
  H   H4359     1.0  0.89043  0.79175  0.63236  1.0000
  H   H4360     1.0  0.90370  0.80002  0.64003  1.0000
  H   H4361     1.0  0.88223  0.80411  0.64794  1.0000
  H   H4362     1.0  0.65018  0.82017  0.56850  1.0000
  H   H4363     1.0  0.68165  0.96065  0.58946  1.0000
  C   C2556     1.0  0.57747  0.97157  0.65571  1.0000
  C   C2557     1.0  0.55501  0.95976  0.68627  1.0000
  H   H4364     1.0  0.99171  0.74017  0.63069  1.0000
  C   C2558     1.0  0.69200  0.96011  0.53825  1.0000
  H   H4365     1.0  0.87984  0.78124  0.50527  1.0000
  C   C2559     1.0  0.87340  0.79290  0.49815  1.0000
  H   H4366     1.0  0.99237  0.71778  0.65313  1.0000
  H   H4367     1.0  0.69123  0.95512  0.49389  1.0000
  N   N184      1.0  0.88889  0.66369  0.62992  1.0000
  H   H4368     1.0  0.64749  0.92585  0.72040  1.0000
  C   C2560     1.0  0.96657  0.81652  0.57447  1.0000
  H   H4369     1.0  0.57783  0.75949  0.53432  1.0000
  H   H4370     1.0  0.68159  0.84822  0.52552  1.0000
  H   H4371     1.0  0.86773  0.69544  0.61837  1.0000
  C   C2561     1.0  0.95983  0.80542  0.56751  1.0000
  H   H4372     1.0  0.90182  0.68290  0.62862  1.0000
  C   C2562     1.0  0.59261  0.91766  0.72191  1.0000
  H   H4373     1.0  0.94502  0.72828  0.58741  1.0000
  H   H4374     1.0  0.74238  0.87154  0.50054  1.0000
  C   C2563     1.0  0.67696  0.96886  0.56417  1.0000
  H   H4375     1.0  0.74143  0.76499  0.49960  1.0000
  H   H4376     1.0  0.95687  0.81992  0.58521  1.0000
  H   H4377     1.0  0.96684  0.82834  0.56514  1.0000
  H   H4378     1.0  0.61582  0.78802  0.51488  1.0000
  H   H4379     1.0  0.69963  0.81617  0.56521  1.0000
  H   H4380     1.0  0.60405  0.75610  0.51751  1.0000
  H   H4381     1.0  0.62744  0.95165  0.71865  1.0000
  H   H4382     1.0  0.72181  0.88401  0.50020  1.0000
  H   H4383     1.0  0.72391  0.79332  0.56481  1.0000
  H   H4384     1.0  0.98968  0.86247  0.72604  1.0000
  H   H4385     1.0  0.99112  0.79524  0.60199  1.0000
  Fe  Fe367     1.0  0.65393  0.98533  0.65922  1.0000
  H   H4386     1.0  0.96505  0.72835  0.59058  1.0000
  C   C2564     1.0  0.59392  0.93078  0.70823  1.0000
  C   C2565     1.0  0.56182  0.98285  0.66385  1.0000
  C   C2566     1.0  0.68036  0.97143  0.52695  1.0000
  H   H4387     1.0  0.84125  0.77045  0.48487  1.0000
  C   C2567     1.0  0.69083  0.83866  0.51942  1.0000
  Fe  Fe368     1.0  0.97567  0.66127  0.63798  1.0000
  C   C2568     1.0  0.99618  0.77560  0.53295  1.0000
  H   H4388     1.0  0.69421  0.79683  0.56795  1.0000
  C   C2569     1.0  0.67108  0.94441  0.55722  1.0000
  C   C2570     1.0  0.60552  0.78110  0.51937  1.0000
  C   C2571     1.0  0.59171  0.78997  0.49546  1.0000
  H   H4389     1.0  0.58745  0.96790  0.66279  1.0000
  H   H4390     1.0  0.98904  0.85208  0.68030  1.0000
  S   S738      1.0  0.98360  0.75108  0.67970  1.0000
  C   C2572     1.0  0.73192  0.77498  0.49497  1.0000
  C   C2573     1.0  0.68104  0.98001  0.71022  1.0000
  H   H4391     1.0  0.70626  0.95012  0.56558  1.0000
  H   H4392     1.0  0.55400  0.95508  0.71313  1.0000
  H   H4393     1.0  0.98318  0.83903  0.60093  1.0000
  C   C2574     1.0  0.67787  0.80328  0.52578  1.0000
  H   H4394     1.0  0.88151  0.70724  0.61971  1.0000
  S   S739      1.0  0.96116  0.66156  0.66396  1.0000
  H   H4395     1.0  0.70243  0.79462  0.53046  1.0000
  H   H4396     1.0  0.66641  0.81259  0.52856  1.0000
  S   S740      1.0  0.73928  0.79284  0.51322  1.0000
  H   H4397     1.0  0.53421  0.95707  0.70787  1.0000
  H   H4398     1.0  0.56329  0.79573  0.52183  1.0000
  C   C2575     1.0  0.61921  0.94742  0.73070  1.0000
  H   H4399     1.0  0.68708  0.78879  0.54746  1.0000
  H   H4400     1.0  0.70041  0.92198  0.55280  1.0000
  H   H4401     1.0  0.59882  0.80566  0.53549  1.0000
  S   S741      1.0  0.64359  0.97466  0.68561  1.0000
  H   H4402     1.0  0.72016  0.78751  0.54785  1.0000
  C   C2576     1.0  0.70030  0.82565  0.53182  1.0000
  H   H4403     1.0  0.97679  0.81992  0.61017  1.0000
  C   C2577     1.0  0.72930  0.79060  0.49858  1.0000
  H   H4404     1.0  0.71152  0.81885  0.52442  1.0000
  H   H4405     1.0  0.62259  0.84877  0.49612  1.0000
  C   C2578     1.0  0.74714  0.92411  0.49550  1.0000
  C   C2579     1.0  0.58840  0.81324  0.52957  1.0000
  H   H4406     1.0  0.96967  0.79768  0.60280  1.0000
  H   H4407     1.0  0.98669  0.66316  0.60469  1.0000
  H   H4408     1.0  0.57637  0.81198  0.53823  1.0000
  C   C2580     1.0  0.70807  0.92825  0.55671  1.0000
  C   C2581     1.0  0.57180  0.76911  0.52495  1.0000
  H   H4409     1.0  0.60311  0.77881  0.53310  1.0000
  C   C2582     1.0  0.69605  0.91591  0.48888  1.0000
  H   H4410     1.0  0.99086  0.76581  0.55916  1.0000
  H   H4411     1.0  0.60255  0.97220  0.72773  1.0000
  C   C2583     1.0  0.98851  0.82311  0.58334  1.0000
  H   H4412     1.0  0.69212  0.93734  0.57761  1.0000
  H   H4413     1.0  0.78595  0.87030  0.48617  1.0000
  H   H4414     1.0  0.58054  0.91646  0.72966  1.0000
  C   C2584     1.0  0.67100  0.96463  0.58312  1.0000
  H   H4415     1.0  0.68409  0.80708  0.51274  1.0000
  H   H4416     1.0  0.58941  0.82637  0.52741  1.0000
  H   H4417     1.0  0.88277  0.79762  0.48747  1.0000
  H   H4418     1.0  0.68804  0.97611  0.51478  1.0000
  H   H4419     1.0  0.96602  0.68086  0.57204  1.0000
  H   H4420     1.0  0.66292  0.97579  0.58751  1.0000
  H   H4421     1.0  0.88390  0.66327  0.60640  1.0000
  H   H4422     1.0  0.69987  0.84522  0.50984  1.0000
  H   H4423     1.0  0.86616  0.66945  0.62095  1.0000
  H   H4424     1.0  0.69835  0.94956  0.53208  1.0000
  N   N185      1.0  0.69078  0.81371  0.54463  1.0000
  C   C2585     1.0  0.57465  0.78634  0.52438  1.0000
  H   H4425     1.0  0.66664  0.82980  0.54232  1.0000
  H   H4426     1.0  0.66636  0.97731  0.55904  1.0000
  C   C2586     1.0  0.84566  0.81853  0.48666  1.0000
  C   C2587     1.0  0.69351  0.92888  0.49697  1.0000
  H   H4427     1.0  0.71469  0.91891  0.56584  1.0000
  S   S742      1.0  0.64798  0.78486  0.48776  1.0000
  C   C2588     1.0  0.73331  0.87790  0.49262  1.0000
  C   C2589     1.0  0.58926  0.80919  0.51280  1.0000
  C   C2590     1.0  0.71857  0.79819  0.55354  1.0000
  H   H4428     1.0  0.67511  0.83277  0.55746  1.0000
  C   C2591     1.0  0.85903  0.78926  0.49280  1.0000
  C   C2592     1.0  0.67386  0.82292  0.55189  1.0000
  S   S743      1.0  0.98352  0.82532  0.65088  1.0000
  H   H4429     1.0  0.67266  0.98242  0.53181  1.0000
  H   H4430     1.0  0.66090  0.80197  0.56064  1.0000
  C   C2593     1.0  0.66267  0.81224  0.56517  1.0000
  C   C2594     1.0  0.62242  0.90775  0.71552  1.0000
  H   H4431     1.0  0.67957  0.86461  0.49068  1.0000
  H   H4432     1.0  0.57588  0.81326  0.48483  1.0000
  C   C2595     1.0  0.98214  0.79555  0.59447  1.0000
  H   H4433     1.0  0.98334  0.76914  0.60414  1.0000
  C   C2596     1.0  0.60689  0.90639  0.72579  1.0000
  H   H4434     1.0  0.82665  0.79710  0.49103  1.0000
  H   H4435     1.0  0.67246  0.96433  0.52442  1.0000
  Fe  Fe369     1.0  0.99038  0.81012  0.67483  1.0000
  H   H4436     1.0  0.86415  0.77755  0.48820  1.0000
  H   H4437     1.0  0.73061  0.86778  0.48855  1.0000
  H   H4438     1.0  0.88014  0.66370  0.67228  1.0000
  H   H4439     1.0  0.62313  0.75743  0.52147  1.0000
  H   H4440     1.0  0.54992  0.93880  0.70641  1.0000
  C   C2597     1.0  0.56865  0.97924  0.69164  1.0000
  N   N186      1.0  0.55650  0.97766  0.68237  1.0000
  H   H4441     1.0  0.60302  0.79422  0.48747  1.0000
  H   H4442     1.0  0.68641  0.97657  0.56157  1.0000
  H   H4443     1.0  0.57596  0.76529  0.51293  1.0000
  H   H4444     1.0  0.55163  0.98337  0.65772  1.0000
  C   C2598     1.0  0.87837  0.66060  0.61989  1.0000
  H   H4445     1.0  0.73731  0.93245  0.50268  1.0000
  H   H4446     1.0  0.99149  0.74136  0.53312  1.0000
  H   H4447     1.0  0.86867  0.80165  0.50668  1.0000
  H   H4448     1.0  0.57813  0.81737  0.50836  1.0000
  C   C2599     1.0  0.72181  0.77199  0.48600  1.0000
  H   H4449     1.0  0.58246  0.97823  0.64310  1.0000
  H   H4450     1.0  0.98810  0.82226  0.54401  1.0000
  H   H4451     1.0  0.59676  0.95724  0.72077  1.0000
  C   C2600     1.0  0.99518  0.68459  0.66129  1.0000
  H   H4452     1.0  0.99119  0.73020  0.55391  1.0000
  Fe  Fe370     1.0  0.63838  0.81128  0.49041  1.0000
  C   C2601     1.0  0.60190  0.95895  0.73067  1.0000
  H   H4453     1.0  0.56497  0.79635  0.49465  1.0000
  H   H4454     1.0  0.98832  0.71461  0.60425  1.0000
  H   H4455     1.0  0.50059  0.66607  0.71359  1.0000
  C   C2602     1.0  0.69299  0.94507  0.48775  1.0000
  C   C2603     1.0  0.70615  0.80019  0.48424  1.0000
  H   H4456     1.0  0.53490  0.98405  0.70145  1.0000
  C   C2604     1.0  0.64817  0.92139  0.73364  1.0000
  H   H4457     1.0  0.98124  0.83335  0.73349  1.0000
  H   H4458     1.0  0.75321  0.93202  0.48429  1.0000
  H   H4459     1.0  0.96869  0.88816  0.73197  1.0000
  H   H4460     1.0  0.67360  0.89279  0.49268  1.0000
  C   C2605     1.0  0.57688  0.79968  0.48734  1.0000
  H   H4461     1.0  0.65407  0.90626  0.49766  1.0000
  H   H4462     1.0  0.53534  0.96827  0.77272  1.0000
  H   H4463     1.0  0.64249  0.93094  0.86909  1.0000
  C   C2606     1.0  0.58465  0.65991  0.95952  1.0000
  H   H4464     1.0  0.75857  0.68166  0.88713  1.0000
  S   S744      1.0  0.63382  0.67783  0.93167  1.0000
  H   H4465     1.0  0.52121  0.72000  0.78659  1.0000
  H   H4466     1.0  0.70484  0.67313  0.97107  1.0000
  C   C2607     1.0  0.67814  0.90909  0.85841  1.0000
  H   H4467     1.0  0.74647  0.65783  0.86338  1.0000
  Fe  Fe371     1.0  0.54903  0.92669  0.76220  1.0000
  S   S745      1.0  0.57463  0.92979  0.76058  1.0000
  H   H4468     1.0  0.66413  0.95246  0.82700  1.0000
  Fe  Fe372     1.0  0.55287  0.89391  0.78746  1.0000
  S   S746      1.0  0.57882  0.89456  0.78869  1.0000
  S   S747      1.0  0.53916  0.87348  0.80250  1.0000
  Fe  Fe373     1.0  0.56938  0.92182  0.78827  1.0000
  S   S748      1.0  0.57425  0.93830  0.80275  1.0000
  Fe  Fe374     1.0  0.58223  0.90244  0.76111  1.0000
  C   C2608     1.0  0.51187  0.97406  0.73785  1.0000
  S   S749      1.0  0.54290  0.92049  0.78990  1.0000
  S   S750      1.0  0.55713  0.90007  0.75986  1.0000
  S   S751      1.0  0.67715  0.97499  0.79566  1.0000
  H   H4469     1.0  0.55315  0.67757  0.82458  1.0000
  S   S752      1.0  0.64547  0.94614  0.80620  1.0000
  H   H4470     1.0  0.52771  0.72099  0.81209  1.0000
  H   H4471     1.0  0.53540  0.80537  0.79778  1.0000
  C   C2609     1.0  0.63307  0.95069  0.85027  1.0000
  Fe  Fe375     1.0  0.55952  0.68348  0.86217  1.0000
  S   S753      1.0  0.56922  0.69936  0.83791  1.0000
  S   S754      1.0  0.56014  0.68831  0.88643  1.0000
  C   C2610     1.0  0.64476  0.66218  0.88192  1.0000
  C   C2611     1.0  0.75234  0.67196  0.96023  1.0000
  C   C2612     1.0  0.63673  0.96551  0.75770  1.0000
  H   H4472     1.0  0.76555  0.67168  0.95712  1.0000
  H   H4473     1.0  0.61570  0.97187  0.74675  1.0000
  S   S755      1.0  0.52252  0.82407  0.76808  1.0000
  H   H4474     1.0  0.62164  0.94600  0.85191  1.0000
  S   S756      1.0  0.51984  0.76864  0.83726  1.0000
  C   C2613     1.0  0.68967  0.94326  0.82864  1.0000
  S   S757      1.0  0.52290  0.77756  0.78915  1.0000
  H   H4475     1.0  0.62315  0.93964  0.77130  1.0000
  Fe  Fe376     1.0  0.53344  0.68566  0.89360  1.0000
  H   H4476     1.0  0.97133  0.85924  0.74089  1.0000
  H   H4477     1.0  0.64888  0.93097  0.75420  1.0000
  C   C2614     1.0  0.62094  0.66900  0.92472  1.0000
  H   H4478     1.0  0.51767  0.80520  0.85114  1.0000
  S   S758      1.0  0.68252  0.66615  0.91806  1.0000
  C   C2615     1.0  0.55664  0.71924  0.83772  1.0000
  C   C2616     1.0  0.54523  0.72261  0.85206  1.0000
  C   C2617     1.0  0.53424  0.73794  0.85186  1.0000
  C   C2618     1.0  0.53417  0.74981  0.83715  1.0000
  C   C2619     1.0  0.54561  0.74659  0.82271  1.0000
  C   C2620     1.0  0.55710  0.73139  0.82310  1.0000
  H   H4479     1.0  0.54478  0.71344  0.86343  1.0000
  H   H4480     1.0  0.52562  0.74035  0.86312  1.0000
  H   H4481     1.0  0.54583  0.75590  0.81138  1.0000
  H   H4482     1.0  0.56618  0.72897  0.81210  1.0000
  S   S759      1.0  0.56789  0.65589  0.86923  1.0000
  H   H4483     1.0  0.97408  0.82931  0.75575  1.0000
  H   H4484     1.0  0.98978  0.81431  0.74584  1.0000
  C   C2621     1.0  0.53423  0.70467  0.76896  1.0000
  H   H4485     1.0  0.72833  0.68770  0.88976  1.0000
  H   H4486     1.0  0.57049  0.68352  0.80864  1.0000
  C   C2622     1.0  0.53362  0.86104  0.79209  1.0000
  C   C2623     1.0  0.54211  0.85905  0.77614  1.0000
  C   C2624     1.0  0.53829  0.84802  0.76875  1.0000
  C   C2625     1.0  0.52608  0.83876  0.77727  1.0000
  C   C2626     1.0  0.51741  0.84096  0.79311  1.0000
  C   C2627     1.0  0.52116  0.85204  0.80046  1.0000
  H   H4487     1.0  0.55187  0.86571  0.76961  1.0000
  H   H4488     1.0  0.54505  0.84644  0.75649  1.0000
  S   S760      1.0  0.67060  0.66198  0.95778  1.0000
  H   H4489     1.0  0.56535  0.66396  0.81132  1.0000
  C   C2628     1.0  0.59423  0.94005  0.80371  1.0000
  C   C2629     1.0  0.60774  0.92655  0.80381  1.0000
  C   C2630     1.0  0.62337  0.92849  0.80474  1.0000
  C   C2631     1.0  0.62566  0.94397  0.80534  1.0000
  C   C2632     1.0  0.61212  0.95738  0.80551  1.0000
  C   C2633     1.0  0.59644  0.95532  0.80500  1.0000
  H   H4490     1.0  0.60609  0.91456  0.80341  1.0000
  H   H4491     1.0  0.63374  0.91799  0.80482  1.0000
  H   H4492     1.0  0.61365  0.96927  0.80630  1.0000
  H   H4493     1.0  0.58599  0.96563  0.80567  1.0000
  H   H4494     1.0  0.68538  0.90896  0.84563  1.0000
  H   H4495     1.0  0.56983  0.84569  0.81670  1.0000
  H   H4496     1.0  0.50811  0.70242  0.81882  1.0000
  H   H4497     1.0  0.60425  0.91961  0.77438  1.0000
  C   C2634     1.0  0.56615  0.77938  0.82916  1.0000
  H   H4498     1.0  0.58681  0.68056  0.90716  1.0000
  H   H4499     1.0  0.66842  0.92476  0.87604  1.0000
  H   H4500     1.0  0.63487  0.66485  0.97037  1.0000
  H   H4501     1.0  0.69821  0.93282  0.83488  1.0000
  Fe  Fe377     1.0  0.69494  0.66204  0.93938  1.0000
  C   C2635     1.0  0.54836  0.68445  0.79924  1.0000
  C   C2636     1.0  0.61522  0.92163  0.76431  1.0000
  C   C2637     1.0  0.72157  0.67993  0.88671  1.0000
  H   H4502     1.0  0.64890  0.97013  0.87588  1.0000
  C   C2638     1.0  0.60760  0.67930  0.91780  1.0000
  H   H4503     1.0  0.60547  0.69258  0.91644  1.0000
  H   H4504     1.0  0.55799  0.73749  0.78474  1.0000
  H   H4505     1.0  0.59296  0.95606  0.74243  1.0000
  C   C2639     1.0  0.62827  0.96372  0.74462  1.0000
  C   C2640     1.0  0.54001  0.97388  0.73879  1.0000
  H   H4506     1.0  0.53339  0.98675  0.81012  1.0000
  C   C2641     1.0  0.59699  0.67251  0.91254  1.0000
  H   H4507     1.0  0.49770  0.76053  0.90433  1.0000
  C   C2642     1.0  0.55470  0.82716  0.82313  1.0000
  S   S761      1.0  0.51329  0.70483  0.90516  1.0000
  H   H4508     1.0  0.50122  0.77734  0.88751  1.0000
  H   H4509     1.0  0.54318  0.71253  0.76160  1.0000
  H   H4510     1.0  0.68562  0.65831  0.84546  1.0000
  H   H4511     1.0  0.55394  0.77614  0.83547  1.0000
  C   C2643     1.0  0.66307  0.95608  0.85702  1.0000
  H   H4512     1.0  0.55392  0.80143  0.78262  1.0000
  H   H4513     1.0  0.51535  0.70231  0.83656  1.0000
  C   C2644     1.0  0.52148  0.96444  0.79783  1.0000
  N   N187      1.0  0.54110  0.70278  0.79710  1.0000
  H   H4514     1.0  0.62984  0.96026  0.85779  1.0000
  C   C2645     1.0  0.56635  0.79746  0.82857  1.0000
  C   C2646     1.0  0.65429  0.66931  0.89044  1.0000
  H   H4515     1.0  0.52340  0.70852  0.76286  1.0000
  H   H4516     1.0  0.60469  0.94773  0.76431  1.0000
  H   H4517     1.0  0.57523  0.97185  0.78159  1.0000
  H   H4518     1.0  0.63647  0.95645  0.83704  1.0000
  H   H4519     1.0  0.55135  0.78746  0.80228  1.0000
  H   H4520     1.0  0.55012  0.73423  0.76902  1.0000
  C   C2647     1.0  0.55714  0.81152  0.80212  1.0000
  H   H4521     1.0  0.62638  0.91268  0.76793  1.0000
  H   H4522     1.0  0.74552  0.68118  0.90758  1.0000
  H   H4523     1.0  0.98045  0.83888  0.79410  1.0000
  C   C2648     1.0  0.67134  0.94149  0.83424  1.0000
  H   H4524     1.0  0.67035  0.93077  0.82976  1.0000
  H   H4525     1.0  0.68657  0.92944  0.86192  1.0000
  Fe  Fe378     1.0  0.50839  0.77742  0.81498  1.0000
  H   H4526     1.0  0.56261  0.70701  0.77775  1.0000
  H   H4527     1.0  0.57077  0.80862  0.79701  1.0000
  C   C2649     1.0  0.55486  0.71209  0.78868  1.0000
  H   H4528     1.0  0.66600  0.65739  0.84242  1.0000
  H   H4529     1.0  0.50211  0.75981  0.87164  1.0000
  H   H4530     1.0  0.67835  0.96638  0.75767  1.0000
  C   C2650     1.0  0.75452  0.65658  0.90136  1.0000
  H   H4531     1.0  0.54266  0.70536  0.82104  1.0000
  C   C2651     1.0  0.75300  0.66062  0.87168  1.0000
  H   H4532     1.0  0.61254  0.91878  0.75362  1.0000
  C   C2652     1.0  0.74404  0.67231  0.94793  1.0000
  C   C2653     1.0  0.71807  0.67270  0.96800  1.0000
  H   H4533     1.0  0.76088  0.72159  0.97704  1.0000
  N   N188      1.0  0.66394  0.93999  0.85247  1.0000
  H   H4534     1.0  0.98388  0.82574  0.78001  1.0000
  H   H4535     1.0  0.50085  0.67488  0.91082  1.0000
  H   H4536     1.0  0.54395  0.83699  0.81974  1.0000
  H   H4537     1.0  0.55262  0.82434  0.79545  1.0000
  Fe  Fe379     1.0  0.65066  0.97192  0.80130  1.0000
  Fe  Fe380     1.0  0.65896  0.66277  0.93669  1.0000
  H   H4538     1.0  0.55232  0.97243  0.80499  1.0000
  C   C2654     1.0  0.98509  0.82777  0.74553  1.0000
  H   H4539     1.0  0.58707  0.67616  0.97365  1.0000
  H   H4540     1.0  0.66656  0.90463  0.86020  1.0000
  H   H4541     1.0  0.51443  0.85358  0.81274  1.0000
  C   C2655     1.0  0.53610  0.80825  0.82830  1.0000
  Fe  Fe381     1.0  0.50877  0.80391  0.78369  1.0000
  H   H4542     1.0  0.57533  0.77101  0.83636  1.0000
  H   H4543     1.0  0.69124  0.95519  0.83019  1.0000
  H   H4544     1.0  0.56348  0.71021  0.79705  1.0000
  N   N189      1.0  0.55359  0.81071  0.82054  1.0000
  C   C2656     1.0  0.67908  0.97026  0.74447  1.0000
  C   C2657     1.0  0.55507  0.98821  0.76975  1.0000
  S   S762      1.0  0.71678  0.67413  0.93562  1.0000
  H   H4545     1.0  0.64177  0.67175  0.87088  1.0000
  S   S763      1.0  0.80227  0.67335  0.97611  1.0000
  C   C2658     1.0  0.57102  0.97461  0.76986  1.0000
  H   H4546     1.0  0.51847  0.69934  0.79269  1.0000
  H   H4547     1.0  0.56934  0.96311  0.76750  1.0000
  H   H4548     1.0  0.75105  0.67430  0.86879  1.0000
  C   C2659     1.0  0.67449  0.92629  0.86268  1.0000
  H   H4549     1.0  0.53967  0.69151  0.76834  1.0000
  C   C2660     1.0  0.64692  0.93612  0.85577  1.0000
  C   C2661     1.0  0.51924  0.69862  0.82439  1.0000
  C   C2662     1.0  0.54496  0.98494  0.80046  1.0000
  C   C2663     1.0  0.64471  0.93604  0.74225  1.0000
  C   C2664     1.0  0.53319  0.70751  0.81359  1.0000
  H   H4550     1.0  0.57953  0.67041  0.95019  1.0000
  H   H4551     1.0  0.66632  0.67178  0.88254  1.0000
  H   H4552     1.0  0.64733  0.92620  0.84938  1.0000
  H   H4553     1.0  0.52969  0.81975  0.85003  1.0000
  H   H4554     1.0  0.50208  0.96749  0.73963  1.0000
  H   H4555     1.0  0.57002  0.77654  0.81668  1.0000
  H   H4556     1.0  0.58114  0.97887  0.75978  1.0000
  C   C2665     1.0  0.74348  0.67240  0.97641  1.0000
  C   C2666     1.0  0.65529  0.95712  0.87525  1.0000
  Fe  Fe382     1.0  0.56641  0.66066  0.89427  1.0000
  H   H4557     1.0  0.57914  0.79914  0.82220  1.0000
  H   H4558     1.0  0.63997  0.97791  0.75397  1.0000
  H   H4559     1.0  0.64668  0.68138  0.89316  1.0000
  H   H4560     1.0  0.67575  0.95855  0.85471  1.0000
  H   H4561     1.0  0.68576  0.89999  0.86684  1.0000
  H   H4562     1.0  0.58203  0.82521  0.81677  1.0000
  C   C2667     1.0  0.61715  0.93962  0.76131  1.0000
  S   S764      1.0  0.53964  0.65826  0.90372  1.0000
  H   H4563     1.0  0.69378  0.94326  0.81522  1.0000
  H   H4564     1.0  0.53834  0.67727  0.80295  1.0000
  C   C2668     1.0  0.98762  0.83650  0.78180  1.0000
  H   H4565     1.0  0.64572  0.94959  0.88110  1.0000
  H   H4566     1.0  0.52151  0.96566  0.81036  1.0000
  C   C2669     1.0  0.75643  0.67436  0.89990  1.0000
  H   H4567     1.0  0.76768  0.67373  0.90447  1.0000
  H   H4568     1.0  0.98420  0.86294  0.77290  1.0000
  H   H4569     1.0  0.52704  0.81826  0.82209  1.0000
  S   S765      1.0  0.53240  0.68299  0.86863  1.0000
  H   H4570     1.0  0.55397  0.82666  0.83638  1.0000
  C   C2670     1.0  0.97817  0.88189  0.73960  1.0000
  H   H4571     1.0  0.70823  0.68389  0.89232  1.0000
  C   C2671     1.0  0.68068  0.98644  0.73647  1.0000
  H   H4572     1.0  0.78736  0.71448  0.97855  1.0000
  C   C2672     1.0  0.52803  0.70702  0.78694  1.0000
  N   N190      1.0  0.62719  0.94637  0.74479  1.0000
  H   H4573     1.0  0.53840  0.79756  0.85425  1.0000
  H   H4574     1.0  0.53422  0.79662  0.82646  1.0000
  H   H4575     1.0  0.66740  0.67194  0.85377  1.0000
  H   H4576     1.0  0.65665  0.96690  0.84885  1.0000
  H   H4577     1.0  0.57161  0.83647  0.79991  1.0000
  C   C2673     1.0  0.57056  0.83371  0.81349  1.0000
  H   H4578     1.0  0.53667  0.73661  0.78875  1.0000
  H   H4579     1.0  0.65630  0.66124  0.90248  1.0000
  H   H4580     1.0  0.52333  0.68495  0.82690  1.0000
  H   H4581     1.0  0.64839  0.95624  0.75894  1.0000
  C   C2674     1.0  0.55994  0.67720  0.81168  1.0000
  C   C2675     1.0  0.54927  0.73105  0.78259  1.0000
  C   C2676     1.0  0.53043  0.80772  0.84702  1.0000
  H   H4582     1.0  0.56502  0.79851  0.84154  1.0000
  C   C2677     1.0  0.54904  0.80066  0.79611  1.0000
  C   C2678     1.0  0.72689  0.67261  0.95174  1.0000
  H   H4583     1.0  0.97269  0.88391  0.75233  1.0000
  H   H4584     1.0  0.72257  0.68257  0.87314  1.0000
  H   H4585     1.0  0.63251  0.66143  0.89043  1.0000
  H   H4586     1.0  0.62815  0.96490  0.76998  1.0000
  S   S766      1.0  0.60544  0.89192  0.74441  1.0000
  H   H4587     1.0  0.50775  0.83422  0.79968  1.0000
  H   H4588     1.0  0.75100  0.67229  0.93545  1.0000
  S   S767      1.0  0.53021  0.94363  0.74771  1.0000
  H   H4589     1.0  0.55577  0.68134  0.78726  1.0000
  H   H4590     1.0  0.60431  0.67204  0.95734  1.0000
  H   H4591     1.0  0.50157  0.66924  0.86396  1.0000
  C   C2679     1.0  0.67903  0.95887  0.73530  1.0000
  H   H4592     1.0  0.66505  0.95316  0.88271  1.0000
  Fe  Fe383     1.0  0.50099  0.77007  0.78532  1.0000
  H   H4593     1.0  0.72253  0.65907  0.90720  1.0000
  N   N191      1.0  0.99363  0.85229  0.75105  1.0000
  H   H4594     1.0  0.77926  0.65639  0.87359  1.0000
  H   H4595     1.0  0.96994  0.85369  0.76874  1.0000
  C   C2680     1.0  0.52730  0.96531  0.74139  1.0000
  C   C2681     1.0  0.72629  0.67289  0.98021  1.0000
  H   H4596     1.0  0.67850  0.94620  0.74152  1.0000
  H   H4597     1.0  0.81627  0.71871  0.98032  1.0000
  H   H4598     1.0  0.52136  0.95129  0.79871  1.0000
  N   N192      1.0  0.54083  0.98542  0.78425  1.0000
  C   C2682     1.0  0.53698  0.96894  0.78496  1.0000
  C   C2683     1.0  0.62409  0.67244  0.97734  1.0000
  H   H4599     1.0  0.61831  0.68313  0.96866  1.0000
  S   S768      1.0  0.50585  0.75054  0.77013  1.0000
  H   H4600     1.0  0.50980  0.97179  0.79397  1.0000
  H   H4601     1.0  0.54748  0.95856  0.78788  1.0000
  H   H4602     1.0  0.63982  0.91262  0.73976  1.0000
  C   C2684     1.0  0.98319  0.86333  0.73896  1.0000
  H   H4603     1.0  0.77596  0.66071  0.85304  1.0000
  H   H4604     1.0  0.49981  0.66317  0.88566  1.0000
  C   C2685     1.0  0.98341  0.85213  0.76842  1.0000
  C   C2686     1.0  0.72727  0.66126  0.89357  1.0000
  C   C2687     1.0  0.59544  0.66599  0.96767  1.0000
  H   H4605     1.0  0.55210  0.96712  0.74114  1.0000
  C   C2688     1.0  0.67223  0.65923  0.85142  1.0000
  Fe  Fe384     1.0  0.54066  0.65581  0.87798  1.0000
  H   H4606     1.0  0.98887  0.88810  0.73408  1.0000
  H   H4607     1.0  0.65361  0.94382  0.73448  1.0000
  H   H4608     1.0  0.66110  0.91434  0.73388  1.0000
