data_image0
_chemical_formula_structural       HCSHC2FeHSH2CSHS2H4FeS2FeCS2HFeS3C2HFeCHFeS2FeH2S2CSH3NH2C2HFeHSH2CH4NH4C6H3C6H14C6H6SFeH3C2H5CHCH4C2H5C2H3CH4CFeH2SHNH3SHSCNHSH4SCH6C2HCH3C3HCNSCH3CH2NCH6C2H3CH3C2H3CH2CHSCHC2FeH3CH3CHCHFeNC9H3NHCHCH7C2H2CSH3CSCH2C5H2CNC2H2CSH2CH4CSCH3CNCSH3FeCH2SCH2CH2C2HCSC2NCHSH3FeCSH2C2H2CHSCH2C2H3CFeH3FeHCSH3CH3CSH2CH3SHFeH2C3H3C2H2C2FeC3HCH2CHC2H2SHC2HSH4CH3NHFeCSCFeS2NSFeSFeS2HFeH4CH3SH2FeH4CFeH2SC6H4C6H6CHSH7SHCSH2CHC2H4SH11C2H2CH2CHFeNC2H5CHC2H3CH3NHCH2C2H4C3HSCH5CHC3HCHCH2CHC2H4C2HCHCH5C2H4CHC3H3SH4CSCHCSFeSHCH3CHCNHCH4CFeCH7CHCH2C4H4C3H3CH2NH2CH2CHC2H7CSC2HSH2CHC3H4C2HNH2CH2CH5CHCHCFeSFeCSFeCHSHCHFeSCFeS3FeS2Fe2S2HCHSH2CHNSC7H4C6H2CH3CH2C2HC4HC7H6C3HSH2C2H2C3H4CHCHC2H3FeH3CHCH3C2H2CFeCHC2FeHCH4C2H5FeHSH3C3FeH4C2H2NHFeH2NCSC4SCH4CHSCH5NC2HCHCHCH4SH2FeH2SH7CSCHC2HSH2FeCH2CHSHSH3CH4FeSCSH4SCHNHSH3SH2C2HCH5C4HC2H3NHSHCH3SHCSHCH6CHFeSH2SCFeHC2H2CHSH2SCH2C3HCHCH5CH3NH2SHCHC2HC2HFeS2FeSCFeSFeS4H3C2Fe2S2FeHSFeS2FeS2FeSCHS2C6H6C3H3C4HCH3CHCH3C6H7CHC2NHC2H6CHSHCSC7H4CNC2H2C2SH2CH4CHNH5CSCH2C2SHCH4CHSFeC2HCHCH2CHC2SHCH2C2HCSH6FeHC2HCH4C2H4CSH2N2C2HCFe3CH5CH4CHCHSH8SH3C4FeHC2H2CH7SFeC2H2NH5CH3SHSH4CHSH4SC3H2C3H2C3H6FeC2HC2HC2H2NCSH4CH6CH2C3HCHNC8H22NHFeHCFeH2NCH3CH2CH4CH10CH3C3H4CH4C4H2CHCH2C2H2SHC2H11FeSHCFeHFeHSFeSHSNFeS2FeS2FeSFeS3FeSHFeSHFeSFeS3FeS2FeS2FeSFeS3FeS2FeSHFeSFeS3FeSCFeS2FeSFeS3C2H3C6H4C6H4C7H2C6H4C6H4C6H4C4H4CHC6H4C6H5C6H6SH5NH2C2H2CHCH4CHC2H5C2H2C2SC2H3CH2CNC3H2C2HSCH3CHCH2CHC5H8CHNC8H20NCHFeHC2H9CH5NCHNC8H19NC8H17SH2C2HSH2SCH3CH7CHSHC3HCH2CH3CH2C3SCHCHCH3CNSC2H5NH3CH3SHSC2H3CNC2H6FeHCHC2H5SCH2C2H7NCH5C2H2CHC2SH4CHFeHCH3CH3C3H2C3HSH2CH3CHFeC3HCH3CHCH6CHCHC2H3SH2NH3CH4CH2NH2SCHFeS3FeSFeS2FeS2Fe2S2C3H3CHFeHCHCH2SHSH2SHFeS2CH2CSCH4C2H5CSC6H4SH2SCH3CHFeH2C2H2CSFeH5SH2C2HC2H5C6H4CH2SC3HNC4HCHCHCH8CSH2CHCH5CH2CH2FeH4NC6HCH14NHSH3NC8H7C2HCH2C2H2NFeCSCHCHCHCHC2NCH2CH4S2CH3C2H2CSHCHCH2CFeHFeCNCHCH2CHC2H2CH2FeH4CHC4HFeH7CSFeCHC3SHS2CH4FeH2CH3CHCH2C2HCH10CHCH2CH2SH3S2H4CH3SH7C5HC2HC4HCH6C3HNHSHC2SCH3CHSFeSC2H2S2HNH2CH2SH2FeH3SCHFeSFeSHFeSHFeSFeS3FeS2FeS2FeSFeS3FeS2FeS2FeSFeS3FeS2FeS2FeSFeS3H2SNHFeS2FeS2FeSFeS4C2H3C6H4C6H4C6H4C6H4C6H6SC3H4C6H4C5H3C6H4C6H4C2H2C2HFeH2CFeH2CH3C6H3C3H2FeH6CHNC8H22CH2SH2CHCH2SCHCHCHNCHNHCFeH8CH2C2HCH4CHCH3FeHC2HC2HNC7H3SH8SCH3NC8H18NC8H23C2H5CHCHC5HCH3C2SCH3C2NC8H17CH3C2H2SHCH4CFeSHS2H4CH2CH2SH4CH3C3HCHCHCHCHC2SHCHC2HSCH2CH2C2H3CH4CH2NH4CH2CHNH5CHC3H2C2H3C2H5CH8CHC2HCH4CHFeHCH3NH2C2NH9CHCNCH2CH2C2H2CHC2HCH2CSH2SHCHFeH2FeS2FeS2FeSFeHS2FeSFeSHFeCSFeS2FeCFeS3CHCH4CFeHC4HSH2C7H4C6HNH4CH8CHC6H6C2HSC2H4CH2NH2C2H3NCH2CNC5H12CH4CHSNHC3FeHC2SH2NHCH2C2H4CSHCH5CH2C2HCHC3H2CSHSH2CHC2H2CNC8H22CH2C3H6C2H5SH2CH2CH3CFeCSH2NH3CH3CH3CH2CH2FeH3CHC2HCHCHSH2CHCFeCH4CH3SH2CH3CH4CHCSHNCH3FeS3H4CSH5C2H3C2H4CH4NFeH4CNCSCHCH7C2HC3H2C2HSH14SHSH2NFeHSHFeS2FeSFeHFeS3H2CH2C7H4C6H4C2H2C3H2CH2SCH7C5H2C2H2SC2HCHSH3FeCH3SH3SCHNC2H4CH3C2HFeH3CH9CH2NCH5CH3C3H2CHC2H4FeSCFeS2HFeHS2H2SCHFeS2FeS2FeSFeS3FeS2FeS2FeSFeHS2H3SH2CH3C6H4C6FeH3CHC2HCH6NHC2FeSH5C3HCHCSHCH3CH3C5H3CHCHCHCHCHCHC2H2CH2C3HC2HC4HSH6C2HFeH4CHCHCFeH2CH3C3H2NH3SC2HC4H3CHCH2C2HCH2CHSHCHCHCH3SCH4SNCH7SCNC8H10FeC2NH3C2H3C2HC3H5CHNH3C3H2CH6CH5CH7CHCHC2HCSH7CH3CSCHCHNH3C4H6CSHSH2SH5CH3SC2HCNC2H5CFeCSHCH2CHNH6Fe2HC2H2CNHCH2CFeNH4CHC2HSFeCSH4C2HC2H2CH3CHCHCHCH2CHSH3SH6CHCH8CH4CHSC2HCFeH3CHCHSCS2H2FeHCH3CH4FeH4C2HSHCH2C2SH3CHCH2C4H5C4H4
_chemical_formula_sum              "H2304 C1344 S384 Fe192 N96"
_cell_length_a       77.2134
_cell_length_b       77.6336
_cell_length_c       78.6131
_cell_angle_alpha    77.0252
_cell_angle_beta     76.6572
_cell_angle_gamma    77.014

_space_group_name_H-M_alt    "P 1"
_space_group_IT_number       1

loop_
  _space_group_symop_operation_xyz
  'x, y, z'

loop_
  _atom_site_type_symbol
  _atom_site_label
  _atom_site_symmetry_multiplicity
  _atom_site_fract_x
  _atom_site_fract_y
  _atom_site_fract_z
  _atom_site_occupancy
  H   H1        1.0  0.00931  0.20644  0.26814  1.0000
  C   C1        1.0  0.28894  0.01865  0.01877  1.0000
  S   S1        1.0  0.09681  0.00484  0.25099  1.0000
  H   H2        1.0  0.45827  0.08527  0.98861  1.0000
  C   C2        1.0  0.48033  0.06916  0.00977  1.0000
  C   C3        1.0  0.00559  0.17267  0.26799  1.0000
  Fe  Fe1       1.0  0.03199  0.12522  0.15828  1.0000
  H   H3        1.0  0.17593  0.01096  0.06894  1.0000
  S   S2        1.0  0.05521  0.11108  0.14039  1.0000
  H   H4        1.0  0.12141  0.04937  0.16906  1.0000
  H   H5        1.0  0.00283  0.03980  0.30770  1.0000
  C   C4        1.0  0.02148  0.05371  0.27625  1.0000
  S   S3        1.0  0.23288  0.00531  0.03910  1.0000
  H   H6        1.0  0.02851  0.16401  0.23771  1.0000
  S   S4        1.0  0.03483  0.14399  0.17498  1.0000
  S   S5        1.0  0.00944  0.19115  0.15663  1.0000
  H   H7        1.0  0.10127  0.18027  0.12524  1.0000
  H   H8        1.0  0.25150  0.04732  0.07686  1.0000
  H   H9        1.0  0.03498  0.15925  0.11064  1.0000
  H   H10       1.0  0.10585  0.18034  0.10161  1.0000
  Fe  Fe2       1.0  0.15274  0.08415  0.14641  1.0000
  S   S6        1.0  0.18107  0.07992  0.15108  1.0000
  S   S7        1.0  0.12975  0.09699  0.16545  1.0000
  Fe  Fe3       1.0  0.16367  0.06436  0.11539  1.0000
  C   C5        1.0  0.32145  0.12173  0.12378  1.0000
  S   S8        1.0  0.15257  0.05502  0.09575  1.0000
  S   S9        1.0  0.36464  0.07957  0.06953  1.0000
  H   H11       1.0  0.40440  0.08438  0.01416  1.0000
  Fe  Fe4       1.0  0.18868  0.08638  0.12137  1.0000
  S   S10       1.0  0.21006  0.10268  0.10685  1.0000
  S   S11       1.0  0.15402  0.05555  0.14456  1.0000
  S   S12       1.0  0.16000  0.09353  0.11693  1.0000
  C   C6        1.0  0.03940  0.03897  0.30685  1.0000
  C   C7        1.0  0.18736  0.05000  0.04096  1.0000
  H   H12       1.0  0.33274  0.10650  0.06313  1.0000
  Fe  Fe5       1.0  0.39181  0.20166  0.00872  1.0000
  C   C8        1.0  0.38055  0.10600  0.01776  1.0000
  H   H13       1.0  0.02024  0.16189  0.21003  1.0000
  Fe  Fe6       1.0  0.37256  0.17262  0.03317  1.0000
  S   S13       1.0  0.38678  0.15193  0.01645  1.0000
  S   S14       1.0  0.35090  0.16429  0.05605  1.0000
  Fe  Fe7       1.0  0.41146  0.16327  0.01475  1.0000
  H   H14       1.0  0.45367  0.17301  0.98639  1.0000
  H   H15       1.0  0.11565  0.05542  0.21422  1.0000
  S   S15       1.0  0.39775  0.18228  0.03353  1.0000
  S   S16       1.0  0.36516  0.19389  0.01030  1.0000
  C   C9        1.0  0.23304  0.99120  0.14288  1.0000
  S   S17       1.0  0.04395  0.99589  0.36604  1.0000
  H   H16       1.0  0.16259  0.06109  0.03120  1.0000
  H   H17       1.0  0.04657  0.03357  0.29471  1.0000
  H   H18       1.0  0.40124  0.09377  0.03362  1.0000
  N   N1        1.0  0.47597  0.08934  0.00483  1.0000
  H   H19       1.0  0.48465  0.06493  0.02289  1.0000
  H   H20       1.0  0.38523  0.07947  0.99884  1.0000
  C   C10       1.0  0.07283  0.00296  0.28288  1.0000
  C   C11       1.0  0.99930  0.05471  0.30468  1.0000
  H   H21       1.0  0.12744  0.02085  0.36888  1.0000
  Fe  Fe8       1.0  0.18293  0.05202  0.14691  1.0000
  H   H22       1.0  0.38714  0.07859  0.03343  1.0000
  S   S18       1.0  0.20050  0.04873  0.01969  1.0000
  H   H23       1.0  0.14241  0.06124  0.18559  1.0000
  H   H24       1.0  0.11280  0.13024  0.11261  1.0000
  C   C12       1.0  0.11219  0.01905  0.19780  1.0000
  H   H25       1.0  0.06644  0.19133  0.11820  1.0000
  H   H26       1.0  0.31432  0.13442  0.12859  1.0000
  H   H27       1.0  0.21236  0.10719  0.05540  1.0000
  H   H28       1.0  0.11328  0.15150  0.11733  1.0000
  N   N2        1.0  0.10626  0.99342  0.37366  1.0000
  H   H29       1.0  0.25914  0.06821  0.06943  1.0000
  H   H30       1.0  0.07621  0.18075  0.09999  1.0000
  H   H31       1.0  0.23713  0.06692  0.08369  1.0000
  H   H32       1.0  0.00959  0.15377  0.24160  1.0000
  C   C13       1.0  0.30941  0.01300  0.14573  1.0000
  C   C14       1.0  0.34345  0.11316  0.06340  1.0000
  C   C15       1.0  0.34045  0.13197  0.06069  1.0000
  C   C16       1.0  0.35450  0.14081  0.06021  1.0000
  C   C17       1.0  0.37157  0.13084  0.06245  1.0000
  C   C18       1.0  0.37443  0.11201  0.06563  1.0000
  H   H33       1.0  0.32740  0.13973  0.05843  1.0000
  H   H34       1.0  0.38252  0.13768  0.06186  1.0000
  H   H35       1.0  0.38762  0.10434  0.06752  1.0000
  C   C19       1.0  0.26591  0.07314  0.11702  1.0000
  C   C20       1.0  0.25044  0.06979  0.12968  1.0000
  C   C21       1.0  0.23321  0.07865  0.12648  1.0000
  C   C22       1.0  0.23149  0.09139  0.11097  1.0000
  C   C23       1.0  0.24700  0.09499  0.09850  1.0000
  C   C24       1.0  0.26415  0.08555  0.10132  1.0000
  H   H36       1.0  0.25168  0.06017  0.14182  1.0000
  H   H37       1.0  0.22128  0.07585  0.13618  1.0000
  H   H38       1.0  0.24575  0.10486  0.08651  1.0000
  H   H39       1.0  0.01202  0.23687  0.18895  1.0000
  H   H40       1.0  0.08740  0.15014  0.10192  1.0000
  H   H41       1.0  0.09059  0.15931  0.14496  1.0000
  H   H42       1.0  0.43321  0.16754  0.04112  1.0000
  H   H43       1.0  0.10510  0.13399  0.13478  1.0000
  H   H44       1.0  0.27197  0.99780  0.14266  1.0000
  H   H45       1.0  0.07979  0.13466  0.12091  1.0000
  H   H46       1.0  0.28279  0.09654  0.15725  1.0000
  H   H47       1.0  0.04500  0.17297  0.13026  1.0000
  H   H48       1.0  0.05063  0.14924  0.13584  1.0000
  H   H49       1.0  0.05677  0.14657  0.10391  1.0000
  C   C25       1.0  0.07552  0.10521  0.14844  1.0000
  C   C26       1.0  0.09137  0.09758  0.13790  1.0000
  C   C27       1.0  0.10806  0.09454  0.14330  1.0000
  C   C28       1.0  0.10891  0.09931  0.15918  1.0000
  C   C29       1.0  0.09300  0.10635  0.17002  1.0000
  C   C30       1.0  0.07630  0.10916  0.16472  1.0000
  H   H50       1.0  0.09081  0.09439  0.12534  1.0000
  H   H51       1.0  0.12029  0.08894  0.13495  1.0000
  H   H52       1.0  0.09361  0.10980  0.18243  1.0000
  H   H53       1.0  0.06409  0.11455  0.17315  1.0000
  H   H54       1.0  0.46931  0.09221  0.03247  1.0000
  H   H55       1.0  0.29625  0.14151  0.10677  1.0000
  S   S19       1.0  0.49437  0.17233  0.04448  1.0000
  Fe  Fe9       1.0  0.30640  0.05677  0.09565  1.0000
  H   H56       1.0  0.22452  0.07724  0.00726  1.0000
  H   H57       1.0  0.32522  0.09476  0.02736  1.0000
  H   H58       1.0  0.31356  0.13151  0.09090  1.0000
  C   C31       1.0  0.21969  0.99947  0.15536  1.0000
  C   C32       1.0  0.23327  0.07604  0.01704  1.0000
  H   H59       1.0  0.32572  0.10089  0.09568  1.0000
  H   H60       1.0  0.28240  0.02446  0.17280  1.0000
  H   H61       1.0  0.35149  0.09512  0.03486  1.0000
  H   H62       1.0  0.13420  0.00416  0.18034  1.0000
  H   H63       1.0  0.09731  0.02026  0.20042  1.0000
  C   C33       1.0  0.30214  0.12858  0.10195  1.0000
  H   H64       1.0  0.28499  0.12362  0.13531  1.0000
  C   C34       1.0  0.01034  0.21706  0.17443  1.0000
  H   H65       1.0  0.00068  0.09706  0.21723  1.0000
  H   H66       1.0  0.30513  0.10042  0.15481  1.0000
  H   H67       1.0  0.04113  0.06643  0.29495  1.0000
  H   H68       1.0  0.33264  0.01907  0.15283  1.0000
  C   C35       1.0  0.14746  0.04861  0.19423  1.0000
  C   C36       1.0  0.31938  0.01529  0.15976  1.0000
  H   H69       1.0  0.26995  0.03021  0.12692  1.0000
  H   H70       1.0  0.05236  0.17092  0.09749  1.0000
  H   H71       1.0  0.06808  0.17243  0.16764  1.0000
  H   H72       1.0  0.47798  0.23063  0.01356  1.0000
  H   H73       1.0  0.23312  0.12173  0.03775  1.0000
  C   C37       1.0  0.28796  0.12448  0.09315  1.0000
  C   C38       1.0  0.43828  0.23110  0.01208  1.0000
  H   H74       1.0  0.22005  0.04295  0.13539  1.0000
  H   H75       1.0  0.38788  0.10060  0.98506  1.0000
  H   H76       1.0  0.07463  0.00736  0.40043  1.0000
  C   C39       1.0  0.01023  0.08267  0.28682  1.0000
  H   H77       1.0  0.32591  0.11285  0.13567  1.0000
  H   H78       1.0  0.19139  0.04395  0.08427  1.0000
  H   H79       1.0  0.19324  0.99230  0.07227  1.0000
  H   H80       1.0  0.16186  0.01493  0.12833  1.0000
  C   C40       1.0  0.29237  0.99082  0.16703  1.0000
  Fe  Fe10      1.0  0.34137  0.06559  0.07224  1.0000
  H   H81       1.0  0.46112  0.11138  0.01814  1.0000
  H   H82       1.0  0.27597  0.08809  0.09145  1.0000
  S   S20       1.0  0.39357  0.23090  0.00492  1.0000
  H   H83       1.0  0.33595  0.07574  0.01731  1.0000
  N   N3        1.0  0.30874  0.11415  0.11668  1.0000
  H   H84       1.0  0.17405  0.99416  0.19719  1.0000
  H   H85       1.0  0.33518  0.12425  0.02461  1.0000
  H   H86       1.0  0.25586  0.11814  0.02574  1.0000
  S   S21       1.0  0.31248  0.07915  0.07300  1.0000
  H   H87       1.0  0.34822  0.12892  0.11770  1.0000
  S   S22       1.0  0.29666  0.06947  0.03347  1.0000
  C   C41       1.0  0.34502  0.13164  0.01484  1.0000
  N   N4        1.0  0.36698  0.10232  0.00851  1.0000
  H   H88       1.0  0.02223  0.21952  0.16450  1.0000
  S   S23       1.0  0.01292  0.04034  0.35113  1.0000
  H   H89       1.0  0.09536  0.02118  0.37607  1.0000
  H   H90       1.0  0.11673  0.03254  0.22513  1.0000
  H   H91       1.0  0.21080  0.07558  0.03850  1.0000
  H   H92       1.0  0.21449  0.09748  0.02848  1.0000
  S   S24       1.0  0.33546  0.04455  0.09636  1.0000
  C   C42       1.0  0.16638  0.05396  0.07468  1.0000
  H   H93       1.0  0.49765  0.21748  0.00165  1.0000
  H   H94       1.0  0.49164  0.06313  0.98270  1.0000
  H   H95       1.0  0.01419  0.14337  0.26940  1.0000
  H   H96       1.0  0.42986  0.22059  0.01483  1.0000
  H   H97       1.0  0.38889  0.11560  0.00867  1.0000
  H   H98       1.0  0.32234  0.00273  0.16941  1.0000
  C   C43       1.0  0.47868  0.16327  0.03786  1.0000
  C   C44       1.0  0.48530  0.21689  0.01211  1.0000
  H   H99       1.0  0.44446  0.23525  0.98355  1.0000
  C   C45       1.0  0.17166  0.00500  0.13559  1.0000
  H   H100      1.0  0.23209  0.00179  0.08164  1.0000
  H   H101      1.0  0.31752  0.03357  0.03685  1.0000
  H   H102      1.0  0.31182  0.02630  0.16692  1.0000
  C   C46       1.0  0.24696  0.06195  0.07237  1.0000
  C   C47       1.0  0.25827  0.02041  0.16648  1.0000
  C   C48       1.0  0.28455  0.00356  0.13779  1.0000
  H   H103      1.0  0.07270  0.14732  0.15198  1.0000
  C   C49       1.0  0.19540  0.04492  0.05598  1.0000
  N   N5        1.0  0.11795  0.03666  0.19675  1.0000
  S   S25       1.0  0.34774  0.99960  0.07835  1.0000
  C   C50       1.0  0.36674  0.08879  0.98115  1.0000
  H   H104      1.0  0.34614  0.11446  0.10383  1.0000
  H   H105      1.0  0.21287  0.99139  0.16693  1.0000
  H   H106      1.0  0.30070  0.08317  0.14479  1.0000
  C   C51       1.0  0.35490  0.09072  0.02179  1.0000
  H   H107      1.0  0.33589  0.13804  0.10023  1.0000
  H   H108      1.0  0.20523  0.00138  0.22483  1.0000
  N   N6        1.0  0.00359  0.18023  0.24894  1.0000
  C   C52       1.0  0.18094  0.99470  0.20797  1.0000
  H   H109      1.0  0.24432  0.08349  0.01015  1.0000
  H   H110      1.0  0.09415  0.20006  0.11077  1.0000
  H   H111      1.0  0.03590  0.05482  0.27048  1.0000
  H   H112      1.0  0.25025  0.03219  0.17233  1.0000
  H   H113      1.0  0.44514  0.19457  0.00553  1.0000
  H   H114      1.0  0.19361  0.09270  0.08147  1.0000
  C   C53       1.0  0.46323  0.09649  0.02032  1.0000
  C   C54       1.0  0.30393  0.01840  0.02605  1.0000
  H   H115      1.0  0.46797  0.06331  0.01161  1.0000
  H   H116      1.0  0.26578  0.03521  0.00871  1.0000
  H   H117      1.0  0.05055  0.17679  0.15520  1.0000
  C   C55       1.0  0.00562  0.21124  0.25483  1.0000
  H   H118      1.0  0.34461  0.08127  0.11174  1.0000
  H   H119      1.0  0.10619  0.99630  0.40065  1.0000
  H   H120      1.0  0.99912  0.10781  0.29648  1.0000
  C   C56       1.0  0.99985  0.11348  0.23625  1.0000
  C   C57       1.0  0.33671  0.08993  0.01709  1.0000
  H   H121      1.0  0.44437  0.11600  0.99377  1.0000
  H   H122      1.0  0.33141  0.08559  0.13285  1.0000
  H   H123      1.0  0.45541  0.17788  0.05304  1.0000
  C   C58       1.0  0.47321  0.20520  0.00864  1.0000
  H   H124      1.0  0.09384  0.04642  0.16608  1.0000
  H   H125      1.0  0.08171  0.01109  0.36751  1.0000
  C   C59       1.0  0.27718  0.03488  0.01466  1.0000
  H   H126      1.0  0.33717  0.14388  0.00780  1.0000
  S   S26       1.0  0.01406  0.10966  0.17989  1.0000
  C   C60       1.0  0.44459  0.09055  0.02571  1.0000
  H   H127      1.0  0.35776  0.07909  0.98821  1.0000
  C   C61       1.0  0.06744  0.99447  0.30054  1.0000
  C   C62       1.0  0.30639  0.03406  0.03048  1.0000
  Fe  Fe11      1.0  0.01813  0.01009  0.35667  1.0000
  H   H128      1.0  0.27743  0.01484  0.11182  1.0000
  H   H129      1.0  0.30812  0.02619  0.13652  1.0000
  H   H130      1.0  0.46551  0.12387  0.98462  1.0000
  C   C63       1.0  0.15830  0.05858  0.05968  1.0000
  H   H131      1.0  0.20002  0.99320  0.13214  1.0000
  H   H132      1.0  0.02728  0.19294  0.24200  1.0000
  H   H133      1.0  0.46308  0.20246  0.02104  1.0000
  C   C64       1.0  0.01219  0.17268  0.21732  1.0000
  H   H134      1.0  0.08414  0.05906  0.21214  1.0000
  C   C65       1.0  0.29447  0.05023  0.02664  1.0000
  H   H135      1.0  0.06945  0.18862  0.14749  1.0000
  Fe  Fe12      1.0  0.33279  0.02817  0.07731  1.0000
  N   N7        1.0  0.07397  0.16221  0.12508  1.0000
  C   C66       1.0  0.05450  0.16104  0.12583  1.0000
  C   C67       1.0  0.07632  0.16026  0.14400  1.0000
  C   C68       1.0  0.08603  0.14690  0.11665  1.0000
  C   C69       1.0  0.07728  0.18011  0.11398  1.0000
  C   C70       1.0  0.04971  0.15940  0.10830  1.0000
  C   C71       1.0  0.06536  0.17552  0.15389  1.0000
  C   C72       1.0  0.10534  0.14062  0.12068  1.0000
  C   C73       1.0  0.09576  0.18519  0.11290  1.0000
  C   C74       1.0  0.18505  0.04750  0.07275  1.0000
  H   H136      1.0  0.14387  0.06351  0.06108  1.0000
  H   H137      1.0  0.35329  0.13650  0.02192  1.0000
  H   H138      1.0  0.06293  0.01185  0.27567  1.0000
  N   N8        1.0  0.01489  0.06256  0.29243  1.0000
  H   H139      1.0  0.25344  0.09468  0.05175  1.0000
  C   C75       1.0  0.44751  0.16312  0.03673  1.0000
  H   H140      1.0  0.32634  0.06982  0.12242  1.0000
  C   C76       1.0  0.46008  0.16881  0.04362  1.0000
  H   H141      1.0  0.02551  0.06349  0.31549  1.0000
  H   H142      1.0  0.48998  0.21058  0.02481  1.0000
  H   H143      1.0  0.28271  0.10564  0.12577  1.0000
  H   H144      1.0  0.30731  0.09053  0.10731  1.0000
  H   H145      1.0  0.29272  0.11183  0.08787  1.0000
  H   H146      1.0  0.17925  0.01740  0.09477  1.0000
  H   H147      1.0  0.11247  0.99895  0.18230  1.0000
  C   C77       1.0  0.33880  0.12591  0.11047  1.0000
  C   C78       1.0  0.24730  0.09338  0.04071  1.0000
  H   H148      1.0  0.25832  0.08542  0.03225  1.0000
  H   H149      1.0  0.23855  0.11257  0.01751  1.0000
  C   C79       1.0  0.36037  0.10313  0.06615  1.0000
  S   S27       1.0  0.28742  0.06205  0.12108  1.0000
  H   H150      1.0  0.27464  0.12422  0.10222  1.0000
  H   H151      1.0  0.00308  0.15019  0.28996  1.0000
  H   H152      1.0  0.09295  0.99153  0.34084  1.0000
  C   C80       1.0  0.23846  0.06462  0.05578  1.0000
  S   S28       1.0  0.43829  0.14473  0.01492  1.0000
  C   C81       1.0  0.21835  0.09346  0.06157  1.0000
  H   H153      1.0  0.24907  0.05800  0.04587  1.0000
  H   H154      1.0  0.19319  0.08367  0.06279  1.0000
  C   C82       1.0  0.48466  0.15150  0.02575  1.0000
  C   C83       1.0  0.29244  0.11080  0.13095  1.0000
  C   C84       1.0  0.31773  0.09736  0.10921  1.0000
  C   C85       1.0  0.29589  0.09694  0.14777  1.0000
  C   C86       1.0  0.33067  0.08303  0.11983  1.0000
  H   H155      1.0  0.28561  0.13540  0.08161  1.0000
  H   H156      1.0  0.29354  0.02520  0.11640  1.0000
  C   C87       1.0  0.16885  0.05710  0.04280  1.0000
  N   N9        1.0  0.23144  0.08379  0.04783  1.0000
  C   C88       1.0  0.20212  0.08444  0.07169  1.0000
  C   C89       1.0  0.24319  0.11252  0.02985  1.0000
  H   H157      1.0  0.22761  0.05648  0.05938  1.0000
  H   H158      1.0  0.22542  0.09556  0.07153  1.0000
  C   C90       1.0  0.45354  0.15162  0.02434  1.0000
  S   S29       1.0  0.01834  0.12316  0.22418  1.0000
  H   H159      1.0  0.20966  0.03930  0.05451  1.0000
  H   H160      1.0  0.02123  0.03903  0.27997  1.0000
  C   C91       1.0  0.22164  0.08374  0.03332  1.0000
  H   H161      1.0  0.23872  0.06149  0.02062  1.0000
  H   H162      1.0  0.20649  0.07095  0.07930  1.0000
  H   H163      1.0  0.25642  0.00825  0.17670  1.0000
  H   H164      1.0  0.01575  0.09355  0.30829  1.0000
  C   C92       1.0  0.47212  0.14565  0.01907  1.0000
  S   S30       1.0  0.19280  0.05796  0.11735  1.0000
  C   C93       1.0  0.13842  0.03295  0.19369  1.0000
  H   H165      1.0  0.21850  0.01474  0.09752  1.0000
  H   H166      1.0  0.31332  0.00602  0.02884  1.0000
  H   H167      1.0  0.25233  0.02017  0.15503  1.0000
  C   C94       1.0  0.11193  0.05112  0.18180  1.0000
  N   N10       1.0  0.46415  0.21259  0.99279  1.0000
  C   C95       1.0  0.24061  0.00147  0.12706  1.0000
  S   S31       1.0  0.24155  0.01787  0.99503  1.0000
  H   H168      1.0  0.01227  0.22300  0.24841  1.0000
  H   H169      1.0  0.11263  0.06461  0.18400  1.0000
  H   H170      1.0  0.34794  0.11950  0.99225  1.0000
  Fe  Fe13      1.0  0.31165  0.05992  0.05602  1.0000
  C   C96       1.0  0.28119  0.01952  0.12256  1.0000
  H   H171      1.0  0.29452  0.99314  0.13152  1.0000
  H   H172      1.0  0.14581  0.05090  0.20799  1.0000
  S   S32       1.0  0.19506  0.02823  0.16533  1.0000
  C   C97       1.0  0.09283  0.05218  0.17807  1.0000
  H   H173      1.0  0.27872  0.03563  0.15141  1.0000
  H   H174      1.0  0.47688  0.13707  0.00928  1.0000
  C   C98       1.0  0.45745  0.11383  0.98436  1.0000
  H   H175      1.0  0.02202  0.08785  0.27760  1.0000
  H   H176      1.0  0.99936  0.08659  0.27897  1.0000
  C   C99       1.0  0.27829  0.02261  0.16077  1.0000
  C   C100      1.0  0.35685  0.12042  0.00103  1.0000
  H   H177      1.0  0.37357  0.11261  0.02928  1.0000
  C   C101      1.0  0.01384  0.16699  0.23708  1.0000
  S   S33       1.0  0.30300  0.03842  0.07872  1.0000
  C   C102      1.0  0.11107  0.04277  0.21440  1.0000
  C   C103      1.0  0.22317  0.02848  0.13715  1.0000
  N   N11       1.0  0.29117  0.00750  0.15284  1.0000
  C   C104      1.0  0.46768  0.09431  0.98835  1.0000
  H   H178      1.0  0.28823  0.99165  0.05277  1.0000
  S   S34       1.0  0.34125  0.04827  0.05304  1.0000
  H   H179      1.0  0.24224  0.02824  0.11236  1.0000
  H   H180      1.0  0.14340  0.02125  0.20362  1.0000
  H   H181      1.0  0.27156  0.06334  0.01453  1.0000
  Fe  Fe14      1.0  0.01512  0.12987  0.19580  1.0000
  C   C105      1.0  0.28032  0.05076  0.01810  1.0000
  S   S35       1.0  0.20629  0.99910  0.01427  1.0000
  H   H182      1.0  0.01938  0.17313  0.26981  1.0000
  H   H183      1.0  0.01025  0.20368  0.22942  1.0000
  C   C106      1.0  0.23601  0.02018  0.12434  1.0000
  C   C107      1.0  0.21431  0.01811  0.15212  1.0000
  H   H184      1.0  0.02970  0.03036  0.31486  1.0000
  H   H185      1.0  0.10360  0.03549  0.34801  1.0000
  C   C108      1.0  0.19037  0.00106  0.12344  1.0000
  H   H186      1.0  0.31862  0.00340  0.13753  1.0000
  S   S36       1.0  0.00921  0.14415  0.14689  1.0000
  C   C109      1.0  0.03023  0.05883  0.30249  1.0000
  H   H187      1.0  0.33417  0.09762  0.00403  1.0000
  H   H188      1.0  0.44470  0.07880  0.03679  1.0000
  C   C110      1.0  0.12653  0.99223  0.36996  1.0000
  C   C111      1.0  0.11962  0.01019  0.18122  1.0000
  H   H189      1.0  0.44019  0.08703  0.01471  1.0000
  H   H190      1.0  0.36226  0.07662  0.02456  1.0000
  H   H191      1.0  0.14435  0.02913  0.18044  1.0000
  C   C112      1.0  0.39397  0.08955  0.02503  1.0000
  Fe  Fe15      1.0  0.21809  0.02169  0.01766  1.0000
  H   H192      1.0  0.04972  0.03794  0.31500  1.0000
  H   H193      1.0  0.19460  0.01435  0.11836  1.0000
  H   H194      1.0  0.11645  0.00907  0.20939  1.0000
  Fe  Fe16      1.0  0.01021  0.16148  0.16578  1.0000
  H   H195      1.0  0.08382  0.03534  0.22155  1.0000
  C   C113      1.0  0.49495  0.05960  0.99622  1.0000
  S   S37       1.0  0.02243  0.99482  0.33452  1.0000
  H   H196      1.0  0.16225  0.04513  0.18923  1.0000
  H   H197      1.0  0.08322  0.04598  0.18916  1.0000
  H   H198      1.0  0.08652  0.06655  0.17465  1.0000
  C   C114      1.0  0.37756  0.09278  0.99356  1.0000
  H   H199      1.0  0.11708  0.01538  0.34189  1.0000
  H   H200      1.0  0.43407  0.10186  0.03012  1.0000
  H   H201      1.0  0.47450  0.17549  0.99106  1.0000
  C   C115      1.0  0.10325  0.02129  0.34788  1.0000
  S   S38       1.0  0.25557  0.99073  0.11074  1.0000
  H   H202      1.0  0.31186  0.99412  0.09747  1.0000
  H   H203      1.0  0.29472  0.99376  0.17944  1.0000
  C   C116      1.0  0.09040  0.04690  0.22061  1.0000
  H   H204      1.0  0.48963  0.11219  0.99674  1.0000
  H   H205      1.0  0.11760  0.01971  0.16873  1.0000
  H   H206      1.0  0.14829  0.00557  0.37029  1.0000
  S   S39       1.0  0.00065  0.99211  0.37609  1.0000
  H   H207      1.0  0.23552  0.99879  0.20575  1.0000
  Fe  Fe17      1.0  0.25546  0.99958  0.01612  1.0000
  H   H208      1.0  0.21006  0.01322  0.07834  1.0000
  H   H209      1.0  0.05347  0.99717  0.30702  1.0000
  C   C117      1.0  0.09610  0.01179  0.36697  1.0000
  C   C118      1.0  0.00131  0.20356  0.17386  1.0000
  C   C119      1.0  0.13341  0.00721  0.37510  1.0000
  H   H210      1.0  0.01445  0.07466  0.25368  1.0000
  H   H211      1.0  0.08746  0.04992  0.23426  1.0000
  H   H212      1.0  0.48176  0.19188  0.00741  1.0000
  C   C120      1.0  0.01138  0.06124  0.26059  1.0000
  C   C121      1.0  0.45270  0.19944  0.99203  1.0000
  H   H213      1.0  0.17320  0.01112  0.14653  1.0000
  H   H214      1.0  0.09404  0.02155  0.33882  1.0000
  C   C122      1.0  0.00427  0.09357  0.30201  1.0000
  C   C123      1.0  0.00448  0.22696  0.18820  1.0000
  Fe  Fe18      1.0  0.38127  0.17389  0.99358  1.0000
  C   C124      1.0  0.21795  0.00575  0.08863  1.0000
  C   C125      1.0  0.46305  0.18254  0.98438  1.0000
  C   C126      1.0  0.00296  0.15313  0.27548  1.0000
  H   H215      1.0  0.49589  0.04483  0.00049  1.0000
  C   C127      1.0  0.17827  0.00304  0.09682  1.0000
  H   H216      1.0  0.01764  0.18506  0.21073  1.0000
  H   H217      1.0  0.01619  0.05224  0.25063  1.0000
  C   C128      1.0  0.01232  0.19673  0.24298  1.0000
  H   H218      1.0  0.44191  0.20593  0.98422  1.0000
  C   C129      1.0  0.17955  0.99836  0.07844  1.0000
  C   C130      1.0  0.07970  0.99274  0.40088  1.0000
  H   H219      1.0  0.18974  0.00487  0.20236  1.0000
  H   H220      1.0  0.17023  0.99929  0.21888  1.0000
  S   S40       1.0  0.40748  0.18328  0.98992  1.0000
  H   H221      1.0  0.13264  0.99186  0.35582  1.0000
  C   C131      1.0  0.45219  0.23057  0.99454  1.0000
  C   C132      1.0  0.09074  0.99863  0.27410  1.0000
  H   H222      1.0  0.44489  0.22978  0.02354  1.0000
  S   S41       1.0  0.28480  0.99848  0.01550  1.0000
  H   H223      1.0  0.28215  0.99380  0.07549  1.0000
  H   H224      1.0  0.13118  0.00628  0.38969  1.0000
  H   H225      1.0  0.22069  0.99199  0.19527  1.0000
  H   H226      1.0  0.49615  0.10070  0.02688  1.0000
  C   C133      1.0  0.49286  0.09737  0.00071  1.0000
  H   H227      1.0  0.16398  0.00295  0.10376  1.0000
  H   H228      1.0  0.16598  0.99269  0.14193  1.0000
  H   H229      1.0  0.30418  0.99682  0.06387  1.0000
  N   N12       1.0  0.19117  0.99151  0.10842  1.0000
  H   H230      1.0  0.36654  0.12878  0.99224  1.0000
  Fe  Fe19      1.0  0.23134  0.99344  0.99378  1.0000
  C   C134      1.0  0.27414  0.99685  0.90981  1.0000
  S   S42       1.0  0.42522  0.20861  0.88850  1.0000
  C   C135      1.0  0.38113  0.15077  0.96315  1.0000
  Fe  Fe20      1.0  0.45959  0.07072  0.90624  1.0000
  S   S43       1.0  0.43858  0.09522  0.90106  1.0000
  S   S44       1.0  0.45674  0.04512  0.89735  1.0000
  N   N13       1.0  0.46246  0.01032  0.82886  1.0000
  S   S45       1.0  0.45600  0.11533  0.92447  1.0000
  Fe  Fe21      1.0  0.43636  0.09648  0.92969  1.0000
  S   S46       1.0  0.40856  0.09748  0.94644  1.0000
  Fe  Fe22      1.0  0.46082  0.11086  0.89634  1.0000
  S   S47       1.0  0.46669  0.13247  0.87275  1.0000
  S   S48       1.0  0.45675  0.07151  0.93543  1.0000
  H   H231      1.0  0.38106  0.04324  0.88966  1.0000
  Fe  Fe23      1.0  0.48199  0.22368  0.89712  1.0000
  H   H232      1.0  0.35906  0.14840  0.95188  1.0000
  H   H233      1.0  0.46903  0.15172  0.90563  1.0000
  H   H234      1.0  0.46011  0.00948  0.85711  1.0000
  H   H235      1.0  0.43153  0.01880  0.81050  1.0000
  C   C136      1.0  0.41927  0.04488  0.93379  1.0000
  H   H236      1.0  0.35140  0.22515  0.93764  1.0000
  H   H237      1.0  0.48638  0.22519  0.97677  1.0000
  H   H238      1.0  0.28012  0.00629  0.91449  1.0000
  S   S49       1.0  0.40220  0.03179  0.85246  1.0000
  H   H239      1.0  0.41420  0.06847  0.90517  1.0000
  H   H240      1.0  0.36317  0.07716  0.91912  1.0000
  Fe  Fe24      1.0  0.39536  0.00598  0.84756  1.0000
  H   H241      1.0  0.40170  0.22968  0.91802  1.0000
  H   H242      1.0  0.35580  0.22791  0.97056  1.0000
  H   H243      1.0  0.36922  0.06339  0.89701  1.0000
  H   H244      1.0  0.24544  0.00905  0.91393  1.0000
  C   C137      1.0  0.49103  0.15963  0.91486  1.0000
  Fe  Fe25      1.0  0.44509  0.22508  0.88984  1.0000
  H   H245      1.0  0.42777  0.05532  0.92797  1.0000
  H   H246      1.0  0.48168  0.02891  0.85568  1.0000
  S   S50       1.0  0.47214  0.22613  0.87181  1.0000
  C   C138      1.0  0.44107  0.04181  0.88518  1.0000
  C   C139      1.0  0.43795  0.02431  0.88638  1.0000
  C   C140      1.0  0.42599  0.02099  0.87675  1.0000
  C   C141      1.0  0.41705  0.03512  0.86553  1.0000
  C   C142      1.0  0.42020  0.05259  0.86431  1.0000
  C   C143      1.0  0.43205  0.05594  0.87403  1.0000
  H   H247      1.0  0.44483  0.01321  0.89488  1.0000
  H   H248      1.0  0.42377  0.00745  0.87797  1.0000
  H   H249      1.0  0.41352  0.06367  0.85562  1.0000
  H   H250      1.0  0.43440  0.06945  0.87268  1.0000
  C   C144      1.0  0.43603  0.18752  0.88335  1.0000
  C   C145      1.0  0.45138  0.18605  0.86988  1.0000
  C   C146      1.0  0.46009  0.16911  0.86598  1.0000
  C   C147      1.0  0.45398  0.15358  0.87606  1.0000
  C   C148      1.0  0.43854  0.15505  0.88946  1.0000
  C   C149      1.0  0.42938  0.17205  0.89288  1.0000
  H   H251      1.0  0.45635  0.19798  0.86227  1.0000
  H   H252      1.0  0.47191  0.16801  0.85548  1.0000
  H   H253      1.0  0.43370  0.14308  0.89720  1.0000
  H   H254      1.0  0.41739  0.17315  0.90317  1.0000
  H   H255      1.0  0.38777  0.03371  0.92316  1.0000
  H   H256      1.0  0.42187  0.03505  0.92481  1.0000
  C   C150      1.0  0.39908  0.05340  0.93819  1.0000
  H   H257      1.0  0.39324  0.07661  0.88430  1.0000
  S   S51       1.0  0.45555  0.22003  0.91522  1.0000
  H   H258      1.0  0.47226  0.00005  0.80405  1.0000
  H   H259      1.0  0.37193  0.08198  0.93587  1.0000
  H   H260      1.0  0.36336  0.05572  0.95685  1.0000
  H   H261      1.0  0.49312  0.17362  0.91347  1.0000
  H   H262      1.0  0.48060  0.21499  0.94802  1.0000
  H   H263      1.0  0.48332  0.03185  0.80220  1.0000
  H   H264      1.0  0.39811  0.06383  0.94624  1.0000
  S   S52       1.0  0.36783  0.99769  0.85407  1.0000
  H   H265      1.0  0.43853  0.00069  0.84492  1.0000
  C   C151      1.0  0.37268  0.14261  0.95399  1.0000
  S   S53       1.0  0.36885  0.16943  0.97226  1.0000
  H   H266      1.0  0.43394  0.04159  0.80288  1.0000
  H   H267      1.0  0.49259  0.15318  0.92869  1.0000
  C   C152      1.0  0.40019  0.07493  0.91033  1.0000
  H   H268      1.0  0.36390  0.04185  0.90890  1.0000
  C   C153      1.0  0.36240  0.21335  0.93995  1.0000
  C   C154      1.0  0.41368  0.23098  0.97105  1.0000
  H   H269      1.0  0.48796  0.18497  0.88494  1.0000
  H   H270      1.0  0.35914  0.10107  0.97408  1.0000
  H   H271      1.0  0.46314  0.15682  0.92739  1.0000
  H   H272      1.0  0.45760  0.03922  0.81855  1.0000
  S   S54       1.0  0.48256  0.08643  0.89948  1.0000
  H   H273      1.0  0.41071  0.17837  0.94593  1.0000
  H   H274      1.0  0.46475  0.17467  0.90879  1.0000
  H   H275      1.0  0.40457  0.21030  0.94899  1.0000
  H   H276      1.0  0.46814  0.18580  0.96986  1.0000
  H   H277      1.0  0.48997  0.15287  0.88081  1.0000
  H   H278      1.0  0.44573  0.99337  0.82412  1.0000
  H   H279      1.0  0.25410  0.00030  0.93428  1.0000
  H   H280      1.0  0.43932  0.03137  0.83364  1.0000
  H   H281      1.0  0.45173  0.02450  0.79496  1.0000
  H   H282      1.0  0.48437  0.03484  0.83202  1.0000
  H   H283      1.0  0.48226  0.00151  0.84620  1.0000
  C   C155      1.0  0.37500  0.04925  0.90176  1.0000
  C   C156      1.0  0.39350  0.20456  0.94676  1.0000
  H   H284      1.0  0.40146  0.09538  0.88653  1.0000
  H   H285      1.0  0.41346  0.19342  0.92527  1.0000
  C   C157      1.0  0.35909  0.05871  0.94378  1.0000
  H   H286      1.0  0.37648  0.08226  0.97065  1.0000
  H   H287      1.0  0.26630  0.00248  0.82084  1.0000
  C   C158      1.0  0.38964  0.04620  0.91323  1.0000
  H   H288      1.0  0.39386  0.18255  0.93277  1.0000
  Fe  Fe26      1.0  0.47701  0.09036  0.92809  1.0000
  N   N14       1.0  0.38025  0.21922  0.93789  1.0000
  C   C159      1.0  0.39869  0.14321  0.96604  1.0000
  C   C160      1.0  0.39265  0.08548  0.89374  1.0000
  H   H289      1.0  0.37466  0.11986  0.94180  1.0000
  H   H290      1.0  0.42392  0.03759  0.94627  1.0000
  H   H291      1.0  0.37126  0.20008  0.91588  1.0000
  H   H292      1.0  0.38681  0.19841  0.96009  1.0000
  H   H293      1.0  0.33714  0.99708  0.78005  1.0000
  C   C161      1.0  0.47103  0.16065  0.91383  1.0000
  H   H294      1.0  0.40304  0.04274  0.90457  1.0000
  C   C162      1.0  0.36938  0.23164  0.96734  1.0000
  C   C163      1.0  0.39899  0.11887  0.95123  1.0000
  H   H295      1.0  0.41246  0.21716  0.97292  1.0000
  H   H296      1.0  0.46264  0.04075  0.84618  1.0000
  H   H297      1.0  0.27428  0.99188  0.80188  1.0000
  C   C164      1.0  0.38149  0.12650  0.94831  1.0000
  H   H298      1.0  0.35786  0.20700  0.95399  1.0000
  H   H299      1.0  0.48934  0.12566  0.95430  1.0000
  H   H300      1.0  0.40152  0.08502  0.91779  1.0000
  N   N15       1.0  0.38971  0.06124  0.92252  1.0000
  H   H301      1.0  0.39238  0.04263  0.94736  1.0000
  C   C165      1.0  0.40320  0.18898  0.93688  1.0000
  H   H302      1.0  0.36308  0.18592  0.93625  1.0000
  H   H303      1.0  0.37885  0.09332  0.89699  1.0000
  C   C166      1.0  0.37100  0.07065  0.92973  1.0000
  C   C167      1.0  0.40776  0.12735  0.95982  1.0000
  H   H304      1.0  0.27356  0.00320  0.89571  1.0000
  H   H305      1.0  0.49076  0.12817  0.90443  1.0000
  H   H306      1.0  0.34486  0.06605  0.94584  1.0000
  H   H307      1.0  0.37866  0.22128  0.97477  1.0000
  C   C168      1.0  0.45041  0.02769  0.82254  1.0000
  C   C169      1.0  0.47496  0.03023  0.84425  1.0000
  C   C170      1.0  0.47000  0.01199  0.84446  1.0000
  H   H308      1.0  0.35915  0.04595  0.93965  1.0000
  S   S55       1.0  0.40031  0.99877  0.82020  1.0000
  C   C171      1.0  0.36146  0.19985  0.92855  1.0000
  H   H309      1.0  0.30948  0.00506  0.90441  1.0000
  H   H310      1.0  0.39272  0.21396  0.91140  1.0000
  H   H311      1.0  0.40519  0.14943  0.97326  1.0000
  H   H312      1.0  0.42121  0.12130  0.96230  1.0000
  H   H313      1.0  0.42964  0.23139  0.94464  1.0000
  C   C172      1.0  0.44158  0.02784  0.80679  1.0000
  H   H314      1.0  0.34795  0.20310  0.92472  1.0000
  C   C173      1.0  0.45080  0.99603  0.83526  1.0000
  C   C174      1.0  0.38873  0.22519  0.91880  1.0000
  C   C175      1.0  0.25466  0.99788  0.92073  1.0000
  H   H315      1.0  0.45789  0.21867  0.95924  1.0000
  C   C176      1.0  0.47749  0.00438  0.81419  1.0000
  H   H316      1.0  0.48881  0.20267  0.97512  1.0000
  C   C177      1.0  0.47132  0.22178  0.95857  1.0000
  H   H317      1.0  0.48649  0.99197  0.81947  1.0000
  H   H318      1.0  0.45424  0.11654  0.97083  1.0000
  C   C178      1.0  0.49026  0.01770  0.80457  1.0000
  H   H319      1.0  0.49639  0.01470  0.79106  1.0000
  C   C179      1.0  0.37681  0.23514  0.94709  1.0000
  C   C180      1.0  0.47842  0.21511  0.97621  1.0000
  H   H320      1.0  0.47827  0.09229  0.97638  1.0000
  H   H321      1.0  0.47047  0.23655  0.95431  1.0000
  H   H322      1.0  0.49722  0.18112  0.86293  1.0000
  H   H323      1.0  0.36356  0.23712  0.90838  1.0000
  C   C181      1.0  0.42354  0.23904  0.95508  1.0000
  C   C182      1.0  0.37695  0.24036  0.90788  1.0000
  H   H324      1.0  0.32879  0.99067  0.89453  1.0000
  C   C183      1.0  0.31595  0.99079  0.90449  1.0000
  H   H325      1.0  0.01021  0.29247  0.31742  1.0000
  C   C184      1.0  0.01740  0.34060  0.34773  1.0000
  H   H326      1.0  0.02904  0.33013  0.34355  1.0000
  H   H327      1.0  0.01570  0.35180  0.33636  1.0000
  H   H328      1.0  0.40132  0.26639  0.99270  1.0000
  H   H329      1.0  0.00381  0.32119  0.36648  1.0000
  H   H330      1.0  0.01753  0.31720  0.32622  1.0000
  C   C185      1.0  0.99871  0.30191  0.32366  1.0000
  C   C186      1.0  0.00007  0.33260  0.35579  1.0000
  H   H331      1.0  0.42894  0.24430  0.01110  1.0000
  H   H332      1.0  0.01150  0.30143  0.34555  1.0000
  H   H333      1.0  0.02103  0.34607  0.35808  1.0000
  H   H334      1.0  0.99988  0.34459  0.31812  1.0000
  C   C187      1.0  0.00572  0.31175  0.33501  1.0000
  H   H335      1.0  0.46035  0.24116  0.99291  1.0000
  C   C188      1.0  0.40562  0.24079  0.98464  1.0000
  C   C189      1.0  0.40752  0.25872  0.98222  1.0000
  C   C190      1.0  0.47759  0.32949  0.90377  1.0000
  H   H336      1.0  0.36680  0.24634  0.94139  1.0000
  H   H337      1.0  0.44669  0.30957  0.87056  1.0000
  H   H338      1.0  0.46582  0.29323  0.93968  1.0000
  S   S56       1.0  0.43896  0.26693  0.93350  1.0000
  H   H339      1.0  0.43594  0.30682  0.89336  1.0000
  H   H340      1.0  0.41932  0.28049  0.96474  1.0000
  H   H341      1.0  0.48161  0.45339  0.91479  1.0000
  H   H342      1.0  0.47113  0.32041  0.87478  1.0000
  C   C191      1.0  0.41769  0.26669  0.96642  1.0000
  S   S57       1.0  0.47716  0.25321  0.89636  1.0000
  C   C192      1.0  0.49019  0.28470  0.85220  1.0000
  H   H343      1.0  0.49384  0.43218  0.90980  1.0000
  C   C193      1.0  0.46037  0.31927  0.88688  1.0000
  S   S58       1.0  0.43694  0.25493  0.88839  1.0000
  Fe  Fe27      1.0  0.46498  0.25565  0.87253  1.0000
  S   S59       1.0  0.47082  0.27819  0.84971  1.0000
  H   H344      1.0  0.44526  0.30274  0.91868  1.0000
  C   C194      1.0  0.45826  0.30727  0.93771  1.0000
  H   H345      1.0  0.45141  0.33275  0.88629  1.0000
  H   H346      1.0  0.46741  0.34215  0.90447  1.0000
  H   H347      1.0  0.49767  0.43654  0.93921  1.0000
  C   C195      1.0  0.44935  0.30600  0.88434  1.0000
  H   H348      1.0  0.46584  0.31659  0.94040  1.0000
  C   C196      1.0  0.49278  0.33371  0.88770  1.0000
  N   N16       1.0  0.46851  0.31427  0.90347  1.0000
  H   H349      1.0  0.48724  0.34086  0.87566  1.0000
  C   C197      1.0  0.42576  0.25685  0.95284  1.0000
  H   H350      1.0  0.45674  0.29192  0.88601  1.0000
  H   H351      1.0  0.44333  0.32588  0.91901  1.0000
  H   H352      1.0  0.49418  0.29933  0.92512  1.0000
  H   H353      1.0  0.48190  0.31265  0.84141  1.0000
  C   C198      1.0  0.49545  0.44544  0.91164  1.0000
  Fe  Fe28      1.0  0.44976  0.25005  0.91224  1.0000
  C   C199      1.0  0.45311  0.31289  0.91921  1.0000
  H   H354      1.0  0.44563  0.30741  0.94794  1.0000
  H   H355      1.0  0.49646  0.43010  0.86170  1.0000
  H   H356      1.0  0.38397  0.24210  0.89372  1.0000
  H   H357      1.0  0.49731  0.45025  0.81707  1.0000
  H   H358      1.0  0.47362  0.28529  0.90803  1.0000
  H   H359      1.0  0.48346  0.32721  0.91583  1.0000
  H   H360      1.0  0.37530  0.25344  0.91208  1.0000
  C   C200      1.0  0.48136  0.29647  0.90310  1.0000
  H   H361      1.0  0.38942  0.24070  0.94496  1.0000
  C   C201      1.0  0.49205  0.30278  0.84751  1.0000
  H   H362      1.0  0.36793  0.24420  0.97251  1.0000
  H   H363      1.0  0.48810  0.29530  0.88917  1.0000
  C   C202      1.0  0.49684  0.29241  0.91371  1.0000
  C   C203      1.0  0.02915  0.71365  0.45707  1.0000
  C   C204      1.0  0.02285  0.66401  0.39656  1.0000
  C   C205      1.0  0.01810  0.67341  0.37827  1.0000
  H   H364      1.0  0.05085  0.69115  0.45314  1.0000
  H   H365      1.0  0.02219  0.55429  0.41478  1.0000
  H   H366      1.0  0.00418  0.64497  0.43844  1.0000
  H   H367      1.0  0.00649  0.73557  0.45751  1.0000
  C   C206      1.0  0.02116  0.58921  0.47151  1.0000
  C   C207      1.0  0.04975  0.73847  0.38969  1.0000
  C   C208      1.0  0.03236  0.63728  0.42772  1.0000
  H   H368      1.0  0.02469  0.55911  0.43509  1.0000
  H   H369      1.0  0.05931  0.73285  0.37852  1.0000
  H   H370      1.0  0.05087  0.72826  0.40194  1.0000
  C   C209      1.0  0.01434  0.65079  0.42766  1.0000
  H   H371      1.0  0.03492  0.65337  0.39380  1.0000
  H   H372      1.0  0.00673  0.61463  0.42209  1.0000
  N   N17       1.0  0.00795  0.65623  0.41015  1.0000
  H   H373      1.0  0.03074  0.67579  0.36868  1.0000
  H   H374      1.0  0.03274  0.62563  0.42162  1.0000
  C   C210      1.0  0.02231  0.54843  0.42901  1.0000
  H   H375      1.0  0.04397  0.68832  0.42459  1.0000
  H   H376      1.0  0.02785  0.67377  0.40177  1.0000
  C   C211      1.0  0.03561  0.69843  0.43193  1.0000
  H   H377      1.0  0.03423  0.63203  0.44167  1.0000
  C   C212      1.0  0.03951  0.70004  0.44802  1.0000
  C   C213      1.0  0.02100  0.71004  0.42532  1.0000
  H   H378      1.0  0.01141  0.66521  0.37282  1.0000
  H   H379      1.0  0.01653  0.52925  0.40811  1.0000
  H   H380      1.0  0.01608  0.66287  0.43213  1.0000
  H   H381      1.0  0.04405  0.64394  0.42085  1.0000
  H   H382      1.0  0.03384  0.53708  0.43015  1.0000
  H   H383      1.0  0.01700  0.63347  0.39663  1.0000
  H   H384      1.0  0.00946  0.68687  0.37898  1.0000
  C   C214      1.0  0.01451  0.72510  0.45052  1.0000
  S   S60       1.0  0.01670  0.70895  0.40476  1.0000
  C   C215      1.0  0.01016  0.72301  0.43491  1.0000
  C   C216      1.0  0.00421  0.64071  0.40375  1.0000
  H   H385      1.0  0.00172  0.51456  0.39378  1.0000
  S   S61       1.0  0.03468  0.71695  0.47624  1.0000
  H   H386      1.0  0.02701  0.50843  0.43113  1.0000
  H   H387      1.0  0.02674  0.57532  0.47049  1.0000
  C   C217      1.0  0.00735  0.62509  0.47477  1.0000
  H   H388      1.0  0.03342  0.51333  0.45637  1.0000
  C   C218      1.0  0.01427  0.50947  0.44130  1.0000
  C   C219      1.0  0.02017  0.50891  0.45899  1.0000
  C   C220      1.0  0.00568  0.59780  0.46446  1.0000
  H   H389      1.0  0.00904  0.49689  0.44258  1.0000
  H   H390      1.0  0.00643  0.49899  0.41340  1.0000
  H   H391      1.0  0.02255  0.49472  0.46605  1.0000
  H   H392      1.0  0.01033  0.51658  0.46844  1.0000
  C   C221      1.0  0.00399  0.54296  0.43855  1.0000
  C   C222      1.0  0.00254  0.52778  0.41514  1.0000
  H   H393      1.0  0.00296  0.54277  0.45286  1.0000
  N   N18       1.0  0.00080  0.52570  0.43503  1.0000
  H   H394      1.0  0.00194  0.63896  0.47601  1.0000
  H   H395      1.0  0.04431  0.74011  0.42739  1.0000
  C   C223      1.0  0.99879  0.61592  0.46610  1.0000
  H   H396      1.0  0.99866  0.73176  0.43015  1.0000
  H   H397      1.0  0.03601  0.74054  0.38662  1.0000
  C   C224      1.0  0.49737  0.62220  0.67561  1.0000
  H   H398      1.0  0.39612  0.67950  0.79623  1.0000
  H   H399      1.0  0.40704  0.73578  0.84886  1.0000
  H   H400      1.0  0.49068  0.59763  0.84006  1.0000
  H   H401      1.0  0.42675  0.64071  0.68220  1.0000
  H   H402      1.0  0.16806  0.70583  0.53423  1.0000
  C   C225      1.0  0.41506  0.66624  0.76600  1.0000
  H   H403      1.0  0.38220  0.61232  0.68005  1.0000
  C   C226      1.0  0.03356  0.66756  0.59009  1.0000
  H   H404      1.0  0.49045  0.69409  0.68889  1.0000
  C   C227      1.0  0.48822  0.51783  0.79996  1.0000
  Fe  Fe29      1.0  0.46665  0.56888  0.76197  1.0000
  S   S62       1.0  0.47714  0.53946  0.77053  1.0000
  Fe  Fe30      1.0  0.43555  0.60034  0.75958  1.0000
  C   C228      1.0  0.47107  0.65305  0.63790  1.0000
  S   S63       1.0  0.40555  0.60846  0.76710  1.0000
  Fe  Fe31      1.0  0.47178  0.60632  0.76245  1.0000
  C   C229      1.0  0.23596  0.73508  0.62655  1.0000
  H   H405      1.0  0.02241  0.71054  0.59869  1.0000
  S   S64       1.0  0.45308  0.58857  0.78005  1.0000
  H   H406      1.0  0.19229  0.71371  0.63274  1.0000
  C   C230      1.0  0.02072  0.69649  0.59942  1.0000
  H   H407      1.0  0.39366  0.67096  0.75174  1.0000
  Fe  Fe32      1.0  0.01661  0.67482  0.53079  1.0000
  S   S65       1.0  0.03773  0.64983  0.53305  1.0000
  C   C231      1.0  0.44500  0.70830  0.66943  1.0000
  Fe  Fe33      1.0  0.05786  0.66895  0.52386  1.0000
  S   S66       1.0  0.08120  0.66800  0.53828  1.0000
  S   S67       1.0  0.03633  0.69355  0.52341  1.0000
  S   S68       1.0  0.01468  0.67496  0.50278  1.0000
  Fe  Fe34      1.0  0.40783  0.66244  0.64788  1.0000
  S   S69       1.0  0.38563  0.64652  0.65299  1.0000
  S   S70       1.0  0.43654  0.64791  0.64055  1.0000
  Fe  Fe35      1.0  0.36953  0.67195  0.64028  1.0000
  Fe  Fe36      1.0  0.37582  0.65752  0.67817  1.0000
  S   S71       1.0  0.36413  0.64016  0.70323  1.0000
  S   S72       1.0  0.39915  0.67154  0.67420  1.0000
  H   H408      1.0  0.48712  0.55106  0.83899  1.0000
  C   C232      1.0  0.35150  0.71668  0.58814  1.0000
  H   H409      1.0  0.43815  0.67210  0.67517  1.0000
  S   S73       1.0  0.18369  0.69498  0.59266  1.0000
  H   H410      1.0  0.48635  0.62917  0.66888  1.0000
  H   H411      1.0  0.45684  0.56668  0.84759  1.0000
  C   C233      1.0  0.21147  0.73296  0.50318  1.0000
  H   H412      1.0  0.48001  0.70783  0.67133  1.0000
  N   N19       1.0  0.03547  0.68699  0.58672  1.0000
  S   S74       1.0  0.26456  0.69629  0.55305  1.0000
  C   C234      1.0  0.46244  0.69033  0.62783  1.0000
  C   C235      1.0  0.20592  0.69581  0.58116  1.0000
  C   C236      1.0  0.21928  0.68050  0.58363  1.0000
  C   C237      1.0  0.23714  0.68069  0.57458  1.0000
  C   C238      1.0  0.24184  0.69632  0.56331  1.0000
  C   C239      1.0  0.22841  0.71160  0.56054  1.0000
  C   C240      1.0  0.21039  0.71127  0.56932  1.0000
  H   H413      1.0  0.21584  0.66846  0.59260  1.0000
  H   H414      1.0  0.24746  0.66882  0.57665  1.0000
  H   H415      1.0  0.44675  0.56321  0.69219  1.0000
  H   H416      1.0  0.36669  0.65725  0.81575  1.0000
  C   C241      1.0  0.08735  0.68498  0.54681  1.0000
  C   C242      1.0  0.07879  0.70306  0.54404  1.0000
  C   C243      1.0  0.08311  0.71566  0.55222  1.0000
  C   C244      1.0  0.09638  0.71061  0.56299  1.0000
  C   C245      1.0  0.10508  0.69258  0.56560  1.0000
  C   C246      1.0  0.10069  0.67994  0.55751  1.0000
  H   H417      1.0  0.06865  0.70733  0.53574  1.0000
  H   H418      1.0  0.43814  0.67709  0.72188  1.0000
  C   C247      1.0  0.23926  0.73102  0.64577  1.0000
  H   H419      1.0  0.10733  0.66603  0.55997  1.0000
  H   H420      1.0  0.35683  0.67586  0.75559  1.0000
  H   H421      1.0  0.38686  0.70027  0.78383  1.0000
  C   C248      1.0  0.49619  0.73382  0.67586  1.0000
  H   H422      1.0  0.36409  0.63681  0.80972  1.0000
  H   H423      1.0  0.37342  0.63768  0.77323  1.0000
  C   C249      1.0  0.49660  0.56233  0.80525  1.0000
  C   C250      1.0  0.47430  0.52127  0.83032  1.0000
  H   H424      1.0  0.49473  0.69068  0.75139  1.0000
  C   C251      1.0  0.37899  0.70230  0.71717  1.0000
  C   C252      1.0  0.49105  0.60453  0.82612  1.0000
  C   C253      1.0  0.49565  0.72592  0.70755  1.0000
  C   C254      1.0  0.46491  0.65177  0.76996  1.0000
  H   H425      1.0  0.44006  0.59445  0.66090  1.0000
  C   C255      1.0  0.44477  0.56879  0.67834  1.0000
  C   C256      1.0  0.39504  0.61677  0.74861  1.0000
  C   C257      1.0  0.37780  0.61332  0.74966  1.0000
  C   C258      1.0  0.36859  0.62057  0.73557  1.0000
  C   C259      1.0  0.37634  0.63167  0.72048  1.0000
  C   C260      1.0  0.39347  0.63551  0.71950  1.0000
  C   C261      1.0  0.40300  0.62775  0.73343  1.0000
  H   H426      1.0  0.37156  0.60496  0.76140  1.0000
  H   H427      1.0  0.35532  0.61766  0.73641  1.0000
  H   H428      1.0  0.39934  0.64439  0.70804  1.0000
  H   H429      1.0  0.41624  0.63067  0.73265  1.0000
  H   H430      1.0  0.25922  0.69667  0.59321  1.0000
  H   H431      1.0  0.45761  0.70689  0.69900  1.0000
  C   C262      1.0  0.46062  0.53465  0.82396  1.0000
  C   C263      1.0  0.46122  0.54022  0.80558  1.0000
  C   C264      1.0  0.47522  0.53200  0.79356  1.0000
  H   H432      1.0  0.35582  0.65248  0.78434  1.0000
  S   S75       1.0  0.05965  0.66731  0.49497  1.0000
  H   H433      1.0  0.44983  0.54105  0.83325  1.0000
  H   H434      1.0  0.45085  0.55083  0.80071  1.0000
  C   C265      1.0  0.46769  0.67729  0.78161  1.0000
  C   C266      1.0  0.16512  0.69274  0.53315  1.0000
  H   H435      1.0  0.04662  0.68997  0.55856  1.0000
  H   H436      1.0  0.03209  0.72005  0.54833  1.0000
  C   C267      1.0  0.42882  0.71082  0.66018  1.0000
  C   C268      1.0  0.02968  0.59827  0.47992  1.0000
  C   C269      1.0  0.48779  0.64869  0.78748  1.0000
  H   H437      1.0  0.47442  0.63860  0.64169  1.0000
  H   H438      1.0  0.14914  0.65436  0.54848  1.0000
  H   H439      1.0  0.46160  0.58809  0.83573  1.0000
  H   H440      1.0  0.20004  0.72302  0.56705  1.0000
  C   C270      1.0  0.33064  0.68967  0.59862  1.0000
  H   H441      1.0  0.48247  0.59536  0.80606  1.0000
  C   C271      1.0  0.46147  0.69435  0.69332  1.0000
  H   H442      1.0  0.16545  0.63748  0.53940  1.0000
  C   C272      1.0  0.43891  0.58936  0.67550  1.0000
  C   C273      1.0  0.45333  0.66118  0.63586  1.0000
  H   H443      1.0  0.36711  0.70106  0.60774  1.0000
  H   H444      1.0  0.40785  0.59461  0.66407  1.0000
  H   H445      1.0  0.20175  0.73157  0.60404  1.0000
  Fe  Fe37      1.0  0.46656  0.59758  0.72862  1.0000
  H   H446      1.0  0.35091  0.65508  0.75493  1.0000
  H   H447      1.0  0.19567  0.67135  0.56013  1.0000
  H   H448      1.0  0.02318  0.69077  0.56351  1.0000
  C   C274      1.0  0.49456  0.59191  0.81248  1.0000
  H   H449      1.0  0.45906  0.70477  0.62390  1.0000
  C   C275      1.0  0.35573  0.70198  0.60156  1.0000
  H   H450      1.0  0.42128  0.65689  0.77674  1.0000
  H   H451      1.0  0.43542  0.56201  0.67458  1.0000
  H   H452      1.0  0.05438  0.70325  0.58825  1.0000
  C   C276      1.0  0.05867  0.67931  0.60770  1.0000
  C   C277      1.0  0.48435  0.66361  0.63551  1.0000
  H   H453      1.0  0.49592  0.68353  0.72215  1.0000
  H   H454      1.0  0.21575  0.68887  0.53768  1.0000
  C   C278      1.0  0.38030  0.72026  0.68749  1.0000
  Fe  Fe38      1.0  0.12517  0.73360  0.58096  1.0000
  C   C279      1.0  0.22180  0.70773  0.63052  1.0000
  H   H455      1.0  0.41267  0.68035  0.76787  1.0000
  C   C280      1.0  0.04843  0.65541  0.57907  1.0000
  C   C281      1.0  0.31342  0.73500  0.64345  1.0000
  Fe  Fe39      1.0  0.16372  0.72049  0.58727  1.0000
  H   H456      1.0  0.03291  0.66144  0.60440  1.0000
  C   C282      1.0  0.02298  0.61624  0.48176  1.0000
  H   H457      1.0  0.37602  0.69030  0.72644  1.0000
  H   H458      1.0  0.41776  0.62117  0.66563  1.0000
  H   H459      1.0  0.44483  0.62359  0.67565  1.0000
  H   H460      1.0  0.27085  0.68301  0.60994  1.0000
  C   C283      1.0  0.14459  0.69638  0.53338  1.0000
  C   C284      1.0  0.38680  0.73318  0.69290  1.0000
  H   H461      1.0  0.05961  0.66455  0.60985  1.0000
  H   H462      1.0  0.35963  0.72710  0.58407  1.0000
  H   H463      1.0  0.39501  0.74037  0.71427  1.0000
  H   H464      1.0  0.21972  0.69798  0.62304  1.0000
  H   H465      1.0  0.23118  0.71354  0.59468  1.0000
  Fe  Fe40      1.0  0.03690  0.69104  0.49560  1.0000
  H   H466      1.0  0.43124  0.71981  0.64704  1.0000
  S   S76       1.0  0.37885  0.72253  0.66515  1.0000
  H   H467      1.0  0.40413  0.62318  0.68683  1.0000
  H   H468      1.0  0.40232  0.64784  0.75892  1.0000
  H   H469      1.0  0.24721  0.68321  0.61230  1.0000
  C   C285      1.0  0.20276  0.71770  0.63794  1.0000
  C   C286      1.0  0.48006  0.69495  0.68091  1.0000
  C   C287      1.0  0.46509  0.57349  0.83550  1.0000
  Fe  Fe41      1.0  0.03702  0.65092  0.50403  1.0000
  H   H470      1.0  0.37112  0.68801  0.77037  1.0000
  H   H471      1.0  0.48788  0.56943  0.84789  1.0000
  H   H472      1.0  0.44813  0.67805  0.76582  1.0000
  H   H473      1.0  0.31266  0.70624  0.65082  1.0000
  C   C288      1.0  0.25772  0.69174  0.60777  1.0000
  C   C289      1.0  0.47996  0.68231  0.63066  1.0000
  H   H474      1.0  0.41747  0.69414  0.69138  1.0000
  H   H475      1.0  0.29909  0.73630  0.65062  1.0000
  N   N20       1.0  0.23527  0.71901  0.61909  1.0000
  H   H476      1.0  0.47546  0.65652  0.68337  1.0000
  Fe  Fe42      1.0  0.38188  0.69480  0.65971  1.0000
  H   H477      1.0  0.11475  0.68827  0.57437  1.0000
  H   H478      1.0  0.45970  0.67707  0.66421  1.0000
  N   N21       1.0  0.42042  0.59664  0.68528  1.0000
  C   C290      1.0  0.41763  0.61688  0.68017  1.0000
  S   S77       1.0  0.30005  0.72861  0.53323  1.0000
  C   C291      1.0  0.41922  0.59146  0.70517  1.0000
  C   C292      1.0  0.43146  0.62597  0.68459  1.0000
  C   C293      1.0  0.33663  0.71806  0.58023  1.0000
  C   C294      1.0  0.41421  0.57288  0.71423  1.0000
  S   S78       1.0  0.28028  0.72940  0.57496  1.0000
  C   C295      1.0  0.38622  0.71485  0.72238  1.0000
  H   H479      1.0  0.44965  0.59417  0.67946  1.0000
  H   H480      1.0  0.43218  0.59207  0.70877  1.0000
  H   H481      1.0  0.40874  0.60140  0.71190  1.0000
  H   H482      1.0  0.43299  0.62187  0.69868  1.0000
  C   C296      1.0  0.39789  0.66105  0.76332  1.0000
  H   H483      1.0  0.43551  0.68613  0.62872  1.0000
  S   S79       1.0  0.35771  0.68162  0.66600  1.0000
  C   C297      1.0  0.03413  0.69510  0.56764  1.0000
  H   H484      1.0  0.07609  0.72947  0.55020  1.0000
  H   H485      1.0  0.45818  0.56550  0.66968  1.0000
  H   H486      1.0  0.42189  0.56702  0.72515  1.0000
  H   H487      1.0  0.41725  0.56279  0.70556  1.0000
  H   H488      1.0  0.39972  0.57444  0.72083  1.0000
  N   N22       1.0  0.17239  0.67767  0.54708  1.0000
  C   C298      1.0  0.18941  0.68200  0.55017  1.0000
  C   C299      1.0  0.15918  0.67673  0.56461  1.0000
  H   H489      1.0  0.15790  0.65800  0.52481  1.0000
  C   C300      1.0  0.17724  0.66005  0.54057  1.0000
  H   H490      1.0  0.07232  0.68165  0.60785  1.0000
  C   C301      1.0  0.16436  0.66104  0.57958  1.0000
  H   H491      1.0  0.48284  0.56644  0.80203  1.0000
  C   C302      1.0  0.16142  0.65232  0.53813  1.0000
  H   H492      1.0  0.18611  0.69460  0.55573  1.0000
  H   H493      1.0  0.28658  0.73037  0.62804  1.0000
  H   H494      1.0  0.14555  0.67568  0.56322  1.0000
  H   H495      1.0  0.15708  0.68937  0.56984  1.0000
  S   S80       1.0  0.48701  0.58569  0.74604  1.0000
  H   H496      1.0  0.48932  0.73987  0.66482  1.0000
  H   H497      1.0  0.21064  0.67190  0.52870  1.0000
  Fe  Fe43      1.0  0.44848  0.73622  0.72463  1.0000
  H   H498      1.0  0.19744  0.73574  0.51087  1.0000
  H   H499      1.0  0.25064  0.72974  0.48937  1.0000
  S   S81       1.0  0.13712  0.72538  0.60609  1.0000
  H   H500      1.0  0.15347  0.66188  0.59156  1.0000
  H   H501      1.0  0.16550  0.64776  0.57599  1.0000
  H   H502      1.0  0.17693  0.66176  0.58370  1.0000
  H   H503      1.0  0.13931  0.68421  0.53362  1.0000
  H   H504      1.0  0.18551  0.64953  0.54910  1.0000
  H   H505      1.0  0.49262  0.63202  0.73424  1.0000
  H   H506      1.0  0.47752  0.65192  0.72594  1.0000
  C   C303      1.0  0.20464  0.68462  0.53371  1.0000
  S   S82       1.0  0.34986  0.67016  0.62387  1.0000
  C   C304      1.0  0.40616  0.59068  0.67883  1.0000
  H   H507      1.0  0.40752  0.57589  0.68141  1.0000
  C   C305      1.0  0.38635  0.59824  0.68665  1.0000
  C   C306      1.0  0.42741  0.67885  0.71412  1.0000
  H   H508      1.0  0.25687  0.70133  0.63145  1.0000
  S   S83       1.0  0.47245  0.60428  0.69887  1.0000
  H   H509      1.0  0.23188  0.72359  0.55159  1.0000
  H   H510      1.0  0.02047  0.66641  0.58711  1.0000
  Fe  Fe44      1.0  0.44606  0.71713  0.76285  1.0000
  C   C307      1.0  0.38344  0.68757  0.79246  1.0000
  H   H511      1.0  0.01315  0.73421  0.51394  1.0000
  H   H512      1.0  0.19962  0.71383  0.65266  1.0000
  C   C308      1.0  0.34528  0.68846  0.60682  1.0000
  H   H513      1.0  0.04186  0.72122  0.56639  1.0000
  S   S84       1.0  0.15175  0.72728  0.56269  1.0000
  H   H514      1.0  0.37721  0.59033  0.68408  1.0000
  S   S85       1.0  0.45303  0.61994  0.74359  1.0000
  H   H515      1.0  0.45842  0.64610  0.76230  1.0000
  H   H516      1.0  0.38393  0.59772  0.70118  1.0000
  H   H517      1.0  0.18639  0.66135  0.52734  1.0000
  C   C309      1.0  0.25396  0.70746  0.61794  1.0000
  H   H518      1.0  0.14164  0.70610  0.52122  1.0000
  H   H519      1.0  0.31866  0.71316  0.62765  1.0000
  H   H520      1.0  0.32263  0.67915  0.60257  1.0000
  H   H521      1.0  0.47788  0.61386  0.82550  1.0000
  Fe  Fe45      1.0  0.30434  0.73879  0.55625  1.0000
  S   S86       1.0  0.47495  0.51635  0.85315  1.0000
  C   C310      1.0  0.05357  0.68885  0.58962  1.0000
  S   S87       1.0  0.48837  0.61932  0.77397  1.0000
  H   H522      1.0  0.04835  0.65967  0.56465  1.0000
  H   H523      1.0  0.42591  0.70703  0.70259  1.0000
  H   H524      1.0  0.46078  0.57103  0.82393  1.0000
  H   H525      1.0  0.04574  0.64145  0.58281  1.0000
  S   S88       1.0  0.44738  0.57902  0.74300  1.0000
  C   C311      1.0  0.36835  0.65215  0.77395  1.0000
  H   H526      1.0  0.04930  0.68484  0.61897  1.0000
  N   N23       1.0  0.38230  0.66009  0.77891  1.0000
  H   H527      1.0  0.22730  0.69915  0.64218  1.0000
  S   S89       1.0  0.09981  0.72665  0.57466  1.0000
  H   H528      1.0  0.45724  0.70723  0.65871  1.0000
  H   H529      1.0  0.48842  0.67232  0.79721  1.0000
  H   H530      1.0  0.01768  0.72210  0.56932  1.0000
  S   S90       1.0  0.39264  0.68713  0.63280  1.0000
  H   H531      1.0  0.26460  0.71573  0.61155  1.0000
  H   H532      1.0  0.48435  0.68387  0.67327  1.0000
  C   C312      1.0  0.44908  0.67981  0.63062  1.0000
  C   C313      1.0  0.38989  0.73041  0.71028  1.0000
  H   H533      1.0  0.22066  0.72684  0.51271  1.0000
  C   C314      1.0  0.23150  0.72521  0.60048  1.0000
  H   H534      1.0  0.06214  0.65488  0.58149  1.0000
  H   H535      1.0  0.42542  0.66539  0.75367  1.0000
  H   H536      1.0  0.45758  0.65759  0.70282  1.0000
  H   H537      1.0  0.37300  0.65898  0.74460  1.0000
  H   H538      1.0  0.06471  0.68382  0.57920  1.0000
  C   C315      1.0  0.45915  0.66985  0.77185  1.0000
  C   C316      1.0  0.42895  0.69401  0.69776  1.0000
  C   C317      1.0  0.45071  0.67529  0.67741  1.0000
  C   C318      1.0  0.37618  0.70492  0.69971  1.0000
  H   H539      1.0  0.37086  0.69502  0.69571  1.0000
  C   C319      1.0  0.36208  0.66126  0.75625  1.0000
  C   C320      1.0  0.37348  0.67854  0.78285  1.0000
  H   H540      1.0  0.35962  0.67835  0.79097  1.0000
  H   H541      1.0  0.42702  0.66603  0.71032  1.0000
  H   H542      1.0  0.13697  0.70286  0.54482  1.0000
  N   N24       1.0  0.44664  0.69251  0.68464  1.0000
  H   H543      1.0  0.46358  0.68345  0.70482  1.0000
  S   S91       1.0  0.49554  0.69617  0.62927  1.0000
  H   H544      1.0  0.37437  0.69128  0.80479  1.0000
  C   C321      1.0  0.37391  0.64440  0.81154  1.0000
  H   H545      1.0  0.38044  0.63611  0.82264  1.0000
  H   H546      1.0  0.41434  0.68233  0.72315  1.0000
  H   H547      1.0  0.34176  0.73481  0.61598  1.0000
  S   S92       1.0  0.46153  0.70004  0.78337  1.0000
  H   H548      1.0  0.45675  0.64630  0.68587  1.0000
  C   C322      1.0  0.46061  0.65831  0.68831  1.0000
  S   S93       1.0  0.44265  0.70899  0.73835  1.0000
  H   H549      1.0  0.39960  0.65137  0.79886  1.0000
  C   C323      1.0  0.38863  0.64729  0.79472  1.0000
  H   H550      1.0  0.39483  0.63383  0.79117  1.0000
  H   H551      1.0  0.20011  0.69531  0.52286  1.0000
  H   H552      1.0  0.26802  0.73518  0.49764  1.0000
  H   H553      1.0  0.17208  0.69053  0.51952  1.0000
  H   H554      1.0  0.49788  0.65736  0.63755  1.0000
  H   H555      1.0  0.41636  0.71754  0.66802  1.0000
  C   C324      1.0  0.32626  0.70449  0.58540  1.0000
  H   H556      1.0  0.31497  0.70530  0.57914  1.0000
  Fe  Fe46      1.0  0.41405  0.72348  0.74508  1.0000
  S   S94       1.0  0.39143  0.71038  0.74371  1.0000
  H   H557      1.0  0.20086  0.73245  0.63480  1.0000
  H   H558      1.0  0.48872  0.66684  0.74032  1.0000
  S   S95       1.0  0.41692  0.72943  0.77083  1.0000
  C   C325      1.0  0.49434  0.60885  0.69061  1.0000
  Fe  Fe47      1.0  0.27437  0.72188  0.55124  1.0000
  H   H559      1.0  0.44415  0.72117  0.67393  1.0000
  C   C326      1.0  0.32045  0.71539  0.64049  1.0000
  C   C327      1.0  0.47943  0.64128  0.77758  1.0000
  H   H560      1.0  0.22909  0.72372  0.65517  1.0000
  H   H561      1.0  0.31454  0.73605  0.60605  1.0000
  C   C328      1.0  0.48180  0.66659  0.78967  1.0000
  H   H562      1.0  0.21247  0.72253  0.49519  1.0000
  S   S96       1.0  0.03509  0.62630  0.49284  1.0000
  H   H563      1.0  0.32084  0.73655  0.65342  1.0000
  H   H564      1.0  0.48662  0.63467  0.71310  1.0000
  S   S97       1.0  0.33048  0.73745  0.56485  1.0000
  C   C329      1.0  0.21358  0.73823  0.59816  1.0000
  H   H565      1.0  0.33504  0.71116  0.64122  1.0000
  H   H566      1.0  0.43182  0.73305  0.81222  1.0000
  C   C330      1.0  0.48780  0.51256  0.81830  1.0000
  C   C331      1.0  0.48533  0.56601  0.83591  1.0000
  C   C332      1.0  0.03127  0.71581  0.56292  1.0000
  H   H567      1.0  0.24259  0.73180  0.59171  1.0000
  C   C333      1.0  0.48985  0.64198  0.72225  1.0000
  H   H568      1.0  0.25310  0.72346  0.64675  1.0000
  C   C334      1.0  0.48672  0.73372  0.69331  1.0000
  H   H569      1.0  0.04164  0.59118  0.48516  1.0000
  H   H570      1.0  0.42655  0.69802  0.65787  1.0000
  H   H571      1.0  0.02166  0.69006  0.61340  1.0000
  H   H572      1.0  0.48841  0.72596  0.72108  1.0000
  H   H573      1.0  0.99957  0.69652  0.58418  1.0000
  C   C335      1.0  0.00109  0.69663  0.59780  1.0000
  H   H574      1.0  0.49781  0.50164  0.82313  1.0000
  H   H575      1.0  0.49840  0.54755  0.81023  1.0000
  H   H576      1.0  0.99950  0.72300  0.49607  1.0000
  N   N25       1.0  0.49848  0.57198  0.81928  1.0000
  H   H577      1.0  0.11729  0.98387  0.27655  1.0000
  H   H578      1.0  0.13557  0.91565  0.46518  1.0000
  S   S98       1.0  0.20958  0.96126  0.05415  1.0000
  H   H579      1.0  0.03128  0.81487  0.29282  1.0000
  C   C336      1.0  0.12596  0.90644  0.46707  1.0000
  H   H580      1.0  0.03936  0.77176  0.44147  1.0000
  C   C337      1.0  0.02862  0.77831  0.35360  1.0000
  C   C338      1.0  0.03020  0.79438  0.35788  1.0000
  H   H581      1.0  0.07765  0.77345  0.40943  1.0000
  C   C339      1.0  0.29187  0.95595  0.04124  1.0000
  C   C340      1.0  0.03667  0.89928  0.42418  1.0000
  H   H582      1.0  0.01479  0.78821  0.42398  1.0000
  Fe  Fe48      1.0  0.26480  0.92324  0.12132  1.0000
  S   S99       1.0  0.27574  0.91307  0.14652  1.0000
  S   S100      1.0  0.25648  0.90668  0.10581  1.0000
  Fe  Fe49      1.0  0.26204  0.96211  0.12352  1.0000
  S   S101      1.0  0.27186  0.95557  0.14923  1.0000
  C   C341      1.0  0.23120  0.89786  0.98967  1.0000
  Fe  Fe50      1.0  0.29242  0.93490  0.13617  1.0000
  S   S102      1.0  0.32173  0.93440  0.13526  1.0000
  Fe  Fe51      1.0  0.25405  0.93487  0.15692  1.0000
  S   S103      1.0  0.23625  0.92931  0.18384  1.0000
  S   S104      1.0  0.28355  0.94272  0.10996  1.0000
  S   S105      1.0  0.24214  0.94359  0.13227  1.0000
  S   S106      1.0  0.22855  0.84003  0.47893  1.0000
  H   H583      1.0  0.02369  0.92747  0.31362  1.0000
  H   H584      1.0  0.04660  0.91642  0.32917  1.0000
  H   H585      1.0  0.04048  0.92214  0.43454  1.0000
  C   C342      1.0  0.17731  0.87699  0.45464  1.0000
  C   C343      1.0  0.32175  0.98298  0.10240  1.0000
  Fe  Fe52      1.0  0.05864  0.85693  0.37065  1.0000
  Fe  Fe53      1.0  0.15013  0.93561  0.36796  1.0000
  S   S107      1.0  0.15255  0.94444  0.39249  1.0000
  S   S108      1.0  0.14767  0.95697  0.34354  1.0000
  Fe  Fe54      1.0  0.13048  0.92892  0.40632  1.0000
  H   H586      1.0  0.01367  0.93372  0.35994  1.0000
  S   S109      1.0  0.12641  0.92222  0.38152  1.0000
  Fe  Fe55      1.0  0.10881  0.94217  0.24006  1.0000
  S   S110      1.0  0.11213  0.95355  0.26249  1.0000
  S   S111      1.0  0.08704  0.92554  0.24619  1.0000
  Fe  Fe56      1.0  0.13794  0.96014  0.21429  1.0000
  S   S112      1.0  0.14339  0.97338  0.23461  1.0000
  S   S113      1.0  0.15405  0.96546  0.18657  1.0000
  Fe  Fe57      1.0  0.14194  0.94660  0.25243  1.0000
  S   S114      1.0  0.16306  0.93280  0.26911  1.0000
  C   C344      1.0  0.01559  0.89534  0.40687  1.0000
  H   H587      1.0  0.04229  0.82699  0.30290  1.0000
  S   S115      1.0  0.13858  0.93280  0.23148  1.0000
  S   S116      1.0  0.10771  0.96842  0.22084  1.0000
  C   C345      1.0  0.15360  0.95063  0.32254  1.0000
  C   C346      1.0  0.16524  0.93446  0.31970  1.0000
  C   C347      1.0  0.16891  0.92944  0.30292  1.0000
  C   C348      1.0  0.16049  0.94031  0.28918  1.0000
  C   C349      1.0  0.14942  0.95670  0.29186  1.0000
  C   C350      1.0  0.14614  0.96196  0.30843  1.0000
  H   H588      1.0  0.17130  0.92579  0.33044  1.0000
  H   H589      1.0  0.17766  0.91680  0.30081  1.0000
  H   H590      1.0  0.14330  0.96522  0.28115  1.0000
  H   H591      1.0  0.13738  0.97462  0.31045  1.0000
  H   H592      1.0  0.00099  0.87310  0.41549  1.0000
  H   H593      1.0  0.16544  0.88813  0.45469  1.0000
  C   C351      1.0  0.10755  0.90152  0.26832  1.0000
  C   C352      1.0  0.09034  0.90780  0.26412  1.0000
  C   C353      1.0  0.07566  0.90008  0.27449  1.0000
  H   H594      1.0  0.11894  0.90735  0.26037  1.0000
  H   H595      1.0  0.06237  0.90479  0.27114  1.0000
  H   H596      1.0  0.25016  0.91198  0.99419  1.0000
  C   C354      1.0  0.23503  0.92947  0.01966  1.0000
  C   C355      1.0  0.32877  0.95341  0.12069  1.0000
  C   C356      1.0  0.34722  0.95356  0.11445  1.0000
  C   C357      1.0  0.31000  0.96142  0.04094  1.0000
  H   H597      1.0  0.23690  0.97682  0.14512  1.0000
  C   C358      1.0  0.01145  0.91122  0.34938  1.0000
  H   H598      1.0  0.20494  0.92874  0.99382  1.0000
  H   H599      1.0  0.35712  0.94219  0.11897  1.0000
  H   H600      1.0  0.32231  0.94152  0.09292  1.0000
  C   C359      1.0  0.00527  0.88262  0.42167  1.0000
  H   H601      1.0  0.02140  0.75259  0.41044  1.0000
  C   C360      1.0  0.18562  0.85291  0.40731  1.0000
  H   H602      1.0  0.22628  0.94062  0.02593  1.0000
  H   H603      1.0  0.11181  0.89016  0.40301  1.0000
  H   H604      1.0  0.16948  0.84075  0.44787  1.0000
  C   C361      1.0  0.21340  0.93910  0.18427  1.0000
  C   C362      1.0  0.20812  0.95280  0.17057  1.0000
  C   C363      1.0  0.18983  0.96063  0.17117  1.0000
  C   C364      1.0  0.17673  0.95482  0.18554  1.0000
  C   C365      1.0  0.18198  0.94094  0.19916  1.0000
  C   C366      1.0  0.20029  0.93312  0.19853  1.0000
  H   H605      1.0  0.21811  0.95772  0.15975  1.0000
  H   H606      1.0  0.18592  0.97156  0.16078  1.0000
  H   H607      1.0  0.17202  0.93633  0.21030  1.0000
  H   H608      1.0  0.20426  0.92235  0.20907  1.0000
  H   H609      1.0  0.18805  0.88220  0.45800  1.0000
  H   H610      1.0  0.21523  0.87879  0.42523  1.0000
  H   H611      1.0  0.34924  0.96634  0.03005  1.0000
  C   C367      1.0  0.05455  0.75638  0.39085  1.0000
  H   H612      1.0  0.30179  0.96783  0.11892  1.0000
  C   C368      1.0  0.19850  0.84087  0.44701  1.0000
  C   C369      1.0  0.07146  0.94905  0.43660  1.0000
  N   N26       1.0  0.20796  0.89511  0.16359  1.0000
  H   H613      1.0  0.23608  0.84100  0.43849  1.0000
  C   C370      1.0  0.24512  0.91719  0.03401  1.0000
  C   C371      1.0  0.11017  0.88736  0.28264  1.0000
  H   H614      1.0  0.22506  0.95451  0.23713  1.0000
  H   H615      1.0  0.20912  0.86387  0.40457  1.0000
  H   H616      1.0  0.01224  0.91996  0.29128  1.0000
  H   H617      1.0  0.22089  0.95228  0.21673  1.0000
  H   H618      1.0  0.20310  0.90506  0.01801  1.0000
  H   H619      1.0  0.21967  0.89105  0.99655  1.0000
  C   C372      1.0  0.20502  0.87952  0.15677  1.0000
  H   H620      1.0  0.04359  0.79182  0.39335  1.0000
  S   S117      1.0  0.03355  0.84758  0.36934  1.0000
  H   H621      1.0  0.24353  0.89497  0.01214  1.0000
  C   C373      1.0  0.20740  0.91151  0.43812  1.0000
  S   S118      1.0  0.06289  0.86347  0.39568  1.0000
  C   C374      1.0  0.22741  0.98830  0.20694  1.0000
  C   C375      1.0  0.22361  0.94595  0.06743  1.0000
  C   C376      1.0  0.23882  0.95053  0.07087  1.0000
  C   C377      1.0  0.24909  0.93840  0.08257  1.0000
  C   C378      1.0  0.24454  0.92149  0.09027  1.0000
  C   C379      1.0  0.22967  0.91676  0.08633  1.0000
  C   C380      1.0  0.21900  0.92912  0.07524  1.0000
  H   H622      1.0  0.24234  0.96358  0.06494  1.0000
  H   H623      1.0  0.26055  0.94214  0.08556  1.0000
  H   H624      1.0  0.22606  0.90376  0.09233  1.0000
  H   H625      1.0  0.20714  0.92564  0.07273  1.0000
  C   C381      1.0  0.30000  0.96857  0.07135  1.0000
  N   N27       1.0  0.31506  0.95916  0.05878  1.0000
  C   C382      1.0  0.03387  0.81647  0.30557  1.0000
  C   C383      1.0  0.31838  0.93935  0.06666  1.0000
  H   H626      1.0  0.17675  0.84400  0.41635  1.0000
  H   H627      1.0  0.06329  0.76291  0.44035  1.0000
  C   C384      1.0  0.32880  0.93388  0.08215  1.0000
  C   C385      1.0  0.02076  0.93052  0.28666  1.0000
  S   S119      1.0  0.00913  0.88347  0.33403  1.0000
  H   H628      1.0  0.32578  0.93111  0.05642  1.0000
  H   H629      1.0  0.30532  0.93441  0.07178  1.0000
  C   C386      1.0  0.21082  0.91105  0.02476  1.0000
  H   H630      1.0  0.23722  0.85188  0.41533  1.0000
  H   H631      1.0  0.34313  0.93558  0.07771  1.0000
  H   H632      1.0  0.02089  0.77388  0.39609  1.0000
  H   H633      1.0  0.12894  0.90099  0.45457  1.0000
  C   C387      1.0  0.07005  0.78359  0.40017  1.0000
  H   H634      1.0  0.32886  0.91944  0.08795  1.0000
  N   N28       1.0  0.22461  0.92045  0.01126  1.0000
  H   H635      1.0  0.01400  0.87440  0.43105  1.0000
  H   H636      1.0  0.19012  0.84780  0.39458  1.0000
  H   H637      1.0  0.18406  0.88423  0.42611  1.0000
  H   H638      1.0  0.34942  0.94456  0.04409  1.0000
  H   H639      1.0  0.08799  0.97688  0.37101  1.0000
  C   C388      1.0  0.22171  0.86856  0.14640  1.0000
  S   S120      1.0  0.05178  0.79948  0.35517  1.0000
  C   C389      1.0  0.04655  0.91235  0.38396  1.0000
  H   H640      1.0  0.03010  0.89259  0.43739  1.0000
  H   H641      1.0  0.18742  0.96706  0.27406  1.0000
  C   C390      1.0  0.00783  0.92022  0.42419  1.0000
  C   C391      1.0  0.01644  0.82079  0.31937  1.0000
  S   S121      1.0  0.05741  0.87853  0.34636  1.0000
  H   H642      1.0  0.07341  0.96208  0.28040  1.0000
  C   C392      1.0  0.18235  0.83139  0.44936  1.0000
  H   H643      1.0  0.18446  0.92880  0.03035  1.0000
  H   H644      1.0  0.21340  0.92655  0.23732  1.0000
  H   H645      1.0  0.17667  0.88269  0.18707  1.0000
  H   H646      1.0  0.12359  0.88234  0.28563  1.0000
  C   C393      1.0  0.18956  0.90535  0.17073  1.0000
  H   H647      1.0  0.13310  0.97915  0.37702  1.0000
  S   S122      1.0  0.07327  0.96819  0.32980  1.0000
  Fe  Fe58      1.0  0.03415  0.86725  0.34358  1.0000
  C   C394      1.0  0.11775  0.85231  0.38582  1.0000
  C   C395      1.0  0.02508  0.76599  0.40869  1.0000
  H   H648      1.0  0.02692  0.88657  0.39948  1.0000
  C   C396      1.0  0.21518  0.86544  0.43416  1.0000
  H   H649      1.0  0.21732  0.86301  0.13655  1.0000
  C   C397      1.0  0.31606  0.96809  0.11454  1.0000
  H   H650      1.0  0.19446  0.88381  0.14835  1.0000
  H   H651      1.0  0.09620  0.84013  0.38332  1.0000
  C   C398      1.0  0.21576  0.93396  0.99724  1.0000
  H   H652      1.0  0.00471  0.82654  0.28584  1.0000
  C   C399      1.0  0.06123  0.96534  0.27431  1.0000
  C   C400      1.0  0.01264  0.77456  0.42410  1.0000
  S   S123      1.0  0.07776  0.83636  0.35622  1.0000
  H   H653      1.0  0.20060  0.93887  0.25414  1.0000
  C   C401      1.0  0.29354  0.98884  0.06521  1.0000
  H   H654      1.0  0.10776  0.96821  0.30732  1.0000
  H   H655      1.0  0.18197  0.96646  0.21754  1.0000
  C   C402      1.0  0.07816  0.88636  0.28927  1.0000
  C   C403      1.0  0.19089  0.95901  0.10496  1.0000
  H   H656      1.0  0.19175  0.91381  0.04956  1.0000
  C   C404      1.0  0.04969  0.78276  0.40444  1.0000
  S   S124      1.0  0.02853  0.96540  0.41221  1.0000
  H   H657      1.0  0.30411  0.96946  0.15108  1.0000
  H   H658      1.0  0.22578  0.93617  0.98467  1.0000
  H   H659      1.0  0.01034  0.76222  0.35086  1.0000
  H   H660      1.0  0.36719  0.96778  0.09653  1.0000
  H   H661      1.0  0.01842  0.97197  0.28506  1.0000
  H   H662      1.0  0.30671  0.96336  0.17359  1.0000
  Fe  Fe59      1.0  0.05266  0.82869  0.35274  1.0000
  H   H663      1.0  0.02015  0.92789  0.38872  1.0000
  C   C405      1.0  0.20380  0.91245  0.45624  1.0000
  C   C406      1.0  0.21386  0.95526  0.23011  1.0000
  H   H664      1.0  0.21185  0.84046  0.41356  1.0000
  C   C407      1.0  0.18657  0.92024  0.46426  1.0000
  H   H665      1.0  0.18749  0.96388  0.09161  1.0000
  H   H666      1.0  0.04988  0.93652  0.33515  1.0000
  H   H667      1.0  0.20557  0.95330  0.10364  1.0000
  H   H668      1.0  0.21853  0.80245  0.46806  1.0000
  C   C408      1.0  0.10032  0.98879  0.39362  1.0000
  C   C409      1.0  0.35290  0.96807  0.10180  1.0000
  H   H669      1.0  0.16562  0.93016  0.42868  1.0000
  H   H670      1.0  0.01285  0.80791  0.32735  1.0000
  H   H671      1.0  0.17845  0.96668  0.24830  1.0000
  H   H672      1.0  0.28011  0.96511  0.04748  1.0000
  C   C410      1.0  0.09953  0.85103  0.38765  1.0000
  S   S125      1.0  0.10786  0.93836  0.42772  1.0000
  H   H673      1.0  0.07387  0.94776  0.44989  1.0000
  H   H674      1.0  0.06680  0.88053  0.29734  1.0000
  N   N29       1.0  0.19929  0.85765  0.43304  1.0000
  N   N30       1.0  0.04371  0.94326  0.29810  1.0000
  C   C411      1.0  0.05994  0.93504  0.30678  1.0000
  C   C412      1.0  0.05076  0.94968  0.27866  1.0000
  H   H675      1.0  0.02054  0.82684  0.32902  1.0000
  C   C413      1.0  0.03285  0.95841  0.30731  1.0000
  Fe  Fe60      1.0  0.02687  0.97661  0.38364  1.0000
  Fe  Fe61      1.0  0.11323  0.97921  0.24277  1.0000
  Fe  Fe62      1.0  0.14724  0.89758  0.38744  1.0000
  C   C414      1.0  0.00678  0.92917  0.35187  1.0000
  H   H676      1.0  0.06909  0.92459  0.29955  1.0000
  H   H677      1.0  0.06824  0.94521  0.30619  1.0000
  H   H678      1.0  0.03983  0.95424  0.27082  1.0000
  H   H679      1.0  0.05972  0.93835  0.27272  1.0000
  H   H680      1.0  0.21666  0.92464  0.12303  1.0000
  C   C415      1.0  0.00254  0.90525  0.33882  1.0000
  H   H681      1.0  0.21366  0.87661  0.18767  1.0000
  H   H682      1.0  0.07692  0.98614  0.41507  1.0000
  H   H683      1.0  0.27966  0.79229  0.46541  1.0000
  H   H684      1.0  0.23194  0.87652  0.13834  1.0000
  C   C416      1.0  0.23416  0.85404  0.42926  1.0000
  H   H685      1.0  0.01329  0.98319  0.30316  1.0000
  C   C417      1.0  0.18842  0.97583  0.24549  1.0000
  H   H686      1.0  0.04586  0.88809  0.41820  1.0000
  S   S126      1.0  0.17074  0.91027  0.37140  1.0000
  H   H687      1.0  0.19478  0.92466  0.13661  1.0000
  H   H688      1.0  0.05766  0.90254  0.43690  1.0000
  H   H689      1.0  0.04170  0.90655  0.37462  1.0000
  H   H690      1.0  0.11073  0.96579  0.37020  1.0000
  H   H691      1.0  0.17759  0.86662  0.40413  1.0000
  H   H692      1.0  0.12835  0.84256  0.37981  1.0000
  H   H693      1.0  0.22083  0.90579  0.43188  1.0000
  H   H694      1.0  0.04066  0.76904  0.34906  1.0000
  S   S127      1.0  0.03219  0.95847  0.36395  1.0000
  H   H695      1.0  0.01312  0.93097  0.42761  1.0000
  H   H696      1.0  0.30964  0.97549  0.03379  1.0000
  H   H697      1.0  0.19916  0.84334  0.46026  1.0000
  C   C418      1.0  0.03061  0.92126  0.39684  1.0000
  C   C419      1.0  0.25753  0.81377  0.47159  1.0000
  C   C420      1.0  0.08574  0.86393  0.39488  1.0000
  C   C421      1.0  0.09548  0.87987  0.29322  1.0000
  Fe  Fe63      1.0  0.07456  0.85713  0.33169  1.0000
  H   H698      1.0  0.29023  0.95709  0.02733  1.0000
  C   C422      1.0  0.20241  0.85350  0.41454  1.0000
  C   C423      1.0  0.19634  0.92252  0.03675  1.0000
  H   H699      1.0  0.24509  0.89610  0.16780  1.0000
  H   H700      1.0  0.21299  0.97989  0.08877  1.0000
  C   C424      1.0  0.07996  0.98152  0.30917  1.0000
  H   H701      1.0  0.18354  0.94777  0.11143  1.0000
  H   H702      1.0  0.22824  0.85713  0.15550  1.0000
  H   H703      1.0  0.33522  0.96722  0.06920  1.0000
  H   H704      1.0  0.05239  0.97775  0.27821  1.0000
  H   H705      1.0  0.07976  0.88749  0.40692  1.0000
  H   H706      1.0  0.02200  0.90206  0.35547  1.0000
  H   H707      1.0  0.04705  0.74951  0.45191  1.0000
  S   S128      1.0  0.14481  0.86972  0.38592  1.0000
  Fe  Fe64      1.0  0.17134  0.91803  0.39706  1.0000
  C   C425      1.0  0.19644  0.97349  0.26234  1.0000
  C   C426      1.0  0.12220  0.86675  0.39081  1.0000
  H   H708      1.0  0.17345  0.86560  0.46514  1.0000
  H   H709      1.0  0.04153  0.96771  0.30827  1.0000
  N   N31       1.0  0.02269  0.90899  0.41302  1.0000
  H   H710      1.0  0.06840  0.91873  0.33080  1.0000
  H   H711      1.0  0.06952  0.75385  0.38956  1.0000
  H   H712      1.0  0.15871  0.89493  0.32524  1.0000
  H   H713      1.0  0.21817  0.96039  0.00140  1.0000
  H   H714      1.0  0.17977  0.82379  0.46320  1.0000
  C   C427      1.0  0.23916  0.88384  0.17362  1.0000
  H   H715      1.0  0.04186  0.80335  0.31085  1.0000
  H   H716      1.0  0.17983  0.98944  0.24418  1.0000
  H   H717      1.0  0.21440  0.90739  0.46395  1.0000
  S   S129      1.0  0.05126  0.84757  0.32676  1.0000
  H   H718      1.0  0.19752  0.95306  0.01387  1.0000
  S   S130      1.0  0.24698  0.97471  0.01343  1.0000
  H   H719      1.0  0.21574  0.89910  0.18701  1.0000
  H   H720      1.0  0.23149  0.90222  0.14378  1.0000
  H   H721      1.0  0.00670  0.90195  0.39704  1.0000
  H   H722      1.0  0.24470  0.87775  0.18591  1.0000
  C   C428      1.0  0.05389  0.95515  0.43319  1.0000
  H   H723      1.0  0.05601  0.90179  0.39085  1.0000
  S   S131      1.0  0.09923  0.86248  0.31128  1.0000
  H   H724      1.0  0.20140  0.93302  0.04056  1.0000
  H   H725      1.0  0.01573  0.81845  0.36763  1.0000
  H   H726      1.0  0.05167  0.76604  0.37865  1.0000
  H   H727      1.0  0.19918  0.86964  0.16799  1.0000
  S   S132      1.0  0.19761  0.91430  0.40619  1.0000
  C   C429      1.0  0.10845  0.87924  0.39872  1.0000
  C   C430      1.0  0.17632  0.92532  0.43628  1.0000
  C   C431      1.0  0.03276  0.92870  0.30039  1.0000
  H   H728      1.0  0.11184  0.91394  0.46818  1.0000
  H   H729      1.0  0.18562  0.89449  0.19964  1.0000
  C   C432      1.0  0.18254  0.87179  0.43610  1.0000
  C   C433      1.0  0.05068  0.95734  0.41598  1.0000
  C   C434      1.0  0.17294  0.92699  0.45420  1.0000
  H   H730      1.0  0.20107  0.97187  0.20156  1.0000
  H   H731      1.0  0.21737  0.89918  0.03345  1.0000
  C   C435      1.0  0.01460  0.80623  0.36392  1.0000
  C   C436      1.0  0.01625  0.96958  0.29972  1.0000
  C   C437      1.0  0.21836  0.88861  0.17863  1.0000
  H   H732      1.0  0.25723  0.81961  0.45779  1.0000
  H   H733      1.0  0.20663  0.90535  0.12637  1.0000
  H   H734      1.0  0.06262  0.95451  0.38888  1.0000
  H   H735      1.0  0.15969  0.93325  0.46033  1.0000
  H   H736      1.0  0.02744  0.95318  0.32147  1.0000
  H   H737      1.0  0.32083  0.97751  0.15835  1.0000
  Fe  Fe65      1.0  0.22283  0.98228  0.03407  1.0000
  C   C438      1.0  0.05567  0.92626  0.32659  1.0000
  C   C439      1.0  0.20417  0.93939  0.23956  1.0000
  H   H738      1.0  0.24445  0.86142  0.43051  1.0000
  C   C440      1.0  0.17894  0.89595  0.18818  1.0000
  C   C441      1.0  0.21737  0.90814  0.14916  1.0000
  H   H739      1.0  0.16540  0.90447  0.19138  1.0000
  C   C442      1.0  0.19357  0.91757  0.42822  1.0000
  C   C443      1.0  0.09803  0.97811  0.30068  1.0000
  H   H740      1.0  0.09376  0.94355  0.39501  1.0000
  H   H741      1.0  0.04174  0.91528  0.30013  1.0000
  N   N32       1.0  0.04520  0.76425  0.40727  1.0000
  C   C444      1.0  0.19178  0.97578  0.21374  1.0000
  S   S133      1.0  0.14954  0.90321  0.41337  1.0000
  H   H742      1.0  0.21875  0.91960  0.15477  1.0000
  H   H743      1.0  0.17038  0.86786  0.43398  1.0000
  H   H744      1.0  0.19073  0.91860  0.17312  1.0000
  H   H745      1.0  0.16995  0.98939  0.07913  1.0000
  C   C445      1.0  0.20806  0.91599  0.13301  1.0000
  H   H746      1.0  0.23700  0.97536  0.20630  1.0000
  H   H747      1.0  0.00416  0.96319  0.30548  1.0000
  H   H748      1.0  0.04279  0.95848  0.44387  1.0000
  H   H749      1.0  0.04366  0.78946  0.41600  1.0000
  H   H750      1.0  0.25635  0.90715  0.02839  1.0000
  H   H751      1.0  0.18050  0.90856  0.16086  1.0000
  C   C446      1.0  0.06506  0.95294  0.40220  1.0000
  H   H752      1.0  0.18528  0.82186  0.44000  1.0000
  H   H753      1.0  0.05471  0.92259  0.37631  1.0000
  C   C447      1.0  0.20748  0.95298  0.00129  1.0000
  C   C448      1.0  0.08593  0.94488  0.42288  1.0000
  C   C449      1.0  0.08270  0.94664  0.40568  1.0000
  H   H754      1.0  0.25131  0.92561  0.03979  1.0000
  C   C450      1.0  0.09026  0.87770  0.40095  1.0000
  H   H755      1.0  0.24398  0.87411  0.16451  1.0000
  N   N33       1.0  0.11839  0.90764  0.33260  1.0000
  C   C451      1.0  0.12693  0.91572  0.31416  1.0000
  C   C452      1.0  0.13305  0.90196  0.34360  1.0000
  C   C453      1.0  0.10432  0.92239  0.34000  1.0000
  C   C454      1.0  0.11021  0.89216  0.33135  1.0000
  C   C455      1.0  0.11416  0.92340  0.30076  1.0000
  C   C456      1.0  0.14963  0.88830  0.33670  1.0000
  C   C457      1.0  0.09253  0.91694  0.35822  1.0000
  C   C458      1.0  0.10781  0.87746  0.34809  1.0000
  H   H756      1.0  0.13345  0.92685  0.31476  1.0000
  H   H757      1.0  0.13779  0.90567  0.30792  1.0000
  H   H758      1.0  0.12779  0.89613  0.35753  1.0000
  H   H759      1.0  0.13831  0.91388  0.34455  1.0000
  H   H760      1.0  0.11084  0.93352  0.34095  1.0000
  H   H761      1.0  0.09462  0.92872  0.33097  1.0000
  H   H762      1.0  0.09675  0.89708  0.32744  1.0000
  H   H763      1.0  0.11895  0.88502  0.32070  1.0000
  H   H764      1.0  0.10385  0.91518  0.30183  1.0000
  H   H765      1.0  0.10732  0.93737  0.30204  1.0000
  H   H766      1.0  0.12249  0.92377  0.28720  1.0000
  H   H767      1.0  0.14581  0.87697  0.33290  1.0000
  H   H768      1.0  0.15770  0.88259  0.34733  1.0000
  H   H769      1.0  0.08325  0.90826  0.35737  1.0000
  H   H770      1.0  0.08403  0.92932  0.36262  1.0000
  H   H771      1.0  0.10055  0.91019  0.36861  1.0000
  H   H772      1.0  0.09607  0.87138  0.34827  1.0000
  H   H773      1.0  0.10514  0.88231  0.36072  1.0000
  H   H774      1.0  0.11951  0.86615  0.34758  1.0000
  H   H775      1.0  0.29136  0.94186  0.04797  1.0000
  H   H776      1.0  0.21433  0.86779  0.44780  1.0000
  H   H777      1.0  0.01094  0.85643  0.31289  1.0000
  N   N34       1.0  0.20194  0.97366  0.22854  1.0000
  H   H778      1.0  0.21077  0.83052  0.44411  1.0000
  Fe  Fe66      1.0  0.00744  0.97535  0.35477  1.0000
  H   H779      1.0  0.01751  0.84920  0.29226  1.0000
  C   C459      1.0  0.04862  0.91098  0.42788  1.0000
  Fe  Fe67      1.0  0.04671  0.97916  0.34548  1.0000
  H   H780      1.0  0.28784  0.96218  0.07450  1.0000
  H   H781      1.0  0.36096  0.95983  0.04862  1.0000
  N   N35       1.0  0.00053  0.83291  0.31226  1.0000
  C   C460      1.0  0.21365  0.98771  0.22466  1.0000
  H   H782      1.0  0.10549  0.97432  0.39862  1.0000
  H   H783      1.0  0.23584  0.91042  0.04512  1.0000
  H   H784      1.0  0.32907  0.98179  0.05034  1.0000
  C   C461      1.0  0.05006  0.75984  0.43987  1.0000
  H   H785      1.0  0.07609  0.78190  0.38624  1.0000
  H   H786      1.0  0.24521  0.93599  0.00922  1.0000
  C   C462      1.0  0.33167  0.96726  0.05627  1.0000
  H   H787      1.0  0.06612  0.96838  0.25970  1.0000
  H   H788      1.0  0.19175  0.93993  0.23452  1.0000
  H   H789      1.0  0.01383  0.76567  0.43710  1.0000
  H   H790      1.0  0.30412  0.96726  0.08423  1.0000
  C   C463      1.0  0.05157  0.75169  0.42321  1.0000
  H   H791      1.0  0.00618  0.79609  0.30553  1.0000
  H   H792      1.0  0.17047  0.97539  0.12102  1.0000
  H   H793      1.0  0.05755  0.91641  0.41557  1.0000
  H   H794      1.0  0.32061  0.95338  0.03216  1.0000
  H   H795      1.0  0.02912  0.92817  0.27357  1.0000
  H   H796      1.0  0.21973  0.98128  0.10823  1.0000
  H   H797      1.0  0.07177  0.79711  0.40126  1.0000
  H   H798      1.0  0.01146  0.94361  0.28507  1.0000
  H   H799      1.0  0.23870  0.77331  0.47268  1.0000
  H   H800      1.0  0.19120  0.96748  0.12884  1.0000
  C   C464      1.0  0.34868  0.95897  0.04397  1.0000
  H   H801      1.0  0.20986  0.96461  0.26183  1.0000
  H   H802      1.0  0.10520  0.96902  0.34161  1.0000
  H   H803      1.0  0.20037  0.96085  0.99043  1.0000
  C   C465      1.0  0.01150  0.77446  0.35458  1.0000
  C   C466      1.0  0.23814  0.90635  0.00222  1.0000
  C   C467      1.0  0.18544  0.97362  0.11662  1.0000
  H   H804      1.0  0.03465  0.93268  0.40035  1.0000
  H   H805      1.0  0.22161  0.98560  0.23533  1.0000
  H   H806      1.0  0.26002  0.96317  0.98164  1.0000
  H   H807      1.0  0.00279  0.91204  0.43721  1.0000
  C   C468      1.0  0.34021  0.98283  0.09579  1.0000
  H   H808      1.0  0.20635  0.78483  0.47019  1.0000
  H   H809      1.0  0.99883  0.84227  0.34572  1.0000
  H   H810      1.0  0.06616  0.74569  0.41957  1.0000
  H   H811      1.0  0.19768  0.98672  0.26467  1.0000
  C   C469      1.0  0.30691  0.97459  0.16200  1.0000
  C   C470      1.0  0.10343  0.98688  0.28329  1.0000
  C   C471      1.0  0.21063  0.98863  0.09876  1.0000
  C   C472      1.0  0.10215  0.97900  0.36592  1.0000
  H   H812      1.0  0.22538  0.74670  0.47807  1.0000
  H   H813      1.0  0.11738  0.98657  0.33837  1.0000
  C   C473      1.0  0.00588  0.85079  0.30353  1.0000
  H   H814      1.0  0.07164  0.98770  0.39376  1.0000
  C   C474      1.0  0.10466  0.98203  0.34554  1.0000
  H   H815      1.0  0.24231  0.88746  0.98437  1.0000
  H   H816      1.0  0.27929  0.98588  0.17089  1.0000
  C   C475      1.0  0.27024  0.79832  0.47590  1.0000
  C   C476      1.0  0.21320  0.79104  0.47755  1.0000
  H   H817      1.0  0.26022  0.74983  0.47894  1.0000
  H   H818      1.0  0.14151  0.88205  0.47921  1.0000
  S   S134      1.0  0.14060  0.77205  0.62218  1.0000
  H   H819      1.0  0.17417  0.87603  0.67695  1.0000
  C   C477      1.0  0.18537  0.91514  0.68126  1.0000
  C   C478      1.0  0.12807  0.89065  0.48275  1.0000
  H   H820      1.0  0.12280  0.85717  0.50274  1.0000
  H   H821      1.0  0.28811  0.98839  0.81853  1.0000
  H   H822      1.0  0.24674  0.74231  0.61801  1.0000
  H   H823      1.0  0.39970  0.89285  0.92010  1.0000
  H   H824      1.0  0.20306  0.78562  0.57663  1.0000
  H   H825      1.0  0.14475  0.87139  0.51021  1.0000
  H   H826      1.0  0.34256  0.88487  0.89765  1.0000
  H   H827      1.0  0.37536  0.89426  0.92742  1.0000
  H   H828      1.0  0.22903  0.77685  0.52719  1.0000
  H   H829      1.0  0.29166  0.83715  0.51453  1.0000
  H   H830      1.0  0.34202  0.87926  0.92123  1.0000
  Fe  Fe68      1.0  0.15503  0.75528  0.56220  1.0000
  S   S135      1.0  0.16624  0.77209  0.53655  1.0000
  H   H831      1.0  0.14956  0.92072  0.51610  1.0000
  C   C479      1.0  0.30247  0.93161  0.82890  1.0000
  Fe  Fe69      1.0  0.37469  0.98677  0.82830  1.0000
  H   H832      1.0  0.28131  0.74398  0.60770  1.0000
  Fe  Fe70      1.0  0.28318  0.75593  0.52674  1.0000
  H   H833      1.0  0.44756  0.89281  0.81741  1.0000
  S   S136      1.0  0.28545  0.77006  0.49831  1.0000
  Fe  Fe71      1.0  0.14292  0.75364  0.60201  1.0000
  S   S137      1.0  0.25723  0.74839  0.54307  1.0000
  H   H834      1.0  0.49670  0.78002  0.70811  1.0000
  S   S138      1.0  0.28967  0.76673  0.54809  1.0000
  N   N36       1.0  0.46820  0.79184  0.70914  1.0000
  Fe  Fe72      1.0  0.20963  0.81412  0.66229  1.0000
  S   S139      1.0  0.22156  0.82684  0.63495  1.0000
  S   S140      1.0  0.19596  0.79013  0.66314  1.0000
  Fe  Fe73      1.0  0.22793  0.83755  0.67936  1.0000
  S   S141      1.0  0.24084  0.85084  0.65242  1.0000
  S   S142      1.0  0.23152  0.84585  0.70483  1.0000
  Fe  Fe74      1.0  0.21400  0.85268  0.64498  1.0000
  S   S143      1.0  0.19973  0.87663  0.62834  1.0000
  Fe  Fe75      1.0  0.24698  0.82327  0.64552  1.0000
  S   S144      1.0  0.27306  0.81092  0.62952  1.0000
  S   S145      1.0  0.20031  0.84068  0.67212  1.0000
  S   S146      1.0  0.23575  0.80946  0.67273  1.0000
  Fe  Fe76      1.0  0.19422  0.89491  0.50223  1.0000
  S   S147      1.0  0.18754  0.88911  0.53201  1.0000
  H   H835      1.0  0.30451  0.92707  0.81609  1.0000
  Fe  Fe77      1.0  0.21473  0.85707  0.49958  1.0000
  S   S148      1.0  0.20978  0.84777  0.52908  1.0000
  H   H836      1.0  0.44489  0.81841  0.73104  1.0000
  Fe  Fe78      1.0  0.18168  0.86337  0.52843  1.0000
  S   S149      1.0  0.15695  0.85298  0.54426  1.0000
  Fe  Fe79      1.0  0.21621  0.87434  0.53003  1.0000
  S   S150      1.0  0.23525  0.87465  0.54771  1.0000
  S   S151      1.0  0.18593  0.87027  0.49887  1.0000
  S   S152      1.0  0.22361  0.88245  0.50031  1.0000
  Fe  Fe80      1.0  0.29191  0.91255  0.89200  1.0000
  S   S153      1.0  0.30252  0.89565  0.91577  1.0000
  S   S154      1.0  0.30401  0.93386  0.87188  1.0000
  Fe  Fe81      1.0  0.25898  0.89571  0.89946  1.0000
  S   S155      1.0  0.26618  0.87753  0.92437  1.0000
  S   S156      1.0  0.23369  0.89690  0.88949  1.0000
  Fe  Fe82      1.0  0.27377  0.90171  0.92990  1.0000
  S   S157      1.0  0.27052  0.90888  0.95676  1.0000
  Fe  Fe83      1.0  0.29429  0.87316  0.90805  1.0000
  S   S158      1.0  0.31027  0.84505  0.91074  1.0000
  S   S159      1.0  0.26381  0.92041  0.90659  1.0000
  S   S160      1.0  0.28642  0.88947  0.88279  1.0000
  Fe  Fe84      1.0  0.28233  0.90226  0.75013  1.0000
  S   S161      1.0  0.27369  0.88359  0.77536  1.0000
  S   S162      1.0  0.27737  0.89696  0.72384  1.0000
  Fe  Fe85      1.0  0.30125  0.92241  0.77050  1.0000
  S   S163      1.0  0.29329  0.90427  0.79634  1.0000
  H   H837      1.0  0.26295  0.84833  0.50377  1.0000
  Fe  Fe86      1.0  0.30143  0.88228  0.78024  1.0000
  S   S164      1.0  0.32008  0.85642  0.78767  1.0000
  Fe  Fe87      1.0  0.26659  0.90795  0.78824  1.0000
  S   S165      1.0  0.24000  0.91581  0.80599  1.0000
  S   S166      1.0  0.31084  0.89993  0.75455  1.0000
  S   S167      1.0  0.27365  0.92720  0.76284  1.0000
  Fe  Fe88      1.0  0.43721  0.83129  0.81554  1.0000
  S   S168      1.0  0.43625  0.86107  0.80790  1.0000
  C   C480      1.0  0.44942  0.80391  0.78728  1.0000
  Fe  Fe89      1.0  0.40151  0.83498  0.84235  1.0000
  S   S169      1.0  0.39722  0.86497  0.83667  1.0000
  S   S170      1.0  0.38344  0.81728  0.86133  1.0000
  Fe  Fe90      1.0  0.40698  0.86210  0.80818  1.0000
  S   S171      1.0  0.39303  0.88021  0.78718  1.0000
  Fe  Fe91      1.0  0.42681  0.86094  0.83712  1.0000
  S   S172      1.0  0.43480  0.87651  0.85387  1.0000
  S   S173      1.0  0.40849  0.83241  0.81376  1.0000
  S   S174      1.0  0.43050  0.83093  0.84493  1.0000
  C   C481      1.0  0.43608  0.89877  0.84361  1.0000
  C   C482      1.0  0.43040  0.91221  0.85397  1.0000
  H   H838      1.0  0.26480  0.79942  0.54993  1.0000
  H   H839      1.0  0.42524  0.90879  0.86806  1.0000
  H   H840      1.0  0.36583  0.90345  0.85441  1.0000
  C   C483      1.0  0.34062  0.86265  0.78723  1.0000
  C   C484      1.0  0.35603  0.84961  0.78970  1.0000
  C   C485      1.0  0.37230  0.85491  0.78954  1.0000
  C   C486      1.0  0.37309  0.87320  0.78699  1.0000
  C   C487      1.0  0.35768  0.88613  0.78447  1.0000
  C   C488      1.0  0.34149  0.88086  0.78474  1.0000
  H   H841      1.0  0.35546  0.83551  0.79152  1.0000
  H   H842      1.0  0.38432  0.84489  0.79080  1.0000
  H   H843      1.0  0.35812  0.90027  0.78255  1.0000
  H   H844      1.0  0.32972  0.89104  0.78307  1.0000
  C   C489      1.0  0.33145  0.83884  0.89742  1.0000
  C   C490      1.0  0.33928  0.82063  0.89993  1.0000
  C   C491      1.0  0.35544  0.81446  0.88899  1.0000
  C   C492      1.0  0.36409  0.82643  0.87546  1.0000
  C   C493      1.0  0.35657  0.84485  0.87301  1.0000
  C   C494      1.0  0.34014  0.85108  0.88401  1.0000
  H   H845      1.0  0.33262  0.81114  0.91022  1.0000
  H   H846      1.0  0.36115  0.80025  0.89091  1.0000
  H   H847      1.0  0.36302  0.85409  0.86232  1.0000
  H   H848      1.0  0.33395  0.86515  0.88184  1.0000
  C   C495      1.0  0.32234  0.93947  0.87746  1.0000
  C   C496      1.0  0.33215  0.95131  0.86505  1.0000
  C   C497      1.0  0.34670  0.95627  0.86929  1.0000
  C   C498      1.0  0.35165  0.94928  0.88585  1.0000
  C   C499      1.0  0.34152  0.93782  0.89849  1.0000
  C   C500      1.0  0.32685  0.93289  0.89428  1.0000
  C   C501      1.0  0.27702  0.95562  0.80328  1.0000
  H   H849      1.0  0.34502  0.93275  0.91149  1.0000
  H   H850      1.0  0.31883  0.92444  0.90419  1.0000
  C   C502      1.0  0.23581  0.90122  0.86623  1.0000
  C   C503      1.0  0.25189  0.89492  0.85507  1.0000
  C   C504      1.0  0.25325  0.89894  0.83650  1.0000
  C   C505      1.0  0.23858  0.90941  0.82909  1.0000
  C   C506      1.0  0.22247  0.91543  0.84027  1.0000
  C   C507      1.0  0.22105  0.91124  0.85876  1.0000
  H   H851      1.0  0.26313  0.88679  0.86077  1.0000
  H   H852      1.0  0.26562  0.89414  0.82791  1.0000
  H   H853      1.0  0.21106  0.92341  0.83461  1.0000
  H   H854      1.0  0.20855  0.91599  0.86731  1.0000
  C   C508      1.0  0.24532  0.85926  0.70986  1.0000
  C   C509      1.0  0.24355  0.86126  0.72763  1.0000
  C   C510      1.0  0.25325  0.87253  0.73219  1.0000
  C   C511      1.0  0.26489  0.88217  0.71901  1.0000
  C   C512      1.0  0.26683  0.88001  0.70127  1.0000
  C   C513      1.0  0.25729  0.86858  0.69674  1.0000
  H   H855      1.0  0.23438  0.85421  0.73797  1.0000
  H   H856      1.0  0.25148  0.87395  0.74589  1.0000
  H   H857      1.0  0.27578  0.88728  0.69089  1.0000
  H   H858      1.0  0.25894  0.86728  0.68301  1.0000
  C   C514      1.0  0.20990  0.87725  0.60584  1.0000
  C   C515      1.0  0.20004  0.88615  0.59251  1.0000
  C   C516      1.0  0.20775  0.88558  0.57455  1.0000
  C   C517      1.0  0.22545  0.87641  0.56992  1.0000
  C   C518      1.0  0.23553  0.86817  0.58322  1.0000
  C   C519      1.0  0.22771  0.86837  0.60116  1.0000
  H   H859      1.0  0.18630  0.89311  0.59608  1.0000
  H   H860      1.0  0.20000  0.89226  0.56434  1.0000
  H   H861      1.0  0.24926  0.86123  0.57971  1.0000
  H   H862      1.0  0.23547  0.86160  0.61136  1.0000
  C   C520      1.0  0.27053  0.79040  0.49368  1.0000
  C   C521      1.0  0.25833  0.79823  0.50722  1.0000
  C   C522      1.0  0.24573  0.81394  0.50288  1.0000
  C   C523      1.0  0.42141  0.74555  0.81213  1.0000
  H   H863      1.0  0.30113  0.95045  0.94871  1.0000
  H   H864      1.0  0.28694  0.96417  0.79535  1.0000
  H   H865      1.0  0.25840  0.79194  0.52096  1.0000
  H   H866      1.0  0.23600  0.81974  0.51326  1.0000
  C   C524      1.0  0.32825  0.97386  0.77669  1.0000
  H   H867      1.0  0.39997  0.97078  0.80046  1.0000
  C   C525      1.0  0.25333  0.77980  0.59764  1.0000
  C   C526      1.0  0.24376  0.78217  0.61458  1.0000
  C   C527      1.0  0.25061  0.79059  0.62488  1.0000
  C   C528      1.0  0.26664  0.79732  0.61799  1.0000
  C   C529      1.0  0.27669  0.79422  0.60137  1.0000
  C   C530      1.0  0.27011  0.78526  0.59127  1.0000
  H   H868      1.0  0.23091  0.77774  0.61974  1.0000
  H   H869      1.0  0.24321  0.79220  0.63806  1.0000
  H   H870      1.0  0.28917  0.79931  0.59609  1.0000
  H   H871      1.0  0.27765  0.78327  0.57830  1.0000
  C   C531      1.0  0.16305  0.79471  0.53856  1.0000
  C   C532      1.0  0.17134  0.80684  0.52481  1.0000
  C   C533      1.0  0.16962  0.82473  0.52660  1.0000
  C   C534      1.0  0.15896  0.83072  0.54185  1.0000
  C   C535      1.0  0.15026  0.81876  0.55541  1.0000
  C   C536      1.0  0.15259  0.80070  0.55391  1.0000
  H   H872      1.0  0.17922  0.80240  0.51284  1.0000
  H   H873      1.0  0.17638  0.83392  0.51609  1.0000
  H   H874      1.0  0.14206  0.82333  0.56727  1.0000
  H   H875      1.0  0.14631  0.79145  0.56468  1.0000
  H   H876      1.0  0.24315  0.93401  0.93939  1.0000
  C   C537      1.0  0.15153  0.79174  0.64187  1.0000
  C   C538      1.0  0.16365  0.79637  0.65042  1.0000
  C   C539      1.0  0.18132  0.78655  0.64997  1.0000
  C   C540      1.0  0.18652  0.77197  0.64081  1.0000
  C   C541      1.0  0.17445  0.76749  0.63200  1.0000
  C   C542      1.0  0.42956  0.79095  0.76881  1.0000
  H   H877      1.0  0.15910  0.80722  0.65787  1.0000
  H   H878      1.0  0.19987  0.76396  0.64082  1.0000
  H   H879      1.0  0.29846  0.82440  0.76644  1.0000
  H   H880      1.0  0.45000  0.92455  0.80364  1.0000
  H   H881      1.0  0.43748  0.76452  0.81299  1.0000
  H   H882      1.0  0.45036  0.77241  0.71736  1.0000
  S   S175      1.0  0.41960  0.75006  0.72926  1.0000
  H   H883      1.0  0.30680  0.77829  0.62034  1.0000
  H   H884      1.0  0.31467  0.95388  0.92696  1.0000
  H   H885      1.0  0.44763  0.78651  0.73280  1.0000
  H   H886      1.0  0.43243  0.79405  0.69872  1.0000
  H   H887      1.0  0.29087  0.84368  0.77646  1.0000
  N   N37       1.0  0.28078  0.83065  0.54271  1.0000
  H   H888      1.0  0.17868  0.75636  0.62495  1.0000
  H   H889      1.0  0.46503  0.97814  0.85612  1.0000
  C   C543      1.0  0.43573  0.81562  0.77931  1.0000
  C   C544      1.0  0.42573  0.80912  0.77016  1.0000
  H   H890      1.0  0.43244  0.82959  0.78068  1.0000
  H   H891      1.0  0.41452  0.81804  0.76483  1.0000
  C   C545      1.0  0.39634  0.76492  0.84257  1.0000
  H   H892      1.0  0.09707  0.89826  0.50358  1.0000
  C   C546      1.0  0.22924  0.77778  0.48451  1.0000
  H   H893      1.0  0.30911  0.78696  0.64756  1.0000
  H   H894      1.0  0.25948  0.98286  0.88865  1.0000
  H   H895      1.0  0.26629  0.96027  0.88500  1.0000
  H   H896      1.0  0.38509  0.80527  0.82660  1.0000
  C   C547      1.0  0.39455  0.93647  0.80415  1.0000
  H   H897      1.0  0.26836  0.92898  0.82876  1.0000
  C   C548      1.0  0.14106  0.91030  0.51838  1.0000
  C   C549      1.0  0.38483  0.92034  0.81189  1.0000
  H   H898      1.0  0.22756  0.90780  0.97790  1.0000
  H   H899      1.0  0.25069  0.97695  0.82510  1.0000
  H   H900      1.0  0.27765  0.82080  0.52001  1.0000
  H   H901      1.0  0.27711  0.83897  0.76358  1.0000
  H   H902      1.0  0.47155  0.77404  0.74454  1.0000
  C   C550      1.0  0.38495  0.79678  0.81709  1.0000
  C   C551      1.0  0.41573  0.92188  0.78072  1.0000
  H   H903      1.0  0.38427  0.94851  0.80715  1.0000
  H   H904      1.0  0.38846  0.77524  0.85064  1.0000
  C   C552      1.0  0.27113  0.97152  0.88794  1.0000
  C   C553      1.0  0.47002  0.79217  0.68951  1.0000
  S   S176      1.0  0.18172  0.92093  0.48700  1.0000
  C   C554      1.0  0.15677  0.77731  0.63254  1.0000
  C   C555      1.0  0.25982  0.96150  0.79508  1.0000
  H   H905      1.0  0.21589  0.79482  0.51379  1.0000
  H   H906      1.0  0.49426  0.76281  0.73886  1.0000
  H   H907      1.0  0.30617  0.75924  0.60228  1.0000
  C   C556      1.0  0.45026  0.78651  0.71834  1.0000
  H   H908      1.0  0.42110  0.79573  0.72094  1.0000
  H   H909      1.0  0.46496  0.77706  0.79067  1.0000
  C   C557      1.0  0.10704  0.90450  0.50722  1.0000
  N   N38       1.0  0.40304  0.93896  0.78465  1.0000
  C   C558      1.0  0.40224  0.74757  0.85560  1.0000
  C   C559      1.0  0.30061  0.95367  0.93432  1.0000
  C   C560      1.0  0.27412  0.98992  0.81633  1.0000
  H   H910      1.0  0.39389  0.90724  0.81057  1.0000
  H   H911      1.0  0.11106  0.93056  0.48835  1.0000
  C   C561      1.0  0.25574  0.74110  0.49172  1.0000
  C   C562      1.0  0.25601  0.95675  0.97275  1.0000
  H   H912      1.0  0.46346  0.80600  0.74146  1.0000
  S   S177      1.0  0.46360  0.74289  0.69683  1.0000
  C   C563      1.0  0.21589  0.78159  0.52277  1.0000
  H   H913      1.0  0.46733  0.77942  0.68725  1.0000
  H   H914      1.0  0.28799  0.95257  0.90425  1.0000
  H   H915      1.0  0.38219  0.80600  0.80458  1.0000
  C   C564      1.0  0.26287  0.94217  0.83307  1.0000
  H   H916      1.0  0.24902  0.76119  0.50792  1.0000
  C   C565      1.0  0.48452  0.77533  0.73527  1.0000
  H   H917      1.0  0.34333  0.74867  0.63019  1.0000
  H   H918      1.0  0.29253  0.98203  0.93562  1.0000
  C   C566      1.0  0.31690  0.77374  0.64456  1.0000
  H   H919      1.0  0.23802  0.74397  0.65018  1.0000
  C   C567      1.0  0.29574  0.81485  0.54620  1.0000
  C   C568      1.0  0.26350  0.82659  0.55508  1.0000
  C   C569      1.0  0.28948  0.84605  0.56465  1.0000
  C   C570      1.0  0.31500  0.81723  0.53616  1.0000
  C   C571      1.0  0.25511  0.81210  0.55100  1.0000
  H   H920      1.0  0.29610  0.81086  0.56065  1.0000
  H   H921      1.0  0.29326  0.80287  0.54235  1.0000
  H   H922      1.0  0.26564  0.82204  0.56903  1.0000
  H   H923      1.0  0.27858  0.84188  0.57572  1.0000
  H   H924      1.0  0.30240  0.83675  0.56628  1.0000
  H   H925      1.0  0.31934  0.82876  0.53906  1.0000
  H   H926      1.0  0.31635  0.81849  0.52160  1.0000
  H   H927      1.0  0.32472  0.80498  0.54050  1.0000
  C   C572      1.0  0.36907  0.87446  0.90541  1.0000
  H   H928      1.0  0.24389  0.80883  0.56205  1.0000
  N   N39       1.0  0.31153  0.84479  0.84690  1.0000
  C   C573      1.0  0.32485  0.82811  0.85254  1.0000
  C   C574      1.0  0.29956  0.85036  0.86355  1.0000
  C   C575      1.0  0.32216  0.85934  0.83695  1.0000
  C   C576      1.0  0.30103  0.84008  0.83515  1.0000
  C   C577      1.0  0.34091  0.82221  0.83791  1.0000
  C   C578      1.0  0.28856  0.83643  0.87566  1.0000
  C   C579      1.0  0.31219  0.87903  0.83605  1.0000
  C   C580      1.0  0.28505  0.85433  0.82931  1.0000
  H   H929      1.0  0.33080  0.82989  0.86346  1.0000
  H   H930      1.0  0.31798  0.81634  0.85811  1.0000
  H   H931      1.0  0.28969  0.86282  0.86058  1.0000
  H   H932      1.0  0.30781  0.85381  0.87176  1.0000
  H   H933      1.0  0.33406  0.85859  0.84306  1.0000
  H   H934      1.0  0.32787  0.85734  0.82307  1.0000
  H   H935      1.0  0.31013  0.83697  0.82263  1.0000
  H   H936      1.0  0.29592  0.82731  0.84112  1.0000
  H   H937      1.0  0.35017  0.83208  0.83318  1.0000
  H   H938      1.0  0.34910  0.80946  0.84367  1.0000
  H   H939      1.0  0.33643  0.81966  0.82644  1.0000
  H   H940      1.0  0.27956  0.84261  0.88679  1.0000
  H   H941      1.0  0.27976  0.83233  0.86854  1.0000
  H   H942      1.0  0.29743  0.82449  0.88185  1.0000
  H   H943      1.0  0.31069  0.88341  0.84889  1.0000
  H   H944      1.0  0.29878  0.88141  0.83243  1.0000
  H   H945      1.0  0.32047  0.88785  0.82582  1.0000
  H   H946      1.0  0.28976  0.86418  0.81749  1.0000
  H   H947      1.0  0.27670  0.86141  0.83996  1.0000
  H   H948      1.0  0.27553  0.84753  0.82573  1.0000
  N   N40       1.0  0.41101  0.77259  0.82858  1.0000
  C   C581      1.0  0.40292  0.78352  0.81283  1.0000
  H   H949      1.0  0.12173  0.85236  0.52613  1.0000
  Fe  Fe92      1.0  0.42533  0.75477  0.75423  1.0000
  H   H950      1.0  0.29318  0.76771  0.63924  1.0000
  C   C582      1.0  0.24213  0.96574  0.96357  1.0000
  C   C583      1.0  0.26499  0.93946  0.97021  1.0000
  H   H951      1.0  0.14766  0.89825  0.52676  1.0000
  H   H952      1.0  0.10415  0.86874  0.51734  1.0000
  H   H953      1.0  0.39984  0.77489  0.80482  1.0000
  H   H954      1.0  0.13855  0.91923  0.49109  1.0000
  H   H955      1.0  0.29548  0.94257  0.93146  1.0000
  H   H956      1.0  0.40873  0.79726  0.83826  1.0000
  H   H957      1.0  0.32206  0.98121  0.76551  1.0000
  H   H958      1.0  0.33608  0.76066  0.59168  1.0000
  H   H959      1.0  0.08833  0.92862  0.49819  1.0000
  C   C584      1.0  0.28795  0.97194  0.93043  1.0000
  H   H960      1.0  0.48205  0.76415  0.71334  1.0000
  H   H961      1.0  0.47103  0.97080  0.83476  1.0000
  H   H962      1.0  0.23664  0.78571  0.48947  1.0000
  H   H963      1.0  0.43328  0.90904  0.75944  1.0000
  H   H964      1.0  0.31984  0.98460  0.91753  1.0000
  N   N41       1.0  0.12611  0.89526  0.50083  1.0000
  C   C585      1.0  0.11890  0.86340  0.51480  1.0000
  H   H965      1.0  0.24575  0.94269  0.85955  1.0000
  N   N42       1.0  0.18872  0.81949  0.59227  1.0000
  C   C586      1.0  0.18163  0.80272  0.59270  1.0000
  C   C587      1.0  0.18084  0.82525  0.61000  1.0000
  C   C588      1.0  0.20899  0.81435  0.59038  1.0000
  C   C589      1.0  0.18323  0.83345  0.57683  1.0000
  C   C590      1.0  0.18907  0.79323  0.57648  1.0000
  C   C591      1.0  0.16022  0.83226  0.61354  1.0000
  C   C592      1.0  0.21948  0.82960  0.58832  1.0000
  C   C593      1.0  0.18444  0.85315  0.57652  1.0000
  H   H966      1.0  0.18455  0.79248  0.60454  1.0000
  H   H967      1.0  0.16665  0.80558  0.59399  1.0000
  H   H968      1.0  0.18724  0.83574  0.61221  1.0000
  H   H969      1.0  0.18394  0.81393  0.62097  1.0000
  H   H970      1.0  0.21254  0.80399  0.60200  1.0000
  H   H971      1.0  0.21505  0.80809  0.57850  1.0000
  H   H972      1.0  0.19142  0.82989  0.56408  1.0000
  H   H973      1.0  0.16902  0.83346  0.57605  1.0000
  H   H974      1.0  0.18062  0.78317  0.57723  1.0000
  H   H975      1.0  0.18842  0.80251  0.56361  1.0000
  H   H976      1.0  0.15234  0.82186  0.61388  1.0000
  H   H977      1.0  0.15618  0.83622  0.62683  1.0000
  H   H978      1.0  0.15619  0.84434  0.60371  1.0000
  H   H979      1.0  0.21406  0.83816  0.59850  1.0000
  H   H980      1.0  0.22012  0.83802  0.57487  1.0000
  H   H981      1.0  0.23364  0.82359  0.58985  1.0000
  H   H982      1.0  0.19483  0.85776  0.56510  1.0000
  H   H983      1.0  0.18763  0.85565  0.58859  1.0000
  H   H984      1.0  0.17134  0.86210  0.57461  1.0000
  N   N43       1.0  0.31352  0.84229  0.73351  1.0000
  C   C594      1.0  0.31481  0.85584  0.71633  1.0000
  C   C595      1.0  0.30765  0.82637  0.72993  1.0000
  C   C596      1.0  0.33221  0.83665  0.73798  1.0000
  C   C597      1.0  0.30035  0.85107  0.74791  1.0000
  C   C598      1.0  0.32288  0.87239  0.71599  1.0000
  C   C599      1.0  0.28920  0.83043  0.72398  1.0000
  C   C600      1.0  0.33454  0.82191  0.75446  1.0000
  C   C601      1.0  0.29144  0.83851  0.76423  1.0000
  H   H985      1.0  0.32299  0.84938  0.70499  1.0000
  H   H986      1.0  0.30120  0.86134  0.71289  1.0000
  H   H987      1.0  0.30689  0.81534  0.74159  1.0000
  H   H988      1.0  0.31794  0.82024  0.71943  1.0000
  H   H989      1.0  0.34219  0.83197  0.72649  1.0000
  H   H990      1.0  0.33680  0.84826  0.74060  1.0000
  H   H991      1.0  0.30693  0.85979  0.75294  1.0000
  H   H992      1.0  0.28895  0.86032  0.74231  1.0000
  H   H993      1.0  0.32059  0.88245  0.70383  1.0000
  H   H994      1.0  0.31620  0.87906  0.72745  1.0000
  H   H995      1.0  0.33773  0.86893  0.71542  1.0000
  H   H996      1.0  0.27837  0.83793  0.73291  1.0000
  H   H997      1.0  0.28999  0.83800  0.71013  1.0000
  H   H998      1.0  0.28502  0.81759  0.72417  1.0000
  H   H999      1.0  0.34905  0.81875  0.75558  1.0000
  H   H1000     1.0  0.33092  0.80917  0.75360  1.0000
  H   H1001     1.0  0.32703  0.82669  0.76686  1.0000
  S   S178      1.0  0.31576  0.94555  0.77092  1.0000
  H   H1002     1.0  0.33586  0.93219  0.80158  1.0000
  H   H1003     1.0  0.29109  0.85951  0.56604  1.0000
  C   C602      1.0  0.33585  0.94640  0.79706  1.0000
  C   C603      1.0  0.28478  0.84751  0.54624  1.0000
  H   H1004     1.0  0.34892  0.89932  0.90941  1.0000
  S   S179      1.0  0.37068  0.95463  0.89046  1.0000
  H   H1005     1.0  0.35048  0.94857  0.81695  1.0000
  H   H1006     1.0  0.29230  0.95529  0.84078  1.0000
  S   S180      1.0  0.12779  0.76257  0.57900  1.0000
  C   C604      1.0  0.27911  0.83348  0.52349  1.0000
  H   H1007     1.0  0.29596  0.85244  0.53588  1.0000
  H   H1008     1.0  0.31233  0.96661  0.89813  1.0000
  H   H1009     1.0  0.48413  0.81123  0.71002  1.0000
  C   C605      1.0  0.32748  0.95556  0.78254  1.0000
  H   H1010     1.0  0.13787  0.79932  0.64267  1.0000
  H   H1011     1.0  0.24926  0.81689  0.53883  1.0000
  H   H1012     1.0  0.25287  0.83888  0.55547  1.0000
  H   H1013     1.0  0.35483  0.90595  0.87646  1.0000
  H   H1014     1.0  0.41279  0.79137  0.80360  1.0000
  H   H1015     1.0  0.41605  0.77603  0.86413  1.0000
  H   H1016     1.0  0.26788  0.94682  0.85859  1.0000
  C   C606      1.0  0.34445  0.95567  0.80564  1.0000
  H   H1017     1.0  0.27295  0.85867  0.54527  1.0000
  S   S181      1.0  0.45847  0.81071  0.80266  1.0000
  H   H1018     1.0  0.37258  0.86850  0.91872  1.0000
  C   C607      1.0  0.44293  0.90323  0.82539  1.0000
  C   C608      1.0  0.43357  0.79808  0.71106  1.0000
  C   C609      1.0  0.26357  0.84841  0.51773  1.0000
  H   H1019     1.0  0.25019  0.84643  0.52585  1.0000
  C   C610      1.0  0.48318  0.77748  0.71564  1.0000
  H   H1020     1.0  0.43385  0.81265  0.70838  1.0000
  H   H1021     1.0  0.40502  0.93506  0.81231  1.0000
  C   C611      1.0  0.42631  0.75828  0.82209  1.0000
  H   H1022     1.0  0.26378  0.96115  0.78063  1.0000
  H   H1023     1.0  0.31605  0.93029  0.83208  1.0000
  H   H1024     1.0  0.39532  0.84490  0.89629  1.0000
  C   C612      1.0  0.34512  0.97411  0.79953  1.0000
  H   H1025     1.0  0.37202  0.91167  0.89633  1.0000
  H   H1026     1.0  0.41871  0.84645  0.88949  1.0000
  C   C613      1.0  0.26037  0.93120  0.95822  1.0000
  C   C614      1.0  0.48845  0.79515  0.67768  1.0000
  C   C615      1.0  0.24700  0.94044  0.94845  1.0000
  S   S182      1.0  0.35604  0.98718  0.80879  1.0000
  C   C616      1.0  0.36820  0.90430  0.86759  1.0000
  H   H1027     1.0  0.39554  0.90761  0.88934  1.0000
  C   C617      1.0  0.24179  0.75176  0.50483  1.0000
  H   H1028     1.0  0.20544  0.78382  0.53481  1.0000
  C   C618      1.0  0.24521  0.82159  0.48503  1.0000
  H   H1029     1.0  0.38697  0.92743  0.75566  1.0000
  H   H1030     1.0  0.44716  0.76547  0.77468  1.0000
  H   H1031     1.0  0.29521  0.92245  0.83969  1.0000
  C   C619      1.0  0.21103  0.76773  0.51419  1.0000
  N   N44       1.0  0.27441  0.95580  0.82286  1.0000
  S   S183      1.0  0.40983  0.97943  0.86003  1.0000
  C   C620      1.0  0.26032  0.93913  0.85360  1.0000
  C   C621      1.0  0.38422  0.90143  0.89833  1.0000
  H   H1032     1.0  0.37407  0.91658  0.86570  1.0000
  H   H1033     1.0  0.12823  0.88019  0.52742  1.0000
  H   H1034     1.0  0.21221  0.87698  0.66864  1.0000
  H   H1035     1.0  0.19676  0.86944  0.69741  1.0000
  H   H1036     1.0  0.22480  0.88721  0.68919  1.0000
  N   N45       1.0  0.28600  0.97850  0.91131  1.0000
  H   H1037     1.0  0.33082  0.77583  0.63809  1.0000
  H   H1038     1.0  0.39468  0.88845  0.86498  1.0000
  H   H1039     1.0  0.19858  0.90676  0.71779  1.0000
  C   C622      1.0  0.43119  0.93013  0.84611  1.0000
  H   H1040     1.0  0.42647  0.94048  0.85416  1.0000
  H   H1041     1.0  0.38005  0.92009  0.82637  1.0000
  H   H1042     1.0  0.26478  0.92471  0.85898  1.0000
  S   S184      1.0  0.24383  0.77054  0.58445  1.0000
  H   H1043     1.0  0.28210  0.97515  0.87669  1.0000
  S   S185      1.0  0.38867  0.95977  0.83997  1.0000
  C   C623      1.0  0.18747  0.88275  0.69616  1.0000
  C   C624      1.0  0.21328  0.89827  0.69227  1.0000
  H   H1044     1.0  0.21846  0.91096  0.68601  1.0000
  H   H1045     1.0  0.22242  0.89974  0.71596  1.0000
  H   H1046     1.0  0.26395  0.97430  0.84129  1.0000
  C   C625      1.0  0.46966  0.81014  0.71176  1.0000
  N   N46       1.0  0.19751  0.89707  0.68450  1.0000
  C   C626      1.0  0.20507  0.89123  0.66674  1.0000
  C   C627      1.0  0.21022  0.89697  0.71258  1.0000
  H   H1047     1.0  0.19405  0.89173  0.65962  1.0000
  H   H1048     1.0  0.18272  0.88505  0.71001  1.0000
  H   H1049     1.0  0.22272  0.89665  0.64104  1.0000
  H   H1050     1.0  0.21226  0.91653  0.64979  1.0000
  H   H1051     1.0  0.16026  0.89288  0.68948  1.0000
  H   H1052     1.0  0.16442  0.86972  0.69971  1.0000
  Fe  Fe93      1.0  0.38303  0.97080  0.86506  1.0000
  H   H1053     1.0  0.40850  0.91058  0.78292  1.0000
  C   C628      1.0  0.38142  0.88728  0.87413  1.0000
  H   H1054     1.0  0.39238  0.97730  0.77941  1.0000
  C   C629      1.0  0.21850  0.90225  0.65352  1.0000
  C   C630      1.0  0.17068  0.88044  0.68998  1.0000
  H   H1055     1.0  0.48699  0.79852  0.66351  1.0000
  H   H1056     1.0  0.37257  0.92172  0.80632  1.0000
  H   H1057     1.0  0.42064  0.95632  0.76677  1.0000
  H   H1058     1.0  0.36810  0.86253  0.90026  1.0000
  H   H1059     1.0  0.24896  0.98570  0.92208  1.0000
  S   S186      1.0  0.41479  0.78247  0.76034  1.0000
  C   C631      1.0  0.38621  0.90027  0.91763  1.0000
  H   H1060     1.0  0.23106  0.90123  0.65853  1.0000
  H   H1061     1.0  0.20873  0.88315  0.71970  1.0000
  C   C632      1.0  0.23786  0.95771  0.95116  1.0000
  C   C633      1.0  0.38876  0.94520  0.77318  1.0000
  H   H1062     1.0  0.41277  0.74858  0.86253  1.0000
  H   H1063     1.0  0.36600  0.93592  0.76836  1.0000
  H   H1064     1.0  0.22711  0.96462  0.94402  1.0000
  H   H1065     1.0  0.39449  0.95267  0.75998  1.0000
  H   H1066     1.0  0.15389  0.89912  0.49485  1.0000
  H   H1067     1.0  0.16987  0.91269  0.70916  1.0000
  H   H1068     1.0  0.30231  0.98636  0.88541  1.0000
  N   N47       1.0  0.38360  0.88397  0.89328  1.0000
  C   C634      1.0  0.34966  0.88527  0.90828  1.0000
  H   H1069     1.0  0.37704  0.87565  0.87134  1.0000
  H   H1070     1.0  0.38502  0.91413  0.91997  1.0000
  H   H1071     1.0  0.19344  0.92547  0.67340  1.0000
  H   H1072     1.0  0.17580  0.91522  0.67256  1.0000
  H   H1073     1.0  0.28310  0.94192  0.80050  1.0000
  C   C635      1.0  0.44421  0.77955  0.77553  1.0000
  C   C636      1.0  0.45427  0.78610  0.78463  1.0000
  H   H1074     1.0  0.16167  0.93171  0.69438  1.0000
  H   H1075     1.0  0.32856  0.95667  0.85211  1.0000
  C   C637      1.0  0.26498  0.97400  0.82701  1.0000
  H   H1076     1.0  0.24905  0.94598  0.82986  1.0000
  C   C638      1.0  0.17438  0.92293  0.69774  1.0000
  C   C639      1.0  0.41893  0.78531  0.83531  1.0000
  S   S187      1.0  0.22977  0.98678  0.96769  1.0000
  H   H1077     1.0  0.45971  0.80303  0.68380  1.0000
  H   H1078     1.0  0.27822  0.75437  0.62649  1.0000
  H   H1079     1.0  0.46424  0.82098  0.70137  1.0000
  H   H1080     1.0  0.41362  0.98150  0.78142  1.0000
  C   C640      1.0  0.44441  0.92113  0.81764  1.0000
  H   H1081     1.0  0.18216  0.93115  0.70193  1.0000
  Fe  Fe94      1.0  0.41348  0.97200  0.83328  1.0000
  H   H1082     1.0  0.26657  0.96063  0.91607  1.0000
  C   C641      1.0  0.45999  0.97746  0.84422  1.0000
  H   H1083     1.0  0.41874  0.92923  0.75145  1.0000
  H   H1084     1.0  0.25299  0.97544  0.79629  1.0000
  H   H1085     1.0  0.12757  0.91552  0.52579  1.0000
  C   C642      1.0  0.30750  0.76750  0.63230  1.0000
  H   H1086     1.0  0.37339  0.78958  0.82233  1.0000
  H   H1087     1.0  0.43398  0.78805  0.85430  1.0000
  H   H1088     1.0  0.41296  0.87883  0.88747  1.0000
  C   C643      1.0  0.43834  0.93459  0.82800  1.0000
  C   C644      1.0  0.40162  0.87177  0.89483  1.0000
  C   C645      1.0  0.40427  0.97170  0.78591  1.0000
  H   H1089     1.0  0.30223  0.95955  0.81820  1.0000
  H   H1090     1.0  0.43836  0.93020  0.76000  1.0000
  C   C646      1.0  0.45981  0.81582  0.72972  1.0000
  C   C647      1.0  0.33684  0.98295  0.78503  1.0000
  C   C648      1.0  0.42693  0.77789  0.85225  1.0000
  H   H1091     1.0  0.38087  0.91806  0.77890  1.0000
  S   S188      1.0  0.43841  0.95719  0.81829  1.0000
  H   H1092     1.0  0.21345  0.74237  0.58370  1.0000
  H   H1093     1.0  0.44987  0.96844  0.84883  1.0000
  C   C649      1.0  0.14018  0.90617  0.50031  1.0000
  H   H1094     1.0  0.42154  0.75179  0.79793  1.0000
  H   H1095     1.0  0.25013  0.95215  0.80073  1.0000
  H   H1096     1.0  0.35398  0.96558  0.85963  1.0000
  C   C650      1.0  0.40480  0.85378  0.88825  1.0000
  H   H1097     1.0  0.40353  0.86808  0.90887  1.0000
  Fe  Fe95      1.0  0.26524  0.75660  0.56513  1.0000
  C   C651      1.0  0.42707  0.92290  0.76173  1.0000
  C   C652      1.0  0.10239  0.92508  0.50074  1.0000
  C   C653      1.0  0.28707  0.74377  0.61946  1.0000
  H   H1098     1.0  0.43716  0.76543  0.85133  1.0000
  C   C654      1.0  0.38049  0.93058  0.76903  1.0000
  H   H1099     1.0  0.20380  0.75784  0.48640  1.0000
  H   H1100     1.0  0.10238  0.93241  0.51137  1.0000
  H   H1101     1.0  0.26584  0.86193  0.51808  1.0000
  C   C655      1.0  0.29284  0.95141  0.82787  1.0000
  H   H1102     1.0  0.40410  0.85575  0.87402  1.0000
  C   C656      1.0  0.41437  0.95338  0.78109  1.0000
  H   H1103     1.0  0.46350  0.82864  0.73042  1.0000
  H   H1104     1.0  0.37738  0.95499  0.77913  1.0000
  H   H1105     1.0  0.42586  0.94878  0.78840  1.0000
  H   H1106     1.0  0.42533  0.91734  0.79016  1.0000
  H   H1107     1.0  0.27550  0.93243  0.97761  1.0000
  H   H1108     1.0  0.42978  0.79074  0.82481  1.0000
  C   C657      1.0  0.27792  0.96516  0.90568  1.0000
  H   H1109     1.0  0.21195  0.75088  0.60310  1.0000
  C   C658      1.0  0.30406  0.98005  0.89924  1.0000
  H   H1110     1.0  0.38636  0.76150  0.83623  1.0000
  C   C659      1.0  0.30667  0.74713  0.61303  1.0000
  C   C660      1.0  0.34107  0.76229  0.60328  1.0000
  H   H1111     1.0  0.19760  0.77336  0.51044  1.0000
  H   H1112     1.0  0.10406  0.90244  0.52203  1.0000
  H   H1113     1.0  0.27456  0.97043  0.93899  1.0000
  S   S189      1.0  0.45483  0.74302  0.74836  1.0000
  H   H1114     1.0  0.20325  0.79695  0.48823  1.0000
  H   H1115     1.0  0.40803  0.74173  0.81812  1.0000
  N   N48       1.0  0.31587  0.74942  0.62714  1.0000
  H   H1116     1.0  0.48996  0.78656  0.73743  1.0000
  H   H1117     1.0  0.20869  0.75598  0.52501  1.0000
  H   H1118     1.0  0.49337  0.80635  0.68055  1.0000
  C   C661      1.0  0.13025  0.87780  0.51359  1.0000
  H   H1119     1.0  0.33623  0.77622  0.60578  1.0000
  H   H1120     1.0  0.31711  0.76442  0.65747  1.0000
  H   H1121     1.0  0.43267  0.74974  0.83315  1.0000
  H   H1122     1.0  0.35607  0.76028  0.59951  1.0000
  C   C662      1.0  0.21660  0.75024  0.49064  1.0000
  H   H1123     1.0  0.39031  0.74461  0.86601  1.0000
  H   H1124     1.0  0.11782  0.88259  0.48282  1.0000
  N   N49       1.0  0.22465  0.76186  0.49853  1.0000
  H   H1125     1.0  0.22358  0.74539  0.62623  1.0000
  H   H1126     1.0  0.38997  0.74507  0.68348  1.0000
  S   S190      1.0  0.17010  0.74776  0.58470  1.0000
  C   C663      1.0  0.33585  0.74814  0.61983  1.0000
  H   H1127     1.0  0.23884  0.74224  0.51754  1.0000
  Fe  Fe96      1.0  0.94287  0.13417  0.30797  1.0000
  S   S191      1.0  0.91917  0.12970  0.33005  1.0000
  S   S192      1.0  0.95856  0.15611  0.30459  1.0000
  S   S193      1.0  0.91469  0.09831  0.31012  1.0000
  Fe  Fe97      1.0  0.90581  0.12810  0.30809  1.0000
  S   S194      1.0  0.87678  0.14084  0.30765  1.0000
  Fe  Fe98      1.0  0.93031  0.10042  0.33005  1.0000
  S   S195      1.0  0.93115  0.07836  0.35390  1.0000
  S   S196      1.0  0.92866  0.13475  0.28594  1.0000
  Fe  Fe99      1.0  0.88116  0.19102  0.18127  1.0000
  S   S197      1.0  0.86740  0.16791  0.18316  1.0000
  S   S198      1.0  0.90841  0.19534  0.16537  1.0000
  Fe  Fe100     1.0  0.84288  0.18914  0.17954  1.0000
  Fe  Fe101     1.0  0.85883  0.16986  0.21203  1.0000
  S   S199      1.0  0.85814  0.14481  0.23269  1.0000
  S   S200      1.0  0.87474  0.19112  0.21056  1.0000
  C   C664      1.0  0.73434  0.20094  0.06684  1.0000
  C   C665      1.0  0.95553  0.16009  0.16142  1.0000
  C   C666      1.0  0.79040  0.21915  0.18867  1.0000
  H   H1128     1.0  0.62574  0.15305  0.06253  1.0000
  H   H1129     1.0  0.72363  0.23138  0.15418  1.0000
  H   H1130     1.0  0.84734  0.22986  0.11202  1.0000
  C   C667      1.0  0.75844  0.21686  0.01651  1.0000
  H   H1131     1.0  0.96081  0.21637  0.16063  1.0000
  Fe  Fe102     1.0  0.80825  0.22727  0.07245  1.0000
  H   H1132     1.0  0.89934  0.18838  0.26127  1.0000
  C   C668      1.0  0.91864  0.15881  0.16819  1.0000
  H   H1133     1.0  0.85078  0.18046  0.26753  1.0000
  C   C669      1.0  0.96951  0.09903  0.25548  1.0000
  H   H1134     1.0  0.65597  0.14973  0.06316  1.0000
  H   H1135     1.0  0.65634  0.12806  0.08774  1.0000
  S   S201      1.0  0.60277  0.22843  0.06867  1.0000
  H   H1136     1.0  0.89238  0.06033  0.39424  1.0000
  S   S202      1.0  0.68343  0.19079  0.07665  1.0000
  H   H1137     1.0  0.91839  0.21663  0.18758  1.0000
  H   H1138     1.0  0.89935  0.19385  0.30020  1.0000
  S   S203      1.0  0.82337  0.18683  0.16335  1.0000
  H   H1139     1.0  0.99085  0.21631  0.25624  1.0000
  Fe  Fe103     1.0  0.55982  0.17379  0.01362  1.0000
  S   S204      1.0  0.53477  0.19487  0.01692  1.0000
  S   S205      1.0  0.58570  0.17831  0.02124  1.0000
  C   C670      1.0  0.99365  0.10117  0.22964  1.0000
  H   H1140     1.0  0.93459  0.10393  0.19571  1.0000
  H   H1141     1.0  0.50773  0.07915  0.02078  1.0000
  C   C671      1.0  0.96910  0.23637  0.13848  1.0000
  S   S206      1.0  0.54423  0.15059  0.02207  1.0000
  C   C672      1.0  0.91379  0.19336  0.29716  1.0000
  H   H1142     1.0  0.82780  0.19165  0.26674  1.0000
  H   H1143     1.0  0.66771  0.17268  0.04129  1.0000
  H   H1144     1.0  0.84358  0.18619  0.24707  1.0000
  H   H1145     1.0  0.88378  0.19419  0.24636  1.0000
  C   C673      1.0  0.95117  0.19194  0.29067  1.0000
  C   C674      1.0  0.92425  0.17537  0.16489  1.0000
  H   H1146     1.0  0.64370  0.17864  0.04296  1.0000
  H   H1147     1.0  0.86207  0.14290  0.13869  1.0000
  H   H1148     1.0  0.87835  0.13332  0.34566  1.0000
  H   H1149     1.0  0.89387  0.21122  0.25115  1.0000
  H   H1150     1.0  0.96760  0.20860  0.21009  1.0000
  C   C675      1.0  0.84201  0.21578  0.28631  1.0000
  S   S207      1.0  0.96565  0.12352  0.16729  1.0000
  C   C676      1.0  0.59821  0.21500  0.05484  1.0000
  C   C677      1.0  0.61109  0.20902  0.04061  1.0000
  C   C678      1.0  0.60696  0.19802  0.03045  1.0000
  C   C679      1.0  0.58982  0.19298  0.03408  1.0000
  C   C680      1.0  0.57688  0.19919  0.04812  1.0000
  C   C681      1.0  0.58105  0.21006  0.05837  1.0000
  H   H1151     1.0  0.62432  0.21269  0.03755  1.0000
  H   H1152     1.0  0.61718  0.19329  0.01973  1.0000
  H   H1153     1.0  0.56370  0.19536  0.05133  1.0000
  H   H1154     1.0  0.57090  0.21453  0.06928  1.0000
  S   S208      1.0  0.83297  0.18911  0.20864  1.0000
  H   H1155     1.0  0.87082  0.07143  0.40540  1.0000
  H   H1156     1.0  0.85133  0.10317  0.38384  1.0000
  S   S209      1.0  0.64396  0.22471  0.09422  1.0000
  C   C682      1.0  0.71548  0.17385  0.08643  1.0000
  H   H1157     1.0  0.92517  0.15229  0.13141  1.0000
  H   H1158     1.0  0.86548  0.07513  0.34194  1.0000
  H   H1159     1.0  0.91964  0.16545  0.30907  1.0000
  C   C683      1.0  0.98548  0.06941  0.35002  1.0000
  H   H1160     1.0  0.70824  0.16329  0.09399  1.0000
  Fe  Fe104     1.0  0.54151  0.15354  0.99329  1.0000
  H   H1161     1.0  0.94196  0.20575  0.18461  1.0000
  H   H1162     1.0  0.94713  0.18881  0.15835  1.0000
  C   C684      1.0  0.94271  0.17603  0.16114  1.0000
  C   C685      1.0  0.69760  0.22640  0.12573  1.0000
  H   H1163     1.0  0.97646  0.19444  0.25735  1.0000
  H   H1164     1.0  0.96265  0.17594  0.24065  1.0000
  C   C686      1.0  0.84756  0.20960  0.25560  1.0000
  S   S210      1.0  0.55994  0.17427  0.98456  1.0000
  Fe  Fe105     1.0  0.93898  0.10503  0.29015  1.0000
  H   H1165     1.0  0.88327  0.05601  0.34229  1.0000
  H   H1166     1.0  0.82974  0.10413  0.36794  1.0000
  H   H1167     1.0  0.90446  0.15820  0.17090  1.0000
  H   H1168     1.0  0.88877  0.07764  0.33335  1.0000
  H   H1169     1.0  0.84751  0.10276  0.34954  1.0000
  S   S211      1.0  0.80338  0.21254  0.05292  1.0000
  H   H1170     1.0  0.83932  0.08256  0.36171  1.0000
  H   H1171     1.0  0.88202  0.12543  0.36778  1.0000
  C   C687      1.0  0.95371  0.06773  0.35437  1.0000
  C   C688      1.0  0.95812  0.04895  0.35845  1.0000
  H   H1172     1.0  0.98306  0.22846  0.13589  1.0000
  C   C689      1.0  0.83909  0.21957  0.11689  1.0000
  C   C690      1.0  0.98583  0.20051  0.18671  1.0000
  H   H1173     1.0  0.69284  0.22343  0.14039  1.0000
  H   H1174     1.0  0.94757  0.04100  0.36161  1.0000
  H   H1175     1.0  0.96976  0.16066  0.15887  1.0000
  H   H1176     1.0  0.75113  0.19126  0.13906  1.0000
  H   H1177     1.0  0.96405  0.09246  0.34726  1.0000
  C   C691      1.0  0.87156  0.14276  0.28667  1.0000
  C   C692      1.0  0.88158  0.15160  0.27129  1.0000
  C   C693      1.0  0.87691  0.15325  0.25464  1.0000
  C   C694      1.0  0.86282  0.14525  0.25334  1.0000
  C   C695      1.0  0.85300  0.13630  0.26871  1.0000
  C   C696      1.0  0.85708  0.13542  0.28536  1.0000
  H   H1178     1.0  0.89281  0.15725  0.27231  1.0000
  H   H1179     1.0  0.88455  0.16015  0.24278  1.0000
  H   H1180     1.0  0.84217  0.13003  0.26773  1.0000
  H   H1181     1.0  0.84932  0.12858  0.29720  1.0000
  C   C697      1.0  0.94403  0.17650  0.29908  1.0000
  H   H1182     1.0  0.97964  0.02589  0.36035  1.0000
  H   H1183     1.0  0.61425  0.20224  0.10126  1.0000
  S   S212      1.0  0.95541  0.10498  0.31015  1.0000
  C   C698      1.0  0.93974  0.20777  0.28456  1.0000
  C   C699      1.0  0.65482  0.17706  0.05025  1.0000
  C   C700      1.0  0.63164  0.18370  0.08489  1.0000
  H   H1184     1.0  0.64334  0.18540  0.09005  1.0000
  N   N50       1.0  0.88844  0.16822  0.12260  1.0000
  C   C701      1.0  0.57802  0.21840  0.99158  1.0000
  C   C702      1.0  0.86853  0.17010  0.13064  1.0000
  C   C703      1.0  0.89626  0.18147  0.12862  1.0000
  C   C704      1.0  0.89206  0.17064  0.10254  1.0000
  H   H1185     1.0  0.70904  0.21415  0.05860  1.0000
  C   C705      1.0  0.85909  0.15528  0.12875  1.0000
  H   H1186     1.0  0.80920  0.18294  0.13428  1.0000
  C   C706      1.0  0.87777  0.18393  0.09272  1.0000
  H   H1187     1.0  0.89447  0.20948  0.12957  1.0000
  C   C707      1.0  0.79323  0.23953  0.14431  1.0000
  H   H1188     1.0  0.90006  0.23734  0.16008  1.0000
  H   H1189     1.0  0.94547  0.21942  0.27762  1.0000
  H   H1190     1.0  0.85240  0.19284  0.30592  1.0000
  H   H1191     1.0  0.91113  0.17994  0.12381  1.0000
  H   H1192     1.0  0.90532  0.17501  0.09678  1.0000
  H   H1193     1.0  0.89341  0.15761  0.09819  1.0000
  H   H1194     1.0  0.92306  0.14855  0.11006  1.0000
  H   H1195     1.0  0.77846  0.22378  0.19855  1.0000
  C   C708      1.0  0.64183  0.13153  0.09385  1.0000
  S   S213      1.0  0.99058  0.14912  0.18829  1.0000
  H   H1196     1.0  0.86296  0.15196  0.11522  1.0000
  H   H1197     1.0  0.92717  0.13010  0.17038  1.0000
  C   C709      1.0  0.88896  0.20152  0.12265  1.0000
  H   H1198     1.0  0.86088  0.18306  0.12487  1.0000
  C   C710      1.0  0.80384  0.23235  0.18306  1.0000
  H   H1199     1.0  0.86504  0.17869  0.09497  1.0000
  H   H1200     1.0  0.88311  0.18577  0.07817  1.0000
  H   H1201     1.0  0.87438  0.19743  0.09630  1.0000
  H   H1202     1.0  0.89168  0.07506  0.40883  1.0000
  H   H1203     1.0  0.96554  0.19154  0.28860  1.0000
  C   C711      1.0  0.92531  0.17725  0.30238  1.0000
  H   H1204     1.0  0.60202  0.19029  0.09296  1.0000
  H   H1205     1.0  0.82875  0.20129  0.31114  1.0000
  C   C712      1.0  0.74692  0.20420  0.13031  1.0000
  H   H1206     1.0  0.67494  0.21569  0.12280  1.0000
  H   H1207     1.0  0.86989  0.18761  0.27920  1.0000
  Fe  Fe106     1.0  0.51941  0.17223  0.02326  1.0000
  H   H1208     1.0  0.85217  0.08014  0.38612  1.0000
  H   H1209     1.0  0.87817  0.20551  0.28289  1.0000
  H   H1210     1.0  0.87409  0.20499  0.12626  1.0000
  H   H1211     1.0  0.85995  0.12687  0.36242  1.0000
  N   N51       1.0  0.92476  0.12054  0.22515  1.0000
  C   C713      1.0  0.91953  0.12333  0.24418  1.0000
  C   C714      1.0  0.93948  0.13130  0.21604  1.0000
  C   C715      1.0  0.93271  0.10099  0.22478  1.0000
  C   C716      1.0  0.90878  0.12729  0.21580  1.0000
  C   C717      1.0  0.90656  0.11165  0.25698  1.0000
  C   C718      1.0  0.93450  0.15168  0.21622  1.0000
  H   H1212     1.0  0.95607  0.09961  0.20275  1.0000
  C   C719      1.0  0.89689  0.11365  0.21602  1.0000
  H   H1213     1.0  0.93183  0.12108  0.25005  1.0000
  H   H1214     1.0  0.91299  0.13748  0.24494  1.0000
  H   H1215     1.0  0.94376  0.13013  0.20181  1.0000
  H   H1216     1.0  0.95190  0.12590  0.22194  1.0000
  H   H1217     1.0  0.94288  0.09610  0.23351  1.0000
  H   H1218     1.0  0.92238  0.09231  0.23039  1.0000
  H   H1219     1.0  0.89961  0.13889  0.22121  1.0000
  H   H1220     1.0  0.91329  0.13271  0.20153  1.0000
  H   H1221     1.0  0.90483  0.11446  0.27058  1.0000
  H   H1222     1.0  0.89289  0.11516  0.25367  1.0000
  H   H1223     1.0  0.91193  0.09705  0.25790  1.0000
  H   H1224     1.0  0.93373  0.15452  0.22961  1.0000
  H   H1225     1.0  0.94534  0.15835  0.20706  1.0000
  H   H1226     1.0  0.92167  0.15793  0.21145  1.0000
  N   N52       1.0  0.71792  0.22493  0.12120  1.0000
  H   H1227     1.0  0.76155  0.22090  0.02794  1.0000
  S   S214      1.0  0.83379  0.22478  0.08267  1.0000
  H   H1228     1.0  0.90417  0.10335  0.20788  1.0000
  H   H1229     1.0  0.88499  0.12091  0.20999  1.0000
  H   H1230     1.0  0.89158  0.10692  0.22956  1.0000
  N   N53       1.0  0.87562  0.08934  0.36855  1.0000
  C   C720      1.0  0.88530  0.08930  0.38324  1.0000
  C   C721      1.0  0.88076  0.10433  0.35355  1.0000
  C   C722      1.0  0.88217  0.07140  0.36255  1.0000
  C   C723      1.0  0.85557  0.09207  0.37606  1.0000
  C   C724      1.0  0.88480  0.07300  0.39868  1.0000
  C   C725      1.0  0.87479  0.12344  0.35792  1.0000
  C   C726      1.0  0.87954  0.07029  0.34400  1.0000
  C   C727      1.0  0.84258  0.09541  0.36291  1.0000
  H   H1231     1.0  0.89985  0.08997  0.37786  1.0000
  H   H1232     1.0  0.87969  0.10144  0.38944  1.0000
  H   H1233     1.0  0.87540  0.10466  0.34154  1.0000
  H   H1234     1.0  0.89572  0.10206  0.34894  1.0000
  H   H1235     1.0  0.89700  0.06698  0.36225  1.0000
  H   H1236     1.0  0.87568  0.06075  0.37221  1.0000
  H   H1237     1.0  0.94359  0.08189  0.20667  1.0000
  C   C728      1.0  0.87261  0.20125  0.27296  1.0000
  C   C729      1.0  0.88808  0.19885  0.25680  1.0000
  H   H1238     1.0  0.61371  0.17951  0.11145  1.0000
  C   C730      1.0  0.97542  0.11175  0.26175  1.0000
  H   H1239     1.0  0.79526  0.22497  0.14971  1.0000
  H   H1240     1.0  0.92311  0.22802  0.31560  1.0000
  C   C731      1.0  0.92102  0.20853  0.28781  1.0000
  C   C732      1.0  0.84009  0.19826  0.29999  1.0000
  H   H1241     1.0  0.83686  0.18771  0.29451  1.0000
  H   H1242     1.0  0.59105  0.16615  0.07683  1.0000
  N   N54       1.0  0.85568  0.21437  0.26924  1.0000
  Fe  Fe107     1.0  0.84956  0.21036  0.20447  1.0000
  C   C733      1.0  0.81745  0.19325  0.12950  1.0000
  S   S215      1.0  0.90658  0.22835  0.28030  1.0000
  C   C734      1.0  0.93149  0.14291  0.16787  1.0000
  H   H1243     1.0  0.85648  0.21113  0.24228  1.0000
  C   C735      1.0  0.84211  0.19098  0.25972  1.0000
  H   H1244     1.0  0.94506  0.23116  0.31627  1.0000
  C   C736      1.0  0.94990  0.14352  0.16498  1.0000
  H   H1245     1.0  0.89257  0.13912  0.12594  1.0000
  C   C737      1.0  0.97628  0.04038  0.35781  1.0000
  H   H1246     1.0  0.92318  0.13070  0.12894  1.0000
  C   C738      1.0  0.74312  0.18618  0.07752  1.0000
  C   C739      1.0  0.93187  0.23826  0.31264  1.0000
  N   N55       1.0  0.63496  0.16526  0.08021  1.0000
  C   C740      1.0  0.73372  0.17250  0.08708  1.0000
  H   H1247     1.0  0.73037  0.21550  0.02733  1.0000
  H   H1248     1.0  0.74050  0.16096  0.09520  1.0000
  C   C741      1.0  0.70647  0.18903  0.07646  1.0000
  H   H1249     1.0  0.99576  0.12787  0.25758  1.0000
  H   H1250     1.0  0.64741  0.15345  0.10316  1.0000
  H   H1251     1.0  0.92993  0.22299  0.15600  1.0000
  H   H1252     1.0  0.83498  0.21935  0.25338  1.0000
  S   S216      1.0  0.85741  0.21209  0.17502  1.0000
  S   S217      1.0  0.51624  0.17419  0.99524  1.0000
  C   C742      1.0  0.68980  0.21398  0.11779  1.0000
  H   H1253     1.0  0.89419  0.14709  0.14497  1.0000
  H   H1254     1.0  0.71994  0.20629  0.14612  1.0000
  H   H1255     1.0  0.87547  0.22485  0.21645  1.0000
  C   C743      1.0  0.98998  0.05061  0.35358  1.0000
  C   C744      1.0  0.99091  0.11852  0.25242  1.0000
  H   H1256     1.0  0.98075  0.15856  0.24533  1.0000
  H   H1257     1.0  0.61062  0.23024  0.98032  1.0000
  C   C745      1.0  0.62041  0.16346  0.07109  1.0000
  S   S218      1.0  0.76545  0.18484  0.07997  1.0000
  H   H1258     1.0  0.84306  0.21529  0.14388  1.0000
  C   C746      1.0  0.81995  0.20138  0.11152  1.0000
  H   H1259     1.0  0.63976  0.12241  0.10696  1.0000
  C   C747      1.0  0.83072  0.21457  0.10518  1.0000
  H   H1260     1.0  0.60233  0.14401  0.08358  1.0000
  H   H1261     1.0  0.84418  0.15991  0.13153  1.0000
  C   C748      1.0  0.89756  0.14961  0.13013  1.0000
  Fe  Fe108     1.0  0.66819  0.21914  0.07294  1.0000
  H   H1262     1.0  0.69561  0.19960  0.12171  1.0000
  Fe  Fe109     1.0  0.53434  0.19443  0.98872  1.0000
  C   C749      1.0  0.82595  0.19807  0.14118  1.0000
  N   N56       1.0  0.57144  0.23812  0.99210  1.0000
  C   C750      1.0  0.60268  0.15835  0.08306  1.0000
  H   H1263     1.0  0.66424  0.16289  0.07424  1.0000
  C   C751      1.0  0.83662  0.21138  0.13492  1.0000
  H   H1264     1.0  0.59980  0.16110  0.09671  1.0000
  H   H1265     1.0  0.89414  0.17890  0.14340  1.0000
  C   C752      1.0  0.91840  0.14533  0.12465  1.0000
  H   H1266     1.0  0.96537  0.16804  0.26332  1.0000
  C   C753      1.0  0.98905  0.22404  0.20105  1.0000
  C   C754      1.0  0.61437  0.18879  0.09849  1.0000
  H   H1267     1.0  0.63332  0.12864  0.08562  1.0000
  H   H1268     1.0  0.50237  0.09279  0.98901  1.0000
  C   C755      1.0  0.71591  0.20255  0.06654  1.0000
  H   H1269     1.0  0.74167  0.21116  0.05901  1.0000
  H   H1270     1.0  0.97867  0.19022  0.18617  1.0000
  Fe  Fe110     1.0  0.99142  0.13028  0.17012  1.0000
  H   H1271     1.0  0.76750  0.22196  0.00414  1.0000
  H   H1272     1.0  0.65575  0.19024  0.05286  1.0000
  H   H1273     1.0  0.73993  0.22442  0.09847  1.0000
  H   H1274     1.0  0.70781  0.22380  0.00095  1.0000
  C   C756      1.0  0.96086  0.23104  0.15831  1.0000
  H   H1275     1.0  0.62440  0.15212  0.10704  1.0000
  C   C757      1.0  0.86103  0.23257  0.26191  1.0000
  C   C758      1.0  0.63685  0.15121  0.09672  1.0000
  C   C759      1.0  0.65296  0.16293  0.06753  1.0000
  C   C760      1.0  0.97948  0.21101  0.20014  1.0000
  H   H1276     1.0  0.81380  0.19714  0.10248  1.0000
  Fe  Fe111     1.0  0.77677  0.21034  0.07150  1.0000
  H   H1277     1.0  0.61656  0.17614  0.06188  1.0000
  H   H1278     1.0  0.84541  0.22488  0.29372  1.0000
  H   H1279     1.0  0.63055  0.19437  0.07291  1.0000
  H   H1280     1.0  0.86617  0.17040  0.14510  1.0000
  H   H1281     1.0  0.81680  0.22506  0.17628  1.0000
  H   H1282     1.0  0.72334  0.19585  0.12753  1.0000
  H   H1283     1.0  0.80689  0.23408  0.19570  1.0000
  C   C761      1.0  0.72620  0.20752  0.13175  1.0000
  S   S219      1.0  0.65351  0.22965  0.05024  1.0000
  Fe  Fe112     1.0  0.78860  0.23948  0.04130  1.0000
  C   C762      1.0  0.97280  0.17114  0.24944  1.0000
  H   H1284     1.0  0.56776  0.21044  0.99982  1.0000
  C   C763      1.0  0.87270  0.23926  0.21279  1.0000
  C   C764      1.0  0.73823  0.22275  0.01516  1.0000
  C   C765      1.0  0.94217  0.09652  0.20633  1.0000
  S   S220      1.0  0.95077  0.08988  0.26784  1.0000
  H   H1285     1.0  0.82828  0.22199  0.28340  1.0000
  S   S221      1.0  0.78287  0.22272  0.09207  1.0000
  S   S222      1.0  0.76176  0.23612  0.05848  1.0000
  C   C766      1.0  0.72506  0.22474  0.10174  1.0000
  H   H1286     1.0  0.96830  0.11623  0.27392  1.0000
  H   H1287     1.0  0.78577  0.21653  0.17739  1.0000
  H   H1288     1.0  0.93052  0.21239  0.20524  1.0000
  H   H1289     1.0  0.97783  0.07260  0.29081  1.0000
  Fe  Fe113     1.0  0.62927  0.23619  0.07114  1.0000
  H   H1290     1.0  0.75423  0.20274  0.11665  1.0000
  H   H1291     1.0  0.75145  0.21470  0.13481  1.0000
  C   C767      1.0  0.93180  0.21635  0.19059  1.0000
  H   H1292     1.0  0.55397  0.23615  0.03782  1.0000
  H   H1293     1.0  0.89370  0.20594  0.10822  1.0000
  H   H1294     1.0  0.96993  0.05841  0.31033  1.0000
  C   C768      1.0  0.92906  0.23766  0.15512  1.0000
  H   H1295     1.0  0.72362  0.21212  0.09823  1.0000
  C   C769      1.0  0.50365  0.09369  0.01578  1.0000
  H   H1296     1.0  0.98242  0.19518  0.23457  1.0000
  H   H1297     1.0  0.97429  0.08364  0.23464  1.0000
  C   C770      1.0  0.97869  0.09362  0.23947  1.0000
  C   C771      1.0  0.96741  0.07795  0.35019  1.0000
  H   H1298     1.0  0.79724  0.20598  0.19520  1.0000
  C   C772      1.0  0.98392  0.18598  0.24737  1.0000
  H   H1299     1.0  0.94881  0.23454  0.19107  1.0000
  H   H1300     1.0  0.98979  0.15078  0.27422  1.0000
  H   H1301     1.0  0.73672  0.21709  0.00389  1.0000
  H   H1302     1.0  0.76194  0.20194  0.01867  1.0000
  H   H1303     1.0  0.55294  0.22035  0.02491  1.0000
  H   H1304     1.0  0.50854  0.06251  0.99556  1.0000
  H   H1305     1.0  0.59028  0.21313  0.99764  1.0000
  H   H1306     1.0  0.87012  0.23270  0.24872  1.0000
  H   H1307     1.0  0.99657  0.06214  0.26458  1.0000
  H   H1308     1.0  0.96149  0.23296  0.12971  1.0000
  C   C773      1.0  0.55314  0.23468  0.02431  1.0000
  H   H1309     1.0  0.97072  0.23234  0.16605  1.0000
  C   C774      1.0  0.93734  0.23502  0.18454  1.0000
  H   H1310     1.0  0.58178  0.23328  0.01655  1.0000
  H   H1311     1.0  0.51632  0.09927  0.01046  1.0000
  C   C775      1.0  0.98103  0.05892  0.29845  1.0000
  H   H1312     1.0  0.86894  0.23577  0.27065  1.0000
  H   H1313     1.0  0.54380  0.23500  0.99341  1.0000
  S   S223      1.0  0.83784  0.23621  0.21436  1.0000
  H   H1314     1.0  0.98026  0.04891  0.29067  1.0000
  H   H1315     1.0  0.69177  0.21755  0.10310  1.0000
  H   H1316     1.0  0.99316  0.08864  0.31229  1.0000
  S   S224      1.0  0.93010  0.23828  0.23022  1.0000
  S   S225      1.0  0.98386  0.23508  0.21929  1.0000
  H   H1317     1.0  0.71595  0.23635  0.07661  1.0000
  H   H1318     1.0  0.73223  0.23956  0.04050  1.0000
  H   H1319     1.0  0.70421  0.23853  0.02680  1.0000
  H   H1320     1.0  0.49900  0.14696  0.02144  1.0000
  C   C776      1.0  0.70506  0.23868  0.99910  1.0000
  H   H1321     1.0  0.99603  0.07737  0.34677  1.0000
  H   H1322     1.0  0.99594  0.18104  0.27712  1.0000
  H   H1323     1.0  0.99668  0.05843  0.31795  1.0000
  S   S226      1.0  0.54223  0.12972  0.97974  1.0000
  H   H1324     1.0  0.99802  0.17429  0.21565  1.0000
  H   H1325     1.0  0.69059  0.24038  0.12172  1.0000
  H   H1326     1.0  0.53403  0.14793  0.89168  1.0000
  H   H1327     1.0  0.52116  0.15047  0.93154  1.0000
  H   H1328     1.0  0.52370  0.16755  0.90048  1.0000
  H   H1329     1.0  0.52488  0.18204  0.93060  1.0000
  H   H1330     1.0  0.54369  0.14754  0.91926  1.0000
  C   C777      1.0  0.52687  0.19899  0.94804  1.0000
  C   C778      1.0  0.52793  0.09470  0.95615  1.0000
  C   C779      1.0  0.51114  0.22742  0.92430  1.0000
  C   C780      1.0  0.51423  0.20981  0.92123  1.0000
  C   C781      1.0  0.52923  0.12020  0.96912  1.0000
  H   H1331     1.0  0.51649  0.10381  0.90053  1.0000
  C   C782      1.0  0.52235  0.19564  0.93297  1.0000
  C   C783      1.0  0.51586  0.23081  0.93926  1.0000
  H   H1332     1.0  0.53439  0.08169  0.95278  1.0000
  C   C784      1.0  0.53004  0.14455  0.92028  1.0000
  C   C785      1.0  0.52347  0.15294  0.90260  1.0000
  C   C786      1.0  0.58248  0.21307  0.97306  1.0000
  C   C787      1.0  0.52355  0.21657  0.95122  1.0000
  H   H1333     1.0  0.53136  0.12972  0.92338  1.0000
  C   C788      1.0  0.51186  0.12823  0.96540  1.0000
  H   H1334     1.0  0.59279  0.22008  0.96357  1.0000
  H   H1335     1.0  0.53299  0.18795  0.95714  1.0000
  H   H1336     1.0  0.57017  0.21509  0.96732  1.0000
  H   H1337     1.0  0.53246  0.11821  0.89692  1.0000
  H   H1338     1.0  0.55033  0.09698  0.96699  1.0000
  H   H1339     1.0  0.51216  0.18264  0.87652  1.0000
  C   C789      1.0  0.53703  0.10342  0.96430  1.0000
  C   C790      1.0  0.51862  0.11789  0.89544  1.0000
  C   C791      1.0  0.51072  0.10247  0.95233  1.0000
  H   H1340     1.0  0.51763  0.12099  0.88119  1.0000
  N   N57       1.0  0.50508  0.15002  0.90165  1.0000
  H   H1341     1.0  0.58824  0.19847  0.97456  1.0000
  S   S227      1.0  0.52833  0.22071  0.97047  1.0000
  H   H1342     1.0  0.51340  0.15117  0.87320  1.0000
  C   C792      1.0  0.50391  0.13034  0.90626  1.0000
  C   C793      1.0  0.49973  0.17764  0.87675  1.0000
  S   S228      1.0  0.50755  0.20521  0.90312  1.0000
  C   C794      1.0  0.50197  0.15710  0.88290  1.0000
  H   H1343     1.0  0.50414  0.12505  0.92053  1.0000
  H   H1344     1.0  0.50555  0.14116  0.96903  1.0000
  H   H1345     1.0  0.50532  0.23845  0.91507  1.0000
  C   C795      1.0  0.50268  0.11944  0.95697  1.0000
  H   H1346     1.0  0.50130  0.01643  0.81192  1.0000
  S   S229      1.0  0.50018  0.08952  0.94263  1.0000
  Fe  Fe114     1.0  0.91908  0.26738  0.22079  1.0000
  S   S230      1.0  0.90123  0.27929  0.20082  1.0000
  C   C796      1.0  0.74554  0.46983  0.45270  1.0000
  C   C797      1.0  0.84540  0.24871  0.25929  1.0000
  H   H1347     1.0  0.79828  0.33246  0.07776  1.0000
  H   H1348     1.0  0.81420  0.31234  0.07308  1.0000
  S   S231      1.0  0.90840  0.27358  0.24806  1.0000
  S   S232      1.0  0.90869  0.48288  0.33486  1.0000
  H   H1349     1.0  0.80325  0.26317  0.14407  1.0000
  N   N58       1.0  0.91092  0.42827  0.29891  1.0000
  H   H1350     1.0  0.89906  0.42236  0.39259  1.0000
  H   H1351     1.0  0.65707  0.34486  0.99748  1.0000
  C   C798      1.0  0.97722  0.35973  0.33346  1.0000
  H   H1352     1.0  0.72558  0.25130  0.08452  1.0000
  H   H1353     1.0  0.88365  0.40252  0.33260  1.0000
  S   S233      1.0  0.86855  0.47304  0.31438  1.0000
  H   H1354     1.0  0.86273  0.25561  0.33163  1.0000
  H   H1355     1.0  0.80459  0.26458  0.18963  1.0000
  Fe  Fe115     1.0  0.92182  0.24548  0.25741  1.0000
  H   H1356     1.0  0.95527  0.26243  0.18274  1.0000
  H   H1357     1.0  0.87045  0.26520  0.30870  1.0000
  H   H1358     1.0  0.81974  0.33399  0.06420  1.0000
  S   S234      1.0  0.79006  0.24923  0.01197  1.0000
  C   C799      1.0  0.82814  0.26087  0.16944  1.0000
  H   H1359     1.0  0.98867  0.29369  0.33184  1.0000
  Fe  Fe116     1.0  0.65969  0.25618  0.05134  1.0000
  S   S235      1.0  0.66991  0.27500  0.02676  1.0000
  Fe  Fe117     1.0  0.73645  0.34588  0.00596  1.0000
  S   S236      1.0  0.72997  0.33855  0.03566  1.0000
  H   H1360     1.0  0.60587  0.37468  0.98540  1.0000
  Fe  Fe118     1.0  0.71837  0.38513  0.00580  1.0000
  S   S237      1.0  0.71014  0.38129  0.03548  1.0000
  H   H1361     1.0  0.62155  0.43240  0.98954  1.0000
  Fe  Fe119     1.0  0.73807  0.36476  0.03515  1.0000
  S   S238      1.0  0.75744  0.36543  0.05223  1.0000
  Fe  Fe120     1.0  0.70284  0.35566  0.03312  1.0000
  S   S239      1.0  0.67684  0.34678  0.04724  1.0000
  S   S240      1.0  0.74696  0.37069  0.00548  1.0000
  S   S241      1.0  0.70863  0.36086  0.00356  1.0000
  Fe  Fe121     1.0  0.75805  0.31694  0.15104  1.0000
  S   S242      1.0  0.74115  0.30491  0.17625  1.0000
  S   S243      1.0  0.78386  0.30026  0.13941  1.0000
  Fe  Fe122     1.0  0.73032  0.35118  0.14667  1.0000
  S   S244      1.0  0.71174  0.34120  0.17148  1.0000
  S   S245      1.0  0.72053  0.37746  0.13000  1.0000
  Fe  Fe123     1.0  0.73737  0.33258  0.18312  1.0000
  S   S246      1.0  0.74057  0.33970  0.20911  1.0000
  Fe  Fe124     1.0  0.71795  0.31498  0.16100  1.0000
  S   S247      1.0  0.69608  0.29976  0.15823  1.0000
  S   S248      1.0  0.75542  0.34375  0.15841  1.0000
  S   S249      1.0  0.73539  0.32596  0.13577  1.0000
  Fe  Fe125     1.0  0.80028  0.38936  0.24949  1.0000
  S   S250      1.0  0.79330  0.36886  0.27369  1.0000
  S   S251      1.0  0.79571  0.38422  0.22310  1.0000
  Fe  Fe126     1.0  0.81576  0.41043  0.27174  1.0000
  S   S252      1.0  0.80909  0.39070  0.29672  1.0000
  S   S253      1.0  0.82848  0.43423  0.27358  1.0000
  Fe  Fe127     1.0  0.82008  0.36978  0.27942  1.0000
  S   S254      1.0  0.84052  0.34514  0.28644  1.0000
  Fe  Fe128     1.0  0.78322  0.39241  0.28768  1.0000
  S   S255      1.0  0.75594  0.39573  0.30531  1.0000
  S   S256      1.0  0.82814  0.38914  0.25456  1.0000
  S   S257      1.0  0.78881  0.41329  0.26333  1.0000
  Fe  Fe129     1.0  0.76914  0.38307  0.39854  1.0000
  S   S258      1.0  0.76936  0.37549  0.42773  1.0000
  S   S259      1.0  0.75848  0.36535  0.38619  1.0000
  Fe  Fe130     1.0  0.78403  0.41684  0.39430  1.0000
  S   S260      1.0  0.78564  0.41196  0.42309  1.0000
  S   S261      1.0  0.79346  0.44036  0.37487  1.0000
  Fe  Fe131     1.0  0.79659  0.38352  0.42002  1.0000
  S   S262      1.0  0.81960  0.36821  0.43338  1.0000
  Fe  Fe132     1.0  0.75832  0.40471  0.42772  1.0000
  S   S263      1.0  0.73681  0.41476  0.44944  1.0000
  S   S264      1.0  0.79740  0.38877  0.39068  1.0000
  S   S265      1.0  0.75573  0.41176  0.39913  1.0000
  H   H1362     1.0  0.77011  0.24737  0.17444  1.0000
  H   H1363     1.0  0.70315  0.24753  0.09406  1.0000
  S   S266      1.0  0.94811  0.25325  0.25729  1.0000
  N   N59       1.0  0.90637  0.26528  0.31942  1.0000
  H   H1364     1.0  0.81830  0.24279  0.14911  1.0000
  Fe  Fe133     1.0  0.93093  0.31609  0.34362  1.0000
  S   S267      1.0  0.93625  0.34420  0.33581  1.0000
  S   S268      1.0  0.94997  0.29415  0.33090  1.0000
  Fe  Fe134     1.0  0.89553  0.32672  0.36833  1.0000
  S   S269      1.0  0.89757  0.35591  0.36252  1.0000
  S   S270      1.0  0.87273  0.31472  0.38661  1.0000
  Fe  Fe135     1.0  0.90704  0.35178  0.33427  1.0000
  S   S271      1.0  0.89957  0.37229  0.31107  1.0000
  Fe  Fe136     1.0  0.92667  0.34548  0.36468  1.0000
  S   S272      1.0  0.94301  0.35661  0.37834  1.0000
  S   S273      1.0  0.90219  0.32354  0.33992  1.0000
  S   S274      1.0  0.92400  0.31647  0.37279  1.0000
  S   S275      1.0  0.85805  0.45581  0.40188  1.0000
  C   C800      1.0  0.92826  0.39043  0.36282  1.0000
  C   C801      1.0  0.94254  0.37968  0.37061  1.0000
  H   H1365     1.0  0.83036  0.27811  0.04383  1.0000
  H   H1366     1.0  0.77408  0.26944  0.16598  1.0000
  H   H1367     1.0  0.91757  0.38451  0.36105  1.0000
  C   C802      1.0  0.83422  0.35347  0.42018  1.0000
  C   C803      1.0  0.84044  0.33579  0.42800  1.0000
  C   C804      1.0  0.85210  0.32386  0.41758  1.0000
  C   C805      1.0  0.85828  0.32983  0.39949  1.0000
  C   C806      1.0  0.85250  0.34767  0.39174  1.0000
  C   C807      1.0  0.84004  0.35935  0.40198  1.0000
  H   H1368     1.0  0.83593  0.33118  0.44206  1.0000
  H   H1369     1.0  0.85653  0.31006  0.42360  1.0000
  H   H1370     1.0  0.85733  0.35231  0.37778  1.0000
  H   H1371     1.0  0.83530  0.37302  0.39591  1.0000
  C   C808      1.0  0.81042  0.44671  0.38223  1.0000
  C   C809      1.0  0.82527  0.45220  0.36997  1.0000
  C   C810      1.0  0.83973  0.45551  0.37597  1.0000
  C   C811      1.0  0.83946  0.45309  0.39421  1.0000
  C   C812      1.0  0.82431  0.44828  0.40642  1.0000
  C   C813      1.0  0.80967  0.44546  0.40040  1.0000
  H   H1372     1.0  0.84812  0.40232  0.38196  1.0000
  H   H1373     1.0  0.82401  0.44649  0.42052  1.0000
  H   H1374     1.0  0.79764  0.44270  0.40979  1.0000
  H   H1375     1.0  0.75332  0.44181  0.42295  1.0000
  C   C814      1.0  0.85837  0.35281  0.29078  1.0000
  C   C815      1.0  0.85744  0.37121  0.28973  1.0000
  C   C816      1.0  0.87064  0.37726  0.29521  1.0000
  C   C817      1.0  0.88486  0.36489  0.30163  1.0000
  C   C818      1.0  0.88651  0.34660  0.30148  1.0000
  C   C819      1.0  0.87318  0.34053  0.29617  1.0000
  H   H1376     1.0  0.84639  0.38086  0.28507  1.0000
  H   H1377     1.0  0.86944  0.39146  0.29504  1.0000
  H   H1378     1.0  0.89807  0.33716  0.30540  1.0000
  H   H1379     1.0  0.87406  0.32636  0.29667  1.0000
  C   C820      1.0  0.75706  0.38699  0.32765  1.0000
  C   C821      1.0  0.77065  0.39004  0.33510  1.0000
  C   C822      1.0  0.77058  0.38419  0.35332  1.0000
  C   C823      1.0  0.75769  0.37418  0.36382  1.0000
  C   C824      1.0  0.74447  0.37062  0.35624  1.0000
  C   C825      1.0  0.74388  0.37743  0.33826  1.0000
  H   H1380     1.0  0.78083  0.39740  0.32695  1.0000
  H   H1381     1.0  0.78064  0.38716  0.35922  1.0000
  H   H1382     1.0  0.73448  0.36289  0.36435  1.0000
  H   H1383     1.0  0.73335  0.37507  0.33253  1.0000
  C   C826      1.0  0.78104  0.37065  0.21993  1.0000
  C   C827      1.0  0.78346  0.36555  0.20328  1.0000
  C   C828      1.0  0.77162  0.35570  0.19986  1.0000
  C   C829      1.0  0.75692  0.35094  0.21301  1.0000
  C   C830      1.0  0.75466  0.35583  0.22973  1.0000
  C   C831      1.0  0.76659  0.36553  0.23319  1.0000
  H   H1384     1.0  0.79453  0.36936  0.19287  1.0000
  H   H1385     1.0  0.77377  0.35200  0.18697  1.0000
  H   H1386     1.0  0.74347  0.35221  0.24009  1.0000
  H   H1387     1.0  0.76442  0.36929  0.24607  1.0000
  H   H1388     1.0  0.70709  0.39826  0.21250  1.0000
  H   H1389     1.0  0.93669  0.42086  0.28153  1.0000
  S   S276      1.0  0.90481  0.47101  0.37864  1.0000
  C   C832      1.0  0.73373  0.27151  0.98836  1.0000
  C   C833      1.0  0.67807  0.39841  0.99666  1.0000
  C   C834      1.0  0.66246  0.39455  0.99338  1.0000
  H   H1390     1.0  0.80060  0.43705  0.31104  1.0000
  H   H1391     1.0  0.94353  0.26674  0.14656  1.0000
  H   H1392     1.0  0.68144  0.39388  0.00975  1.0000
  H   H1393     1.0  0.65388  0.38709  0.00398  1.0000
  C   C835      1.0  0.74743  0.37023  0.07347  1.0000
  C   C836      1.0  0.73030  0.38103  0.07664  1.0000
  C   C837      1.0  0.72234  0.38409  0.09392  1.0000
  C   C838      1.0  0.73128  0.37583  0.10808  1.0000
  C   C839      1.0  0.74850  0.36529  0.10484  1.0000
  C   C840      1.0  0.75674  0.36288  0.08750  1.0000
  H   H1394     1.0  0.72328  0.38716  0.06577  1.0000
  H   H1395     1.0  0.70908  0.39240  0.09639  1.0000
  H   H1396     1.0  0.75555  0.35904  0.11570  1.0000
  H   H1397     1.0  0.77021  0.35503  0.08508  1.0000
  C   C841      1.0  0.66777  0.27381  0.12598  1.0000
  C   C842      1.0  0.66932  0.28423  0.15284  1.0000
  C   C843      1.0  0.68602  0.28959  0.14514  1.0000
  C   C844      1.0  0.69367  0.28681  0.12761  1.0000
  C   C845      1.0  0.68458  0.27911  0.11806  1.0000
  H   H1398     1.0  0.66310  0.28612  0.16627  1.0000
  H   H1399     1.0  0.70661  0.29052  0.12142  1.0000
  H   H1400     1.0  0.69062  0.27728  0.10459  1.0000
  C   C846      1.0  0.67279  0.29427  0.03306  1.0000
  C   C847      1.0  0.66124  0.30049  0.04779  1.0000
  C   C848      1.0  0.66259  0.31659  0.05212  1.0000
  C   C849      1.0  0.67596  0.32621  0.04213  1.0000
  C   C850      1.0  0.68803  0.31966  0.02776  1.0000
  C   C851      1.0  0.68625  0.30384  0.02306  1.0000
  H   H1401     1.0  0.65077  0.29330  0.05552  1.0000
  H   H1402     1.0  0.65315  0.32161  0.06316  1.0000
  H   H1403     1.0  0.69854  0.32688  0.02010  1.0000
  H   H1404     1.0  0.69530  0.29904  0.01169  1.0000
  C   C852      1.0  0.76087  0.27299  0.10698  1.0000
  C   C853      1.0  0.77959  0.27250  0.10342  1.0000
  C   C854      1.0  0.78717  0.28017  0.11386  1.0000
  C   C855      1.0  0.77607  0.28731  0.12832  1.0000
  C   C856      1.0  0.75794  0.28537  0.13316  1.0000
  C   C857      1.0  0.75020  0.27878  0.12219  1.0000
  H   H1405     1.0  0.78802  0.26737  0.09200  1.0000
  H   H1406     1.0  0.80133  0.28122  0.11032  1.0000
  H   H1407     1.0  0.74958  0.28966  0.14499  1.0000
  H   H1408     1.0  0.73587  0.27863  0.12531  1.0000
  C   C858      1.0  0.77890  0.27132  0.00551  1.0000
  C   C859      1.0  0.79519  0.42952  0.46068  1.0000
  H   H1409     1.0  0.81681  0.48474  0.45861  1.0000
  H   H1410     1.0  0.92852  0.26843  0.16701  1.0000
  C   C860      1.0  0.75813  0.29864  0.01211  1.0000
  C   C861      1.0  0.76744  0.28127  0.01793  1.0000
  H   H1411     1.0  0.63933  0.44737  0.00646  1.0000
  Fe  Fe137     1.0  0.91466  0.45767  0.35476  1.0000
  H   H1412     1.0  0.74886  0.30608  0.02161  1.0000
  H   H1413     1.0  0.76553  0.27547  0.03195  1.0000
  C   C862      1.0  0.73448  0.24954  0.02796  1.0000
  Fe  Fe138     1.0  0.95543  0.24833  0.22919  1.0000
  H   H1414     1.0  0.75046  0.41047  0.18239  1.0000
  H   H1415     1.0  0.91874  0.43047  0.32316  1.0000
  C   C863      1.0  0.62248  0.46135  0.98027  1.0000
  H   H1416     1.0  0.90743  0.40054  0.33011  1.0000
  H   H1417     1.0  0.84433  0.46548  0.26464  1.0000
  H   H1418     1.0  0.60232  0.33643  0.01654  1.0000
  C   C864      1.0  0.94180  0.30428  0.27371  1.0000
  C   C865      1.0  0.95321  0.28864  0.28025  1.0000
  C   C866      1.0  0.95640  0.28580  0.29763  1.0000
  C   C867      1.0  0.94821  0.29863  0.30842  1.0000
  C   C868      1.0  0.93767  0.31467  0.30148  1.0000
  C   C869      1.0  0.93454  0.31753  0.28414  1.0000
  H   H1419     1.0  0.96479  0.27349  0.30285  1.0000
  H   H1420     1.0  0.93165  0.32486  0.30949  1.0000
  H   H1421     1.0  0.92598  0.32978  0.27904  1.0000
  C   C870      1.0  0.88343  0.26751  0.20512  1.0000
  C   C871      1.0  0.86601  0.27668  0.20307  1.0000
  C   C872      1.0  0.85180  0.26712  0.20645  1.0000
  H   H1422     1.0  0.91155  0.26699  0.35517  1.0000
  H   H1423     1.0  0.79073  0.46965  0.33020  1.0000
  Fe  Fe139     1.0  0.65252  0.25155  0.09152  1.0000
  H   H1424     1.0  0.86348  0.29115  0.19903  1.0000
  H   H1425     1.0  0.83828  0.27421  0.20508  1.0000
  H   H1426     1.0  0.75932  0.47111  0.42543  1.0000
  H   H1427     1.0  0.90809  0.41658  0.41240  1.0000
  H   H1428     1.0  0.73986  0.28026  0.99370  1.0000
  H   H1429     1.0  0.83354  0.27054  0.17438  1.0000
  C   C873      1.0  0.80736  0.26404  0.17520  1.0000
  H   H1430     1.0  0.72495  0.42437  0.17070  1.0000
  N   N60       1.0  0.82004  0.34578  0.35264  1.0000
  C   C874      1.0  0.80387  0.34097  0.36648  1.0000
  C   C875      1.0  0.81463  0.34979  0.33468  1.0000
  C   C876      1.0  0.82408  0.36270  0.35607  1.0000
  C   C877      1.0  0.83574  0.33030  0.35447  1.0000
  C   C878      1.0  0.80593  0.33759  0.38612  1.0000
  C   C879      1.0  0.80760  0.33468  0.33000  1.0000
  C   C880      1.0  0.84003  0.37048  0.34336  1.0000
  C   C881      1.0  0.85075  0.32854  0.33785  1.0000
  H   H1431     1.0  0.79175  0.35160  0.36492  1.0000
  H   H1432     1.0  0.80021  0.32850  0.36473  1.0000
  H   H1433     1.0  0.82585  0.35327  0.32369  1.0000
  H   H1434     1.0  0.80376  0.36195  0.33368  1.0000
  H   H1435     1.0  0.81192  0.37357  0.35580  1.0000
  H   H1436     1.0  0.82719  0.36060  0.36953  1.0000
  H   H1437     1.0  0.84227  0.33084  0.36553  1.0000
  H   H1438     1.0  0.83074  0.31732  0.35810  1.0000
  H   H1439     1.0  0.80583  0.35018  0.39054  1.0000
  H   H1440     1.0  0.79403  0.33215  0.39466  1.0000
  H   H1441     1.0  0.81821  0.32765  0.38882  1.0000
  H   H1442     1.0  0.79349  0.33405  0.33713  1.0000
  H   H1443     1.0  0.80724  0.33772  0.31556  1.0000
  H   H1444     1.0  0.81637  0.32139  0.33282  1.0000
  H   H1445     1.0  0.84043  0.38352  0.34673  1.0000
  H   H1446     1.0  0.83864  0.37337  0.32924  1.0000
  H   H1447     1.0  0.85319  0.36168  0.34515  1.0000
  H   H1448     1.0  0.86370  0.32195  0.34224  1.0000
  H   H1449     1.0  0.85303  0.34142  0.32922  1.0000
  H   H1450     1.0  0.84818  0.31947  0.32998  1.0000
  H   H1451     1.0  0.62933  0.31974  0.03644  1.0000
  H   H1452     1.0  0.76875  0.43497  0.47666  1.0000
  C   C882      1.0  0.76680  0.43913  0.30726  1.0000
  H   H1453     1.0  0.61852  0.34723  0.04137  1.0000
  H   H1454     1.0  0.70444  0.25960  0.01284  1.0000
  S   S277      1.0  0.79610  0.25445  0.05889  1.0000
  H   H1455     1.0  0.98987  0.34256  0.36286  1.0000
  H   H1456     1.0  0.62558  0.36833  0.03608  1.0000
  C   C883      1.0  0.97711  0.30326  0.36771  1.0000
  H   H1457     1.0  0.93148  0.38864  0.31047  1.0000
  C   C884      1.0  0.76671  0.44896  0.28798  1.0000
  H   H1458     1.0  0.85112  0.45968  0.36639  1.0000
  H   H1459     1.0  0.98107  0.30648  0.37916  1.0000
  S   S278      1.0  0.94195  0.43970  0.35121  1.0000
  C   C885      1.0  0.73147  0.44362  0.46551  1.0000
  H   H1460     1.0  0.72822  0.27145  0.04270  1.0000
  C   C886      1.0  0.62802  0.35517  0.03176  1.0000
  H   H1461     1.0  0.96474  0.35817  0.34341  1.0000
  C   C887      1.0  0.76064  0.30619  0.99397  1.0000
  H   H1462     1.0  0.60972  0.36474  0.01384  1.0000
  N   N61       1.0  0.94228  0.24124  0.16473  1.0000
  C   C888      1.0  0.64853  0.33430  0.00271  1.0000
  H   H1463     1.0  0.64225  0.34904  0.03262  1.0000
  N   N62       1.0  0.62878  0.34258  0.00350  1.0000
  H   H1464     1.0  0.71667  0.25359  0.11772  1.0000
  C   C889      1.0  0.75989  0.46644  0.32102  1.0000
  Fe  Fe140     1.0  0.87795  0.46517  0.37785  1.0000
  H   H1465     1.0  0.93461  0.24346  0.29814  1.0000
  H   H1466     1.0  0.61547  0.32122  0.00254  1.0000
  H   H1467     1.0  0.92204  0.24652  0.33776  1.0000
  H   H1468     1.0  0.72379  0.43592  0.47675  1.0000
  H   H1469     1.0  0.60929  0.31167  0.03766  1.0000
  H   H1470     1.0  0.62948  0.30247  0.02433  1.0000
  H   H1471     1.0  0.80369  0.42970  0.47019  1.0000
  H   H1472     1.0  0.74181  0.24393  0.98441  1.0000
  C   C890      1.0  0.88663  0.24885  0.21043  1.0000
  H   H1473     1.0  0.91040  0.39965  0.39961  1.0000
  H   H1474     1.0  0.64720  0.30907  0.99480  1.0000
  C   C891      1.0  0.71088  0.24531  0.01362  1.0000
  C   C892      1.0  0.94198  0.26120  0.16106  1.0000
  H   H1475     1.0  0.83766  0.24753  0.24949  1.0000
  C   C893      1.0  0.60424  0.24383  0.98320  1.0000
  H   H1476     1.0  0.86881  0.27688  0.32668  1.0000
  H   H1477     1.0  0.77215  0.48005  0.29377  1.0000
  H   H1478     1.0  0.80522  0.44818  0.33502  1.0000
  H   H1479     1.0  0.96769  0.37915  0.37835  1.0000
  C   C894      1.0  0.90215  0.28016  0.33007  1.0000
  H   H1480     1.0  0.80288  0.42098  0.45089  1.0000
  C   C895      1.0  0.62176  0.31525  0.02848  1.0000
  H   H1481     1.0  0.67870  0.44666  0.98543  1.0000
  H   H1482     1.0  0.77540  0.44320  0.34681  1.0000
  H   H1483     1.0  0.97023  0.26262  0.16129  1.0000
  Fe  Fe141     1.0  0.88149  0.47452  0.33786  1.0000
  H   H1484     1.0  0.75557  0.26314  0.19761  1.0000
  C   C896      1.0  0.91575  0.43885  0.31049  1.0000
  C   C897      1.0  0.62430  0.35853  0.01277  1.0000
  H   H1485     1.0  0.80203  0.27783  0.16844  1.0000
  C   C898      1.0  0.64309  0.48012  0.98368  1.0000
  C   C899      1.0  0.61635  0.32927  0.01230  1.0000
  H   H1486     1.0  0.90144  0.30220  0.29792  1.0000
  N   N63       1.0  0.87222  0.39787  0.40746  1.0000
  C   C900      1.0  0.85245  0.40235  0.41577  1.0000
  C   C901      1.0  0.87394  0.40509  0.38776  1.0000
  C   C902      1.0  0.88282  0.40716  0.41545  1.0000
  C   C903      1.0  0.87796  0.37773  0.41165  1.0000
  C   C904      1.0  0.86290  0.39774  0.37790  1.0000
  C   C905      1.0  0.90111  0.41147  0.40421  1.0000
  C   C906      1.0  0.89749  0.36975  0.40381  1.0000
  H   H1487     1.0  0.84704  0.41677  0.41131  1.0000
  H   H1488     1.0  0.84419  0.39470  0.41143  1.0000
  H   H1489     1.0  0.88816  0.40267  0.38059  1.0000
  S   S279      1.0  0.75140  0.48974  0.45485  1.0000
  H   H1490     1.0  0.87477  0.42041  0.41823  1.0000
  H   H1491     1.0  0.88552  0.39920  0.42855  1.0000
  H   H1492     1.0  0.87669  0.37301  0.42624  1.0000
  H   H1493     1.0  0.86868  0.37061  0.40813  1.0000
  H   H1494     1.0  0.72293  0.27856  0.02108  1.0000
  H   H1495     1.0  0.86630  0.40313  0.36345  1.0000
  H   H1496     1.0  0.86621  0.38290  0.37958  1.0000
  H   H1497     1.0  0.81313  0.46270  0.45956  1.0000
  S   S280      1.0  0.75044  0.26793  0.09180  1.0000
  C   C907      1.0  0.77793  0.25719  0.17582  1.0000
  H   H1498     1.0  0.90707  0.37017  0.41224  1.0000
  H   H1499     1.0  0.90208  0.37632  0.39010  1.0000
  H   H1500     1.0  0.89823  0.35552  0.40289  1.0000
  N   N64       1.0  0.68833  0.34390  0.10420  1.0000
  C   C908      1.0  0.68404  0.35615  0.11769  1.0000
  C   C909      1.0  0.69019  0.35564  0.08603  1.0000
  C   C910      1.0  0.70630  0.33187  0.10621  1.0000
  C   C911      1.0  0.67340  0.33312  0.10803  1.0000
  C   C912      1.0  0.68288  0.34680  0.13733  1.0000
  C   C913      1.0  0.67351  0.37013  0.08247  1.0000
  C   C914      1.0  0.71487  0.31967  0.09234  1.0000
  C   C915      1.0  0.67074  0.32525  0.09259  1.0000
  H   H1501     1.0  0.69425  0.36505  0.11477  1.0000
  H   H1502     1.0  0.67076  0.36527  0.11710  1.0000
  H   H1503     1.0  0.69362  0.34769  0.07530  1.0000
  H   H1504     1.0  0.70184  0.36265  0.08365  1.0000
  H   H1505     1.0  0.71652  0.34014  0.10585  1.0000
  H   H1506     1.0  0.70520  0.32267  0.11932  1.0000
  H   H1507     1.0  0.67519  0.32182  0.11939  1.0000
  H   H1508     1.0  0.66011  0.34163  0.11242  1.0000
  H   H1509     1.0  0.67823  0.35716  0.14591  1.0000
  H   H1510     1.0  0.67207  0.38145  0.08946  1.0000
  H   H1511     1.0  0.67536  0.37590  0.06803  1.0000
  H   H1512     1.0  0.66087  0.36456  0.08614  1.0000
  H   H1513     1.0  0.70654  0.30964  0.09281  1.0000
  H   H1514     1.0  0.72792  0.31174  0.09570  1.0000
  H   H1515     1.0  0.71810  0.32738  0.07869  1.0000
  H   H1516     1.0  0.66689  0.31184  0.09795  1.0000
  H   H1517     1.0  0.68264  0.32333  0.08187  1.0000
  H   H1518     1.0  0.65913  0.33365  0.08676  1.0000
  N   N65       1.0  0.87452  0.33104  0.23351  1.0000
  C   C916      1.0  0.85761  0.34485  0.23733  1.0000
  C   C917      1.0  0.88340  0.32610  0.24960  1.0000
  C   C918      1.0  0.87019  0.31433  0.22997  1.0000
  C   C919      1.0  0.88681  0.33892  0.21719  1.0000
  C   C920      1.0  0.84539  0.35032  0.22327  1.0000
  C   C921      1.0  0.89317  0.34029  0.25229  1.0000
  C   C922      1.0  0.85644  0.30517  0.24470  1.0000
  C   C923      1.0  0.90527  0.32679  0.21176  1.0000
  H   H1519     1.0  0.84898  0.34023  0.25025  1.0000
  H   H1520     1.0  0.86109  0.35748  0.23894  1.0000
  H   H1521     1.0  0.89337  0.31331  0.24946  1.0000
  H   H1522     1.0  0.87325  0.32340  0.26202  1.0000
  H   H1523     1.0  0.86519  0.31708  0.21725  1.0000
  H   H1524     1.0  0.88269  0.30398  0.22798  1.0000
  H   H1525     1.0  0.88022  0.34200  0.20541  1.0000
  H   H1526     1.0  0.88914  0.35226  0.21823  1.0000
  H   H1527     1.0  0.84028  0.33880  0.22130  1.0000
  H   H1528     1.0  0.83326  0.36008  0.22801  1.0000
  H   H1529     1.0  0.85217  0.35724  0.21037  1.0000
  H   H1530     1.0  0.90506  0.34237  0.24154  1.0000
  H   H1531     1.0  0.88391  0.35328  0.25361  1.0000
  H   H1532     1.0  0.89857  0.33533  0.26477  1.0000
  H   H1533     1.0  0.86136  0.30066  0.25744  1.0000
  H   H1534     1.0  0.85456  0.29303  0.24058  1.0000
  H   H1535     1.0  0.84295  0.31397  0.24677  1.0000
  H   H1536     1.0  0.90434  0.31856  0.20222  1.0000
  H   H1537     1.0  0.91055  0.31756  0.22309  1.0000
  H   H1538     1.0  0.91567  0.33529  0.20544  1.0000
  H   H1539     1.0  0.77325  0.27552  0.19470  1.0000
  H   H1540     1.0  0.67314  0.33741  0.14151  1.0000
  H   H1541     1.0  0.65026  0.43408  0.98998  1.0000
  C   C924      1.0  0.74617  0.39376  0.15700  1.0000
  C   C925      1.0  0.65582  0.31948  0.99131  1.0000
  H   H1542     1.0  0.69950  0.42669  0.15968  1.0000
  H   H1543     1.0  0.74826  0.42312  0.34010  1.0000
  H   H1544     1.0  0.95142  0.39782  0.29956  1.0000
  H   H1545     1.0  0.89531  0.45339  0.28739  1.0000
  H   H1546     1.0  0.66776  0.45999  0.00246  1.0000
  C   C926      1.0  0.80288  0.48200  0.43788  1.0000
  H   H1547     1.0  0.75897  0.39624  0.15928  1.0000
  C   C927      1.0  0.71594  0.41558  0.18005  1.0000
  H   H1548     1.0  0.89213  0.42021  0.33700  1.0000
  C   C928      1.0  0.90938  0.27289  0.29970  1.0000
  C   C929      1.0  0.60737  0.36115  0.98217  1.0000
  C   C930      1.0  0.77138  0.43677  0.33741  1.0000
  C   C931      1.0  0.95658  0.38742  0.37239  1.0000
  C   C932      1.0  0.85422  0.46828  0.28718  1.0000
  H   H1549     1.0  0.80409  0.47121  0.43032  1.0000
  C   C933      1.0  0.95626  0.26717  0.16823  1.0000
  H   H1550     1.0  0.54750  0.26937  0.99652  1.0000
  H   H1551     1.0  0.98569  0.36629  0.33873  1.0000
  H   H1552     1.0  0.99273  0.31127  0.31275  1.0000
  C   C934      1.0  0.92757  0.40903  0.35767  1.0000
  C   C935      1.0  0.56962  0.24075  0.01095  1.0000
  S   S281      1.0  0.74936  0.32782  0.98603  1.0000
  C   C936      1.0  0.73444  0.38568  0.17439  1.0000
  H   H1553     1.0  0.70923  0.42358  0.19064  1.0000
  H   H1554     1.0  0.75340  0.42485  0.36040  1.0000
  H   H1555     1.0  0.94444  0.43880  0.29772  1.0000
  C   C937      1.0  0.55361  0.24387  0.98592  1.0000
  C   C938      1.0  0.89190  0.25388  0.32431  1.0000
  N   N66       1.0  0.79269  0.31308  0.04860  1.0000
  C   C939      1.0  0.77906  0.32024  0.03652  1.0000
  C   C940      1.0  0.78279  0.30416  0.06607  1.0000
  C   C941      1.0  0.80707  0.29919  0.04018  1.0000
  C   C942      1.0  0.80074  0.32847  0.05041  1.0000
  C   C943      1.0  0.78657  0.32785  0.01698  1.0000
  C   C944      1.0  0.76601  0.31615  0.07507  1.0000
  C   C945      1.0  0.82182  0.28892  0.05087  1.0000
  C   C946      1.0  0.80857  0.32625  0.06739  1.0000
  H   H1556     1.0  0.77155  0.30959  0.03647  1.0000
  H   H1557     1.0  0.76862  0.33128  0.04150  1.0000
  H   H1558     1.0  0.79166  0.29886  0.07596  1.0000
  H   H1559     1.0  0.77815  0.29218  0.06431  1.0000
  H   H1560     1.0  0.80070  0.28906  0.03699  1.0000
  H   H1561     1.0  0.81457  0.30543  0.02725  1.0000
  H   H1562     1.0  0.81152  0.33163  0.03868  1.0000
  H   H1563     1.0  0.79024  0.34090  0.05044  1.0000
  H   H1564     1.0  0.79515  0.33790  0.01585  1.0000
  H   H1565     1.0  0.79407  0.31699  0.00957  1.0000
  H   H1566     1.0  0.77505  0.33476  0.01026  1.0000
  H   H1567     1.0  0.76864  0.32957  0.07490  1.0000
  H   H1568     1.0  0.75427  0.31764  0.06861  1.0000
  H   H1569     1.0  0.76205  0.30984  0.08920  1.0000
  H   H1570     1.0  0.81631  0.28212  0.06437  1.0000
  H   H1571     1.0  0.83099  0.29780  0.05148  1.0000
  H   H1572     1.0  0.71018  0.36509  0.19608  1.0000
  C   C947      1.0  0.66040  0.27650  0.14347  1.0000
  H   H1573     1.0  0.69629  0.33961  0.14012  1.0000
  H   H1574     1.0  0.78118  0.42388  0.33687  1.0000
  H   H1575     1.0  0.61415  0.46421  0.99328  1.0000
  C   C948      1.0  0.87252  0.26365  0.32253  1.0000
  C   C949      1.0  0.84776  0.39868  0.43630  1.0000
  H   H1576     1.0  0.90394  0.44929  0.31461  1.0000
  H   H1577     1.0  0.76969  0.42397  0.45934  1.0000
  S   S282      1.0  0.65533  0.26341  0.11536  1.0000
  H   H1578     1.0  0.64755  0.27254  0.14994  1.0000
  C   C950      1.0  0.89492  0.41963  0.30874  1.0000
  H   H1579     1.0  0.83292  0.40289  0.44045  1.0000
  H   H1580     1.0  0.88292  0.43096  0.27790  1.0000
  H   H1581     1.0  0.95933  0.27863  0.27202  1.0000
  H   H1582     1.0  0.96379  0.29895  0.37280  1.0000
  C   C951      1.0  0.54441  0.26370  0.98609  1.0000
  Fe  Fe142     1.0  0.93542  0.28087  0.24547  1.0000
  S   S283      1.0  0.93526  0.30696  0.25323  1.0000
  H   H1583     1.0  0.58010  0.26367  0.98131  1.0000
  S   S284      1.0  0.63451  0.26391  0.07103  1.0000
  S   S285      1.0  0.67761  0.24481  0.07144  1.0000
  H   H1584     1.0  0.96524  0.33050  0.35904  1.0000
  H   H1585     1.0  0.70859  0.26585  0.03865  1.0000
  H   H1586     1.0  0.85127  0.26108  0.25381  1.0000
  H   H1587     1.0  0.89376  0.44506  0.25937  1.0000
  C   C952      1.0  0.90519  0.44158  0.28303  1.0000
  H   H1588     1.0  0.85090  0.38417  0.44196  1.0000
  H   H1589     1.0  0.85437  0.40652  0.44226  1.0000
  C   C953      1.0  0.83914  0.44385  0.28649  1.0000
  H   H1590     1.0  0.82582  0.45350  0.35586  1.0000
  H   H1591     1.0  0.77634  0.25204  0.20501  1.0000
  S   S286      1.0  0.71006  0.41025  0.98674  1.0000
  H   H1592     1.0  0.91621  0.41735  0.35236  1.0000
  H   H1593     1.0  0.64014  0.47951  0.99836  1.0000
  H   H1594     1.0  0.88241  0.42990  0.30923  1.0000
  H   H1595     1.0  0.97027  0.25075  0.13472  1.0000
  C   C954      1.0  0.93698  0.40130  0.30589  1.0000
  H   H1596     1.0  0.79434  0.45844  0.29887  1.0000
  H   H1597     1.0  0.83062  0.47103  0.44273  1.0000
  H   H1598     1.0  0.75525  0.25074  0.99576  1.0000
  C   C955      1.0  0.73532  0.45994  0.46704  1.0000
  C   C956      1.0  0.75166  0.46344  0.43667  1.0000
  C   C957      1.0  0.80029  0.45872  0.32421  1.0000
  H   H1599     1.0  0.93505  0.45452  0.31232  1.0000
  C   C958      1.0  0.84112  0.43678  0.30428  1.0000
  H   H1600     1.0  0.83614  0.42457  0.31099  1.0000
  C   C959      1.0  0.92659  0.41443  0.29214  1.0000
  H   H1601     1.0  0.75661  0.46160  0.28729  1.0000
  C   C960      1.0  0.85632  0.46146  0.30482  1.0000
  H   H1602     1.0  0.69399  0.37283  0.21401  1.0000
  C   C961      1.0  0.84936  0.44572  0.31350  1.0000
  H   H1603     1.0  0.85064  0.44023  0.32716  1.0000
  C   C962      1.0  0.70082  0.41478  0.17052  1.0000
  C   C963      1.0  0.66774  0.44788  0.99723  1.0000
  S   S287      1.0  0.88867  0.44870  0.35639  1.0000
  H   H1604     1.0  0.86970  0.42002  0.38541  1.0000
  C   C964      1.0  0.94178  0.41673  0.35907  1.0000
  H   H1605     1.0  0.92905  0.45944  0.29096  1.0000
  C   C965      1.0  0.84571  0.45973  0.27825  1.0000
  C   C966      1.0  0.77052  0.26214  0.19443  1.0000
  H   H1606     1.0  0.88300  0.29125  0.29792  1.0000
  S   S288      1.0  0.94514  0.27687  0.21733  1.0000
  C   C967      1.0  0.78109  0.27879  0.98740  1.0000
  H   H1607     1.0  0.73203  0.40351  0.22191  1.0000
  H   H1608     1.0  0.90045  0.29426  0.27876  1.0000
  C   C968      1.0  0.74819  0.44688  0.43524  1.0000
  H   H1609     1.0  0.81216  0.46446  0.31606  1.0000
  H   H1610     1.0  0.89436  0.28637  0.35678  1.0000
  C   C969      1.0  0.95641  0.40585  0.36622  1.0000
  C   C970      1.0  0.74082  0.25149  0.99517  1.0000
  H   H1611     1.0  0.63193  0.36917  0.00479  1.0000
  H   H1612     1.0  0.96744  0.41176  0.36731  1.0000
  H   H1613     1.0  0.92190  0.40576  0.28526  1.0000
  C   C971      1.0  0.73827  0.43686  0.44977  1.0000
  H   H1614     1.0  0.66954  0.31264  0.99362  1.0000
  H   H1615     1.0  0.90512  0.42256  0.26578  1.0000
  H   H1616     1.0  0.65166  0.32833  0.01605  1.0000
  H   H1617     1.0  0.72386  0.38074  0.17041  1.0000
  C   C972      1.0  0.93204  0.44835  0.30211  1.0000
  H   H1618     1.0  0.96782  0.31659  0.34341  1.0000
  H   H1619     1.0  0.93725  0.40681  0.31759  1.0000
  N   N67       1.0  0.72669  0.39798  0.18777  1.0000
  H   H1620     1.0  0.75005  0.38398  0.14779  1.0000
  H   H1621     1.0  0.68761  0.41504  0.17988  1.0000
  H   H1622     1.0  0.74283  0.37321  0.18049  1.0000
  H   H1623     1.0  0.74570  0.46527  0.32128  1.0000
  C   C973      1.0  0.89489  0.41023  0.32820  1.0000
  H   H1624     1.0  0.97895  0.33792  0.32024  1.0000
  H   H1625     1.0  0.71886  0.27552  0.99117  1.0000
  C   C974      1.0  0.79202  0.45047  0.31249  1.0000
  H   H1626     1.0  0.59602  0.35452  0.99011  1.0000
  N   N68       1.0  0.77244  0.44867  0.31926  1.0000
  H   H1627     1.0  0.74202  0.44441  0.34784  1.0000
  H   H1628     1.0  0.89285  0.40973  0.30148  1.0000
  H   H1629     1.0  0.72439  0.37881  0.21256  1.0000
  H   H1630     1.0  0.73867  0.40619  0.14998  1.0000
  H   H1631     1.0  0.90764  0.26319  0.29198  1.0000
  C   C975      1.0  0.64903  0.44747  0.99352  1.0000
  H   H1632     1.0  0.89006  0.29023  0.32712  1.0000
  C   C976      1.0  0.89633  0.43434  0.27099  1.0000
  C   C977      1.0  0.75258  0.43222  0.34667  1.0000
  C   C978      1.0  0.72278  0.26740  0.03257  1.0000
  H   H1633     1.0  0.75281  0.43648  0.31244  1.0000
  H   H1634     1.0  0.69331  0.38506  0.19200  1.0000
  C   C979      1.0  0.89768  0.29114  0.29351  1.0000
  C   C980      1.0  0.74250  0.40210  0.19347  1.0000
  H   H1635     1.0  0.75066  0.41453  0.21179  1.0000
  H   H1636     1.0  0.88812  0.26606  0.35547  1.0000
  H   H1637     1.0  0.91691  0.44715  0.27424  1.0000
  C   C981      1.0  0.71544  0.38851  0.20405  1.0000
  C   C982      1.0  0.73790  0.41191  0.20944  1.0000
  H   H1638     1.0  0.75210  0.38953  0.19713  1.0000
  H   H1639     1.0  0.72882  0.42509  0.20698  1.0000
  H   H1640     1.0  0.78033  0.45132  0.28068  1.0000
  H   H1641     1.0  0.77567  0.42571  0.30671  1.0000
  H   H1642     1.0  0.76235  0.44033  0.28084  1.0000
  C   C983      1.0  0.70252  0.37744  0.20103  1.0000
  H   H1643     1.0  0.70353  0.40316  0.16375  1.0000
  H   H1644     1.0  0.92355  0.27498  0.29473  1.0000
  H   H1645     1.0  0.67134  0.43608  0.00761  1.0000
  H   H1646     1.0  0.91339  0.28794  0.32625  1.0000
  H   H1647     1.0  0.89156  0.24564  0.33791  1.0000
  H   H1648     1.0  0.95389  0.28209  0.16591  1.0000
  H   H1649     1.0  0.85931  0.48037  0.28022  1.0000
  H   H1650     1.0  0.98669  0.29157  0.36308  1.0000
  C   C984      1.0  0.89891  0.27423  0.35048  1.0000
  H   H1651     1.0  0.77756  0.39329  0.46034  1.0000
  C   C985      1.0  0.92381  0.25337  0.32360  1.0000
  C   C986      1.0  0.76440  0.48300  0.30679  1.0000
  H   H1652     1.0  0.56918  0.25503  0.01154  1.0000
  C   C987      1.0  0.85525  0.24835  0.21098  1.0000
  H   H1653     1.0  0.93448  0.26157  0.32175  1.0000
  H   H1654     1.0  0.78912  0.48267  0.44625  1.0000
  H   H1655     1.0  0.79239  0.44340  0.45302  1.0000
  H   H1656     1.0  0.75967  0.47004  0.33404  1.0000
  C   C988      1.0  0.97495  0.31983  0.35273  1.0000
  H   H1657     1.0  0.73767  0.24079  0.12150  1.0000
  Fe  Fe143     1.0  0.77047  0.24863  0.07706  1.0000
  H   H1658     1.0  0.72162  0.25509  0.14687  1.0000
  C   C989      1.0  0.81677  0.47497  0.45029  1.0000
  H   H1659     1.0  0.93264  0.24271  0.14060  1.0000
  H   H1660     1.0  0.97309  0.36919  0.32161  1.0000
  H   H1661     1.0  0.90568  0.25950  0.15175  1.0000
  N   N69       1.0  0.73097  0.24274  0.01275  1.0000
  H   H1662     1.0  0.83238  0.26332  0.15476  1.0000
  H   H1663     1.0  0.83445  0.24720  0.17521  1.0000
  C   C990      1.0  0.78581  0.39174  0.47071  1.0000
  C   C991      1.0  0.90904  0.24646  0.16070  1.0000
  N   N70       1.0  0.99209  0.32648  0.34289  1.0000
  H   H1664     1.0  0.52947  0.26465  0.98896  1.0000
  H   H1665     1.0  0.78781  0.47880  0.40933  1.0000
  H   H1666     1.0  0.74885  0.25114  0.02556  1.0000
  H   H1667     1.0  0.60506  0.24443  0.99695  1.0000
  H   H1668     1.0  0.82523  0.48520  0.40710  1.0000
  H   H1669     1.0  0.71146  0.24456  0.98555  1.0000
  H   H1670     1.0  0.83606  0.25087  0.27196  1.0000
  H   H1671     1.0  0.79531  0.36328  0.47034  1.0000
  H   H1672     1.0  0.90553  0.24895  0.17448  1.0000
  C   C992      1.0  0.62602  0.34957  0.98455  1.0000
  H   H1673     1.0  0.70224  0.24522  0.14963  1.0000
  C   C993      1.0  0.77206  0.29617  0.98166  1.0000
  N   N71       1.0  0.79805  0.25035  0.17171  1.0000
  C   C994      1.0  0.80388  0.24939  0.15217  1.0000
  H   H1674     1.0  0.89517  0.24354  0.31570  1.0000
  H   H1675     1.0  0.77865  0.24555  0.14569  1.0000
  C   C995      1.0  0.68939  0.40785  0.98305  1.0000
  H   H1676     1.0  0.79966  0.39337  0.46337  1.0000
  H   H1677     1.0  0.92625  0.24483  0.19076  1.0000
  C   C996      1.0  0.98750  0.34171  0.32796  1.0000
  C   C997      1.0  0.71718  0.24299  0.14527  1.0000
  H   H1678     1.0  0.89995  0.24168  0.21223  1.0000
  H   H1679     1.0  0.54017  0.24304  0.02130  1.0000
  C   C998      1.0  0.77692  0.42383  0.47004  1.0000
  H   H1680     1.0  0.69017  0.24302  0.00017  1.0000
  C   C999      1.0  0.72287  0.24089  0.12560  1.0000
  C   C1000     1.0  0.71694  0.24093  0.08867  1.0000
  H   H1681     1.0  0.79865  0.24073  0.12979  1.0000
  C   C1001     1.0  0.58460  0.24928  0.97999  1.0000
  H   H1682     1.0  0.73039  0.46474  0.47935  1.0000
  H   H1683     1.0  0.54238  0.41130  0.91537  1.0000
  C   C1002     1.0  0.75898  0.40292  0.49123  1.0000
  S   S289      1.0  0.74863  0.44284  0.53461  1.0000
  H   H1684     1.0  0.57436  0.30068  0.80084  1.0000
  H   H1685     1.0  0.72543  0.32083  0.93745  1.0000
  S   S290      1.0  0.53723  0.30160  0.86588  1.0000
  H   H1686     1.0  0.71337  0.32844  0.95739  1.0000
  C   C1003     1.0  0.79131  0.37671  0.63117  1.0000
  H   H1687     1.0  0.69758  0.38041  0.92551  1.0000
  Fe  Fe144     1.0  0.74603  0.47159  0.52067  1.0000
  H   H1688     1.0  0.75159  0.49020  0.65766  1.0000
  H   H1689     1.0  0.52445  0.42035  0.90383  1.0000
  Fe  Fe145     1.0  0.69163  0.45548  0.64096  1.0000
  S   S291      1.0  0.69195  0.46176  0.66719  1.0000
  S   S292      1.0  0.66411  0.45803  0.63511  1.0000
  Fe  Fe146     1.0  0.73238  0.44568  0.63196  1.0000
  S   S293      1.0  0.73629  0.45160  0.65735  1.0000
  S   S294      1.0  0.75650  0.43242  0.61444  1.0000
  Fe  Fe147     1.0  0.71321  0.43705  0.66968  1.0000
  S   S295      1.0  0.71162  0.41662  0.69472  1.0000
  Fe  Fe148     1.0  0.71471  0.47575  0.65224  1.0000
  H   H1690     1.0  0.65730  0.32522  0.97690  1.0000
  S   S296      1.0  0.71077  0.42931  0.64480  1.0000
  S   S297      1.0  0.71294  0.47138  0.62548  1.0000
  Fe  Fe149     1.0  0.61072  0.44554  0.93037  1.0000
  S   S298      1.0  0.60848  0.43516  0.90675  1.0000
  Fe  Fe150     1.0  0.63712  0.42075  0.90750  1.0000
  S   S299      1.0  0.65827  0.42046  0.88250  1.0000
  H   H1691     1.0  0.75913  0.38915  0.49918  1.0000
  Fe  Fe151     1.0  0.64707  0.45560  0.76470  1.0000
  C   C1004     1.0  0.73441  0.36709  0.94647  1.0000
  S   S300      1.0  0.67364  0.46417  0.75258  1.0000
  Fe  Fe152     1.0  0.62184  0.43169  0.76270  1.0000
  S   S301      1.0  0.59867  0.44580  0.78025  1.0000
  S   S302      1.0  0.61948  0.40897  0.75053  1.0000
  Fe  Fe153     1.0  0.60772  0.47116  0.76514  1.0000
  C   C1005     1.0  0.59982  0.38022  0.90158  1.0000
  Fe  Fe154     1.0  0.61928  0.44476  0.79655  1.0000
  S   S303      1.0  0.60922  0.43707  0.82555  1.0000
  S   S304      1.0  0.62899  0.45735  0.74565  1.0000
  S   S305      1.0  0.64196  0.42855  0.78014  1.0000
  C   C1006     1.0  0.57162  0.36755  0.89439  1.0000
  H   H1692     1.0  0.65241  0.47982  0.55865  1.0000
  C   C1007     1.0  0.51875  0.40841  0.86638  1.0000
  H   H1693     1.0  0.78927  0.39160  0.65155  1.0000
  H   H1694     1.0  0.72914  0.37875  0.90597  1.0000
  H   H1695     1.0  0.75382  0.41227  0.51664  1.0000
  H   H1696     1.0  0.64995  0.45773  0.58195  1.0000
  C   C1008     1.0  0.58156  0.38683  0.78925  1.0000
  Fe  Fe155     1.0  0.53043  0.36957  0.85485  1.0000
  H   H1697     1.0  0.73714  0.32958  0.94963  1.0000
  C   C1009     1.0  0.60340  0.39569  0.76266  1.0000
  C   C1010     1.0  0.60017  0.38236  0.75505  1.0000
  C   C1011     1.0  0.58770  0.37133  0.76444  1.0000
  C   C1012     1.0  0.59401  0.39799  0.77976  1.0000
  H   H1698     1.0  0.60735  0.38051  0.74185  1.0000
  S   S306      1.0  0.60066  0.42270  0.95018  1.0000
  H   H1699     1.0  0.59656  0.40814  0.78578  1.0000
  H   H1700     1.0  0.65710  0.48299  0.97895  1.0000
  C   C1013     1.0  0.60341  0.36907  0.88894  1.0000
  C   C1014     1.0  0.64672  0.42173  0.86540  1.0000
  C   C1015     1.0  0.62976  0.41674  0.86980  1.0000
  C   C1016     1.0  0.61872  0.42078  0.85715  1.0000
  C   C1017     1.0  0.62474  0.42950  0.83988  1.0000
  C   C1018     1.0  0.64230  0.43328  0.83497  1.0000
  C   C1019     1.0  0.65332  0.42943  0.84782  1.0000
  H   H1701     1.0  0.62482  0.41028  0.88317  1.0000
  H   H1702     1.0  0.60516  0.41783  0.86107  1.0000
  H   H1703     1.0  0.64699  0.44002  0.82161  1.0000
  H   H1704     1.0  0.66650  0.43326  0.84439  1.0000
  C   C1020     1.0  0.70277  0.42902  0.71177  1.0000
  C   C1021     1.0  0.70539  0.44676  0.70916  1.0000
  C   C1022     1.0  0.69694  0.45735  0.72207  1.0000
  C   C1023     1.0  0.68547  0.45036  0.73735  1.0000
  C   C1024     1.0  0.68288  0.43261  0.73997  1.0000
  C   C1025     1.0  0.69179  0.42182  0.72732  1.0000
  H   H1705     1.0  0.71392  0.45236  0.69717  1.0000
  N   N72       1.0  0.64196  0.46240  0.97942  1.0000
  H   H1706     1.0  0.67410  0.42716  0.75180  1.0000
  H   H1707     1.0  0.68967  0.40815  0.72931  1.0000
  H   H1708     1.0  0.53415  0.46451  0.78168  1.0000
  H   H1709     1.0  0.74773  0.48613  0.58127  1.0000
  C   C1026     1.0  0.75305  0.40263  0.66209  1.0000
  H   H1710     1.0  0.72347  0.39015  0.65708  1.0000
  H   H1711     1.0  0.53127  0.45011  0.89750  1.0000
  H   H1712     1.0  0.75048  0.41468  0.65162  1.0000
  H   H1713     1.0  0.53445  0.30683  0.77859  1.0000
  H   H1714     1.0  0.55865  0.31818  0.75751  1.0000
  H   H1715     1.0  0.73284  0.36640  0.65733  1.0000
  H   H1716     1.0  0.56926  0.45207  0.80782  1.0000
  H   H1717     1.0  0.62706  0.43907  0.96561  1.0000
  C   C1027     1.0  0.77777  0.47178  0.56320  1.0000
  H   H1718     1.0  0.64510  0.47275  0.59786  1.0000
  C   C1028     1.0  0.75032  0.43995  0.55691  1.0000
  C   C1029     1.0  0.76273  0.42558  0.56394  1.0000
  C   C1030     1.0  0.76460  0.42339  0.58164  1.0000
  C   C1031     1.0  0.75360  0.43518  0.59250  1.0000
  C   C1032     1.0  0.74083  0.44927  0.58561  1.0000
  C   C1033     1.0  0.73939  0.45181  0.56772  1.0000
  H   H1719     1.0  0.77117  0.41638  0.55559  1.0000
  H   H1720     1.0  0.77450  0.41250  0.58693  1.0000
  H   H1721     1.0  0.73241  0.45845  0.59391  1.0000
  H   H1722     1.0  0.72990  0.46290  0.56222  1.0000
  H   H1723     1.0  0.57171  0.42958  0.83631  1.0000
  H   H1724     1.0  0.58433  0.47112  0.84784  1.0000
  C   C1034     1.0  0.68482  0.41395  0.96624  1.0000
  C   C1035     1.0  0.56816  0.37805  0.90756  1.0000
  H   H1725     1.0  0.70314  0.39406  0.93772  1.0000
  S   S307      1.0  0.72440  0.48477  0.50482  1.0000
  C   C1036     1.0  0.50331  0.27194  0.86004  1.0000
  C   C1037     1.0  0.54775  0.30247  0.78274  1.0000
  H   H1726     1.0  0.62573  0.47136  0.64445  1.0000
  H   H1727     1.0  0.75068  0.40405  0.48105  1.0000
  H   H1728     1.0  0.78987  0.27112  0.97777  1.0000
  H   H1729     1.0  0.50977  0.29499  0.90473  1.0000
  C   C1038     1.0  0.55742  0.44612  0.81573  1.0000
  H   H1730     1.0  0.77460  0.41456  0.66646  1.0000
  H   H1731     1.0  0.67581  0.48995  0.63714  1.0000
  N   N73       1.0  0.54605  0.29966  0.80264  1.0000
  H   H1732     1.0  0.65481  0.46313  0.68652  1.0000
  H   H1733     1.0  0.59651  0.43239  0.70830  1.0000
  C   C1039     1.0  0.74820  0.41534  0.50432  1.0000
  C   C1040     1.0  0.52317  0.33000  0.80393  1.0000
  H   H1734     1.0  0.55124  0.45489  0.82580  1.0000
  H   H1735     1.0  0.76881  0.39583  0.68376  1.0000
  H   H1736     1.0  0.75403  0.41721  0.68239  1.0000
  N   N74       1.0  0.76225  0.38648  0.65366  1.0000
  C   C1041     1.0  0.76342  0.40761  0.67435  1.0000
  H   H1737     1.0  0.77394  0.30186  0.96761  1.0000
  H   H1738     1.0  0.70120  0.37619  0.96638  1.0000
  C   C1042     1.0  0.62456  0.43548  0.70397  1.0000
  N   N75       1.0  0.64404  0.42806  0.69663  1.0000
  C   C1043     1.0  0.65596  0.43639  0.70399  1.0000
  C   C1044     1.0  0.64825  0.40803  0.70308  1.0000
  C   C1045     1.0  0.64820  0.43320  0.67663  1.0000
  C   C1046     1.0  0.66777  0.39869  0.69658  1.0000
  C   C1047     1.0  0.63967  0.42413  0.66588  1.0000
  H   H1739     1.0  0.67048  0.43231  0.69813  1.0000
  H   H1740     1.0  0.63921  0.40082  0.69940  1.0000
  H   H1741     1.0  0.64561  0.40498  0.71790  1.0000
  H   H1742     1.0  0.64361  0.44788  0.67243  1.0000
  H   H1743     1.0  0.66306  0.43137  0.67136  1.0000
  H   H1744     1.0  0.66871  0.38392  0.70083  1.0000
  H   H1745     1.0  0.67180  0.40143  0.68190  1.0000
  H   H1746     1.0  0.67761  0.40247  0.70270  1.0000
  H   H1747     1.0  0.61057  0.42135  0.69105  1.0000
  H   H1748     1.0  0.62640  0.43227  0.66338  1.0000
  H   H1749     1.0  0.63809  0.41017  0.67193  1.0000
  H   H1750     1.0  0.64879  0.42316  0.65280  1.0000
  C   C1048     1.0  0.54594  0.41713  0.86943  1.0000
  H   H1751     1.0  0.50763  0.32221  0.84858  1.0000
  H   H1752     1.0  0.58356  0.48219  0.79431  1.0000
  H   H1753     1.0  0.79261  0.36272  0.63867  1.0000
  H   H1754     1.0  0.60453  0.44479  0.97730  1.0000
  C   C1049     1.0  0.55748  0.48712  0.91242  1.0000
  H   H1755     1.0  0.73690  0.37409  0.68268  1.0000
  S   S308      1.0  0.50824  0.39178  0.86348  1.0000
  N   N76       1.0  0.71640  0.36599  0.94282  1.0000
  H   H1756     1.0  0.52300  0.39777  0.94175  1.0000
  C   C1050     1.0  0.66688  0.48127  0.55484  1.0000
  C   C1051     1.0  0.53361  0.28645  0.81179  1.0000
  C   C1052     1.0  0.54426  0.43142  0.77737  1.0000
  Fe  Fe156     1.0  0.54208  0.32972  0.85530  1.0000
  H   H1757     1.0  0.51976  0.32815  0.79168  1.0000
  C   C1053     1.0  0.78025  0.39052  0.64280  1.0000
  C   C1054     1.0  0.77176  0.47316  0.60609  1.0000
  S   S309      1.0  0.76912  0.47793  0.49863  1.0000
  H   H1758     1.0  0.56237  0.29741  0.83325  1.0000
  H   H1759     1.0  0.55472  0.32970  0.77566  1.0000
  N   N77       1.0  0.52518  0.43503  0.92405  1.0000
  H   H1760     1.0  0.55195  0.48196  0.90362  1.0000
  C   C1055     1.0  0.55648  0.44150  0.90649  1.0000
  H   H1761     1.0  0.70644  0.34990  0.92916  1.0000
  H   H1762     1.0  0.54756  0.44967  0.94516  1.0000
  C   C1056     1.0  0.59044  0.46431  0.85963  1.0000
  C   C1057     1.0  0.53998  0.31698  0.80975  1.0000
  H   H1763     1.0  0.57994  0.46502  0.91424  1.0000
  H   H1764     1.0  0.74955  0.39676  0.63064  1.0000
  H   H1765     1.0  0.75956  0.47027  0.60310  1.0000
  H   H1766     1.0  0.50727  0.27946  0.81478  1.0000
  C   C1058     1.0  0.65525  0.46210  0.59193  1.0000
  S   S310      1.0  0.54227  0.34695  0.87448  1.0000
  H   H1767     1.0  0.55983  0.41344  0.87136  1.0000
  C   C1059     1.0  0.51930  0.29543  0.86004  1.0000
  H   H1768     1.0  0.55450  0.41952  0.83268  1.0000
  H   H1769     1.0  0.68313  0.45655  0.57864  1.0000
  H   H1770     1.0  0.61735  0.46528  0.84447  1.0000
  H   H1771     1.0  0.66621  0.41381  0.94968  1.0000
  H   H1772     1.0  0.54521  0.42208  0.94024  1.0000
  C   C1060     1.0  0.75069  0.36678  0.68401  1.0000
  H   H1773     1.0  0.76803  0.35744  0.66074  1.0000
  H   H1774     1.0  0.63646  0.35771  0.97697  1.0000
  C   C1061     1.0  0.51776  0.27731  0.86408  1.0000
  C   C1062     1.0  0.53571  0.44770  0.91036  1.0000
  H   H1775     1.0  0.75449  0.37023  0.69546  1.0000
  C   C1063     1.0  0.55122  0.43049  0.79450  1.0000
  H   H1776     1.0  0.57569  0.41975  0.81705  1.0000
  C   C1064     1.0  0.55951  0.31631  0.77174  1.0000
  C   C1065     1.0  0.56599  0.28566  0.82651  1.0000
  C   C1066     1.0  0.71887  0.35000  0.93402  1.0000
  H   H1777     1.0  0.67928  0.46892  0.59562  1.0000
  H   H1778     1.0  0.56055  0.42958  0.89994  1.0000
  C   C1067     1.0  0.51017  0.42648  0.86412  1.0000
  S   S311      1.0  0.63885  0.39453  0.97266  1.0000
  H   H1779     1.0  0.57401  0.31168  0.77253  1.0000
  S   S312      1.0  0.57752  0.39835  0.92706  1.0000
  H   H1780     1.0  0.73412  0.41273  0.50843  1.0000
  H   H1781     1.0  0.73946  0.40118  0.66989  1.0000
  C   C1068     1.0  0.58924  0.36300  0.88509  1.0000
  H   H1782     1.0  0.52561  0.34403  0.80113  1.0000
  C   C1069     1.0  0.72275  0.38932  0.91405  1.0000
  C   C1070     1.0  0.78744  0.41967  0.50536  1.0000
  H   H1783     1.0  0.50257  0.32151  0.88467  1.0000
  H   H1784     1.0  0.54948  0.41835  0.77277  1.0000
  C   C1071     1.0  0.61016  0.42446  0.70418  1.0000
  N   N78       1.0  0.62587  0.37450  0.82222  1.0000
  C   C1072     1.0  0.60559  0.38035  0.82720  1.0000
  C   C1073     1.0  0.62980  0.36981  0.80393  1.0000
  C   C1074     1.0  0.63462  0.39017  0.82186  1.0000
  C   C1075     1.0  0.63147  0.35860  0.83610  1.0000
  C   C1076     1.0  0.59880  0.39042  0.84302  1.0000
  C   C1077     1.0  0.62111  0.35435  0.80225  1.0000
  C   C1078     1.0  0.65436  0.38985  0.81186  1.0000
  C   C1079     1.0  0.65142  0.34904  0.83323  1.0000
  H   H1785     1.0  0.60011  0.38947  0.81583  1.0000
  H   H1786     1.0  0.59857  0.36863  0.83050  1.0000
  H   H1787     1.0  0.64447  0.36602  0.79887  1.0000
  H   H1788     1.0  0.62528  0.38186  0.79414  1.0000
  H   H1789     1.0  0.62678  0.40287  0.81544  1.0000
  H   H1790     1.0  0.63430  0.39190  0.83562  1.0000
  H   H1791     1.0  0.62865  0.36259  0.84933  1.0000
  H   H1792     1.0  0.62295  0.34819  0.83829  1.0000
  H   H1793     1.0  0.59906  0.40483  0.83843  1.0000
  H   H1794     1.0  0.58451  0.38935  0.84899  1.0000
  H   H1795     1.0  0.60672  0.38535  0.85371  1.0000
  H   H1796     1.0  0.60613  0.35734  0.80558  1.0000
  H   H1797     1.0  0.62470  0.35240  0.78820  1.0000
  H   H1798     1.0  0.62624  0.34148  0.81055  1.0000
  H   H1799     1.0  0.65568  0.39048  0.79739  1.0000
  H   H1800     1.0  0.66396  0.37833  0.81738  1.0000
  H   H1801     1.0  0.65870  0.40211  0.81323  1.0000
  H   H1802     1.0  0.65937  0.35452  0.84018  1.0000
  H   H1803     1.0  0.65806  0.34956  0.81915  1.0000
  H   H1804     1.0  0.65209  0.33449  0.83891  1.0000
  H   H1805     1.0  0.72448  0.39521  0.95142  1.0000
  H   H1806     1.0  0.77705  0.43140  0.50166  1.0000
  C   C1080     1.0  0.65809  0.40017  0.97647  1.0000
  H   H1807     1.0  0.73757  0.27436  0.97363  1.0000
  H   H1808     1.0  0.78376  0.41529  0.51998  1.0000
  C   C1081     1.0  0.78966  0.40361  0.49584  1.0000
  C   C1082     1.0  0.73472  0.38320  0.95484  1.0000
  C   C1083     1.0  0.76558  0.36943  0.66712  1.0000
  H   H1809     1.0  0.74704  0.42983  0.49856  1.0000
  H   H1810     1.0  0.56066  0.36277  0.89169  1.0000
  H   H1811     1.0  0.70353  0.48080  0.58820  1.0000
  H   H1812     1.0  0.71547  0.40068  0.90544  1.0000
  H   H1813     1.0  0.55529  0.24208  0.97194  1.0000
  H   H1814     1.0  0.61591  0.45745  0.86775  1.0000
  C   C1084     1.0  0.63297  0.48179  0.64443  1.0000
  C   C1085     1.0  0.53781  0.43523  0.86600  1.0000
  H   H1815     1.0  0.53038  0.28613  0.82636  1.0000
  H   H1816     1.0  0.74805  0.38751  0.94999  1.0000
  H   H1817     1.0  0.78548  0.37785  0.61922  1.0000
  H   H1818     1.0  0.56266  0.45230  0.89693  1.0000
  H   H1819     1.0  0.52751  0.43098  0.82580  1.0000
  S   S313      1.0  0.56972  0.33261  0.83962  1.0000
  H   H1820     1.0  0.51339  0.45397  0.86143  1.0000
  H   H1821     1.0  0.68453  0.34910  0.95473  1.0000
  C   C1086     1.0  0.51974  0.43996  0.86391  1.0000
  H   H1822     1.0  0.53704  0.31415  0.82453  1.0000
  H   H1823     1.0  0.66795  0.46020  0.96155  1.0000
  C   C1087     1.0  0.70322  0.36413  0.96023  1.0000
  H   H1824     1.0  0.55459  0.38105  0.91501  1.0000
  H   H1825     1.0  0.57033  0.27907  0.80051  1.0000
  H   H1826     1.0  0.75807  0.37324  0.63373  1.0000
  C   C1088     1.0  0.73211  0.38013  0.64922  1.0000
  Fe  Fe157     1.0  0.56885  0.35173  0.85736  1.0000
  C   C1089     1.0  0.53330  0.44758  0.94846  1.0000
  S   S314      1.0  0.55096  0.45158  0.86332  1.0000
  H   H1827     1.0  0.56617  0.42888  0.79019  1.0000
  H   H1828     1.0  0.53283  0.46122  0.91400  1.0000
  N   N79       1.0  0.77790  0.40580  0.48234  1.0000
  H   H1829     1.0  0.56257  0.43884  0.91846  1.0000
  H   H1830     1.0  0.55338  0.28947  0.77798  1.0000
  H   H1831     1.0  0.51686  0.28697  0.79226  1.0000
  C   C1090     1.0  0.65190  0.47870  0.64028  1.0000
  H   H1832     1.0  0.52766  0.26739  0.87053  1.0000
  H   H1833     1.0  0.52431  0.46019  0.94381  1.0000
  H   H1834     1.0  0.61709  0.36556  0.88185  1.0000
  C   C1091     1.0  0.53167  0.43100  0.94144  1.0000
  H   H1835     1.0  0.65701  0.45024  0.60274  1.0000
  H   H1836     1.0  0.62780  0.33831  0.97733  1.0000
  H   H1837     1.0  0.52259  0.42331  0.95205  1.0000
  C   C1092     1.0  0.66927  0.40985  0.96287  1.0000
  H   H1838     1.0  0.72510  0.38037  0.63828  1.0000
  H   H1839     1.0  0.72969  0.35084  0.92191  1.0000
  C   C1093     1.0  0.68420  0.36171  0.95927  1.0000
  H   H1840     1.0  0.54857  0.41765  0.80348  1.0000
  H   H1841     1.0  0.58024  0.27957  0.82762  1.0000
  Fe  Fe158     1.0  0.55546  0.35630  0.82283  1.0000
  H   H1842     1.0  0.80521  0.37969  0.62618  1.0000
  H   H1843     1.0  0.73255  0.37938  0.96956  1.0000
  H   H1844     1.0  0.74980  0.35229  0.68790  1.0000
  C   C1094     1.0  0.75115  0.38438  0.64101  1.0000
  H   H1845     1.0  0.70103  0.47731  0.55711  1.0000
  C   C1095     1.0  0.58220  0.38467  0.91098  1.0000
  C   C1096     1.0  0.64888  0.47305  0.94508  1.0000
  H   H1846     1.0  0.80048  0.42445  0.50284  1.0000
  C   C1097     1.0  0.53641  0.40374  0.86963  1.0000
  H   H1847     1.0  0.65470  0.43157  0.71864  1.0000
  C   C1098     1.0  0.56510  0.42757  0.82595  1.0000
  H   H1848     1.0  0.58532  0.36104  0.75843  1.0000
  S   S315      1.0  0.64006  0.43340  0.92938  1.0000
  H   H1849     1.0  0.50696  0.30278  0.80736  1.0000
  H   H1850     1.0  0.58137  0.46774  0.87196  1.0000
  C   C1099     1.0  0.65243  0.45711  0.70083  1.0000
  H   H1851     1.0  0.69367  0.42114  0.95567  1.0000
  C   C1100     1.0  0.51753  0.40331  0.92936  1.0000
  Fe  Fe159     1.0  0.60114  0.41092  0.92658  1.0000
  C   C1101     1.0  0.51526  0.28943  0.80595  1.0000
  H   H1852     1.0  0.62026  0.44926  0.69659  1.0000
  H   H1853     1.0  0.66201  0.46143  0.70693  1.0000
  H   H1854     1.0  0.61130  0.41185  0.71420  1.0000
  H   H1855     1.0  0.73927  0.35499  0.95596  1.0000
  C   C1102     1.0  0.57848  0.37339  0.78162  1.0000
  H   H1856     1.0  0.54044  0.27251  0.81005  1.0000
  H   H1857     1.0  0.73336  0.39455  0.91773  1.0000
  H   H1858     1.0  0.60625  0.36344  0.96795  1.0000
  S   S316      1.0  0.62630  0.47151  0.78299  1.0000
  H   H1859     1.0  0.61072  0.38527  0.90407  1.0000
  H   H1860     1.0  0.62300  0.43694  0.71806  1.0000
  C   C1103     1.0  0.52627  0.44415  0.81655  1.0000
  H   H1861     1.0  0.64465  0.46010  0.86608  1.0000
  H   H1862     1.0  0.51336  0.24442  0.94165  1.0000
  H   H1863     1.0  0.57433  0.38862  0.80241  1.0000
  C   C1104     1.0  0.70910  0.38263  0.93056  1.0000
  H   H1864     1.0  0.63464  0.47270  0.88374  1.0000
  H   H1865     1.0  0.63858  0.46277  0.70715  1.0000
  H   H1866     1.0  0.76862  0.47294  0.62066  1.0000
  H   H1867     1.0  0.78832  0.46574  0.55289  1.0000
  C   C1105     1.0  0.67371  0.46800  0.58416  1.0000
  H   H1868     1.0  0.54290  0.38978  0.87195  1.0000
  C   C1106     1.0  0.69233  0.48859  0.56343  1.0000
  S   S317      1.0  0.52759  0.35185  0.83709  1.0000
  H   H1869     1.0  0.74526  0.36666  0.93439  1.0000
  N   N80       1.0  0.54414  0.44614  0.80424  1.0000
  C   C1107     1.0  0.78758  0.37188  0.48015  1.0000
  H   H1870     1.0  0.67726  0.37335  0.95072  1.0000
  H   H1871     1.0  0.55119  0.32473  0.80657  1.0000
  H   H1872     1.0  0.78734  0.39170  0.50643  1.0000
  Fe  Fe160     1.0  0.62980  0.40962  0.94746  1.0000
  S   S318      1.0  0.62960  0.39565  0.92558  1.0000
  S   S319      1.0  0.56340  0.35882  0.79307  1.0000
  S   S320      1.0  0.55714  0.37592  0.83901  1.0000
  H   H1873     1.0  0.76478  0.47344  0.55884  1.0000
  H   H1874     1.0  0.61629  0.47177  0.97014  1.0000
  H   H1875     1.0  0.70875  0.35272  0.97003  1.0000
  H   H1876     1.0  0.59112  0.44975  0.86045  1.0000
  C   C1108     1.0  0.52790  0.41776  0.91726  1.0000
  S   S321      1.0  0.59369  0.35015  0.86831  1.0000
  H   H1877     1.0  0.51109  0.32909  0.81473  1.0000
  H   H1878     1.0  0.55767  0.27541  0.83380  1.0000
  H   H1879     1.0  0.67454  0.46828  0.55097  1.0000
  H   H1880     1.0  0.77843  0.40384  0.63379  1.0000
  H   H1881     1.0  0.77820  0.36873  0.67205  1.0000
  C   C1109     1.0  0.56468  0.29128  0.80665  1.0000
  C   C1110     1.0  0.72397  0.33133  0.94550  1.0000
  H   H1882     1.0  0.52978  0.44491  0.96321  1.0000
  H   H1883     1.0  0.69891  0.47109  0.71999  1.0000
  H   H1884     1.0  0.61247  0.25339  0.97405  1.0000
  C   C1111     1.0  0.50657  0.30818  0.85157  1.0000
  C   C1112     1.0  0.60965  0.46803  0.85772  1.0000
  H   H1885     1.0  0.52937  0.43369  0.77928  1.0000
  H   H1886     1.0  0.77794  0.46202  0.57576  1.0000
  H   H1887     1.0  0.49939  0.27775  0.91919  1.0000
  H   H1888     1.0  0.52228  0.45400  0.82574  1.0000
  C   C1113     1.0  0.53642  0.48077  0.79929  1.0000
  H   H1889     1.0  0.50903  0.43177  0.80602  1.0000
  H   H1890     1.0  0.79516  0.36887  0.49115  1.0000
  H   H1891     1.0  0.65409  0.46649  0.93324  1.0000
  H   H1892     1.0  0.51949  0.39195  0.92225  1.0000
  N   N81       1.0  0.61078  0.48656  0.85991  1.0000
  Fe  Fe161     1.0  0.53615  0.47984  0.86287  1.0000
  H   H1893     1.0  0.54841  0.27224  0.97299  1.0000
  H   H1894     1.0  0.78325  0.46202  0.60332  1.0000
  H   H1895     1.0  0.50971  0.45499  0.79542  1.0000
  H   H1896     1.0  0.80422  0.40054  0.48953  1.0000
  C   C1114     1.0  0.50989  0.44525  0.80802  1.0000
  N   N82       1.0  0.67335  0.48493  0.57024  1.0000
  C   C1115     1.0  0.57334  0.47758  0.91840  1.0000
  S   S322      1.0  0.60142  0.47363  0.93587  1.0000
  C   C1116     1.0  0.54310  0.46365  0.79112  1.0000
  H   H1897     1.0  0.77423  0.36764  0.48488  1.0000
  C   C1117     1.0  0.61901  0.44326  0.97804  1.0000
  H   H1898     1.0  0.55668  0.46472  0.78259  1.0000
  H   H1899     1.0  0.50377  0.45767  0.92953  1.0000
  H   H1900     1.0  0.54958  0.44184  0.76646  1.0000
  H   H1901     1.0  0.65482  0.47760  0.86849  1.0000
  H   H1902     1.0  0.50222  0.25788  0.86316  1.0000
  H   H1903     1.0  0.64784  0.48899  0.72609  1.0000
  H   H1904     1.0  0.50043  0.34287  0.89068  1.0000
  C   C1118     1.0  0.50544  0.44378  0.92703  1.0000
  C   C1119     1.0  0.64158  0.47365  0.86965  1.0000
  H   H1905     1.0  0.65465  0.44581  0.95931  1.0000
  C   C1120     1.0  0.58083  0.48461  0.92935  1.0000
  C   C1121     1.0  0.60079  0.48946  0.87827  1.0000
  C   C1122     1.0  0.65368  0.45959  0.96169  1.0000
  H   H1906     1.0  0.50278  0.40828  0.93265  1.0000
  H   H1907     1.0  0.79162  0.48977  0.59440  1.0000
  C   C1123     1.0  0.63061  0.48743  0.85679  1.0000
  C   C1124     1.0  0.78180  0.49006  0.56411  1.0000
  H   H1908     1.0  0.52241  0.48130  0.80701  1.0000
  S   S323      1.0  0.51129  0.48859  0.88235  1.0000
  H   H1909     1.0  0.63421  0.47714  0.94535  1.0000
  H   H1910     1.0  0.60287  0.47666  0.88799  1.0000
  H   H1911     1.0  0.63731  0.48534  0.84304  1.0000
  H   H1912     1.0  0.67574  0.36097  0.97281  1.0000
  H   H1913     1.0  0.65508  0.48515  0.94292  1.0000
  H   H1914     1.0  0.54561  0.48204  0.80768  1.0000
  H   H1915     1.0  0.50220  0.45256  0.89887  1.0000
  H   H1916     1.0  0.58487  0.24925  0.96577  1.0000
  H   H1917     1.0  0.79641  0.48764  0.56478  1.0000
  H   H1918     1.0  0.95169  0.59126  0.29964  1.0000
  H   H1919     1.0  0.92861  0.59818  0.31021  1.0000
  H   H1920     1.0  0.93665  0.50397  0.37479  1.0000
  H   H1921     1.0  0.81620  0.51241  0.44116  1.0000
  H   H1922     1.0  0.98763  0.62013  0.41197  1.0000
  S   S324      1.0  0.90160  0.52290  0.36489  1.0000
  H   H1923     1.0  0.94824  0.65905  0.46985  1.0000
  S   S325      1.0  0.88916  0.67857  0.46892  1.0000
  H   H1924     1.0  0.91330  0.69869  0.43836  1.0000
  H   H1925     1.0  0.91530  0.62900  0.43718  1.0000
  N   N83       1.0  0.80483  0.49960  0.42545  1.0000
  Fe  Fe162     1.0  0.98994  0.72634  0.40157  1.0000
  H   H1926     1.0  0.96123  0.52209  0.46747  1.0000
  S   S326      1.0  0.93190  0.70982  0.39812  1.0000
  H   H1927     1.0  0.97897  0.51053  0.44115  1.0000
  Fe  Fe163     1.0  0.95456  0.56918  0.41671  1.0000
  S   S327      1.0  0.93348  0.59399  0.41245  1.0000
  S   S328      1.0  0.95589  0.54402  0.40497  1.0000
  Fe  Fe164     1.0  0.97317  0.58731  0.43872  1.0000
  S   S329      1.0  0.95284  0.61265  0.43574  1.0000
  Fe  Fe165     1.0  0.93247  0.59450  0.44116  1.0000
  H   H1928     1.0  0.99463  0.68259  0.41571  1.0000
  Fe  Fe166     1.0  0.95635  0.60917  0.40751  1.0000
  S   S330      1.0  0.96414  0.63069  0.38437  1.0000
  S   S331      1.0  0.95251  0.56901  0.44594  1.0000
  S   S332      1.0  0.97781  0.58441  0.40994  1.0000
  H   H1929     1.0  0.88809  0.71679  0.46754  1.0000
  H   H1930     1.0  0.94428  0.60400  0.32937  1.0000
  C   C1125     1.0  0.96477  0.54984  0.33770  1.0000
  H   H1931     1.0  0.94545  0.72954  0.45835  1.0000
  H   H1932     1.0  0.97759  0.53475  0.46778  1.0000
  C   C1126     1.0  0.78733  0.51645  0.45103  1.0000
  C   C1127     1.0  0.94127  0.68787  0.39444  1.0000
  C   C1128     1.0  0.95730  0.68435  0.38214  1.0000
  C   C1129     1.0  0.96411  0.66678  0.37890  1.0000
  C   C1130     1.0  0.95525  0.65262  0.38839  1.0000
  C   C1131     1.0  0.93941  0.65611  0.40091  1.0000
  C   C1132     1.0  0.93225  0.67378  0.40363  1.0000
  H   H1933     1.0  0.96414  0.69524  0.37478  1.0000
  H   H1934     1.0  0.97626  0.66416  0.36906  1.0000
  H   H1935     1.0  0.93238  0.64530  0.40811  1.0000
  H   H1936     1.0  0.91966  0.67662  0.41282  1.0000
  C   C1133     1.0  0.91583  0.52721  0.37811  1.0000
  C   C1134     1.0  0.93256  0.51620  0.38024  1.0000
  C   C1135     1.0  0.94437  0.52134  0.38881  1.0000
  C   C1136     1.0  0.93968  0.53747  0.39561  1.0000
  C   C1137     1.0  0.92270  0.54819  0.39401  1.0000
  C   C1138     1.0  0.91098  0.54315  0.38526  1.0000
  H   H1937     1.0  0.77830  0.49803  0.39515  1.0000
  H   H1938     1.0  0.95738  0.51284  0.38992  1.0000
  H   H1939     1.0  0.91868  0.56053  0.39927  1.0000
  H   H1940     1.0  0.89809  0.55179  0.38385  1.0000
  C   C1139     1.0  0.90007  0.62012  0.46309  1.0000
  C   C1140     1.0  0.97440  0.66587  0.42502  1.0000
  H   H1941     1.0  0.95304  0.60870  0.35266  1.0000
  H   H1942     1.0  0.81731  0.51577  0.38844  1.0000
  C   C1141     1.0  0.89221  0.65630  0.46636  1.0000
  C   C1142     1.0  0.82651  0.51331  0.39800  1.0000
  C   C1143     1.0  0.90690  0.63298  0.44919  1.0000
  H   H1943     1.0  0.77629  0.50520  0.42432  1.0000
  H   H1944     1.0  0.90796  0.56313  0.34987  1.0000
  C   C1144     1.0  0.99833  0.51214  0.40854  1.0000
  H   H1945     1.0  0.90852  0.66097  0.44023  1.0000
  H   H1946     1.0  0.93905  0.57474  0.31154  1.0000
  S   S333      1.0  0.99580  0.58463  0.45435  1.0000
  C   C1145     1.0  0.90290  0.65108  0.45080  1.0000
  H   H1947     1.0  0.94122  0.64098  0.46427  1.0000
  H   H1948     1.0  0.94041  0.55023  0.35753  1.0000
  H   H1949     1.0  0.96374  0.67815  0.42541  1.0000
  H   H1950     1.0  0.77156  0.49108  0.31193  1.0000
  H   H1951     1.0  0.91826  0.59931  0.34985  1.0000
  H   H1952     1.0  0.95697  0.59760  0.37414  1.0000
  H   H1953     1.0  0.93673  0.61224  0.47424  1.0000
  C   C1146     1.0  0.91913  0.70728  0.44424  1.0000
  C   C1147     1.0  0.88852  0.62543  0.47829  1.0000
  C   C1148     1.0  0.94815  0.58956  0.32821  1.0000
  C   C1149     1.0  0.91252  0.72755  0.43791  1.0000
  C   C1150     1.0  0.95187  0.57959  0.35910  1.0000
  H   H1954     1.0  0.78925  0.51877  0.40737  1.0000
  H   H1955     1.0  0.93438  0.60284  0.37033  1.0000
  C   C1151     1.0  0.82304  0.49729  0.41320  1.0000
  C   C1152     1.0  0.88624  0.73137  0.46175  1.0000
  H   H1956     1.0  0.89400  0.58467  0.35008  1.0000
  H   H1957     1.0  0.78780  0.52794  0.45708  1.0000
  S   S334      1.0  0.86951  0.49089  0.35974  1.0000
  C   C1153     1.0  0.78982  0.49243  0.40222  1.0000
  C   C1154     1.0  0.94865  0.59835  0.36411  1.0000
  H   H1958     1.0  0.98370  0.51145  0.41212  1.0000
  C   C1155     1.0  0.88363  0.72319  0.43368  1.0000
  H   H1959     1.0  0.88243  0.70993  0.44242  1.0000
  S   S335      1.0  0.90733  0.59735  0.46212  1.0000
  H   H1960     1.0  0.80309  0.52758  0.42659  1.0000
  H   H1961     1.0  0.96322  0.58738  0.32491  1.0000
  H   H1962     1.0  0.84052  0.51012  0.39039  1.0000
  Fe  Fe167     1.0  0.95198  0.72679  0.39817  1.0000
  C   C1156     1.0  0.99602  0.62601  0.41804  1.0000
  H   H1963     1.0  0.93400  0.70403  0.43980  1.0000
  H   H1964     1.0  0.82553  0.52580  0.40302  1.0000
  H   H1965     1.0  0.98294  0.51019  0.47109  1.0000
  S   S336      1.0  0.97737  0.72962  0.37779  1.0000
  H   H1966     1.0  0.90989  0.58064  0.33037  1.0000
  H   H1967     1.0  0.99358  0.54032  0.40989  1.0000
  H   H1968     1.0  0.77426  0.51953  0.44642  1.0000
  S   S337      1.0  0.96528  0.72107  0.42192  1.0000
  C   C1157     1.0  0.98163  0.52326  0.44340  1.0000
  H   H1969     1.0  0.98684  0.62283  0.46084  1.0000
  N   N84       1.0  0.94151  0.57793  0.34558  1.0000
  C   C1158     1.0  0.92162  0.58434  0.35235  1.0000
  C   C1159     1.0  0.90786  0.57773  0.34502  1.0000
  H   H1970     1.0  0.91645  0.70350  0.45893  1.0000
  H   H1971     1.0  0.78750  0.50450  0.46185  1.0000
  H   H1972     1.0  0.96520  0.53582  0.33623  1.0000
  H   H1973     1.0  0.80230  0.49138  0.39188  1.0000
  C   C1160     1.0  0.94496  0.55829  0.34432  1.0000
  H   H1974     1.0  0.97185  0.53419  0.43699  1.0000
  H   H1975     1.0  0.97674  0.66083  0.43879  1.0000
  H   H1976     1.0  0.97337  0.72067  0.47370  1.0000
  C   C1161     1.0  0.94072  0.64777  0.47540  1.0000
  C   C1162     1.0  0.78964  0.50486  0.41513  1.0000
  H   H1977     1.0  0.96870  0.65620  0.42045  1.0000
  Fe  Fe168     1.0  0.89751  0.49610  0.35918  1.0000
  H   H1978     1.0  0.61578  0.49653  0.98326  1.0000
  H   H1979     1.0  0.93687  0.55551  0.33563  1.0000
  H   H1980     1.0  0.83419  0.49478  0.42073  1.0000
  C   C1163     1.0  0.80374  0.51427  0.43562  1.0000
  H   H1981     1.0  0.99318  0.55432  0.43461  1.0000
  H   H1982     1.0  0.99514  0.64573  0.39384  1.0000
  H   H1983     1.0  0.91788  0.73079  0.42341  1.0000
  H   H1984     1.0  0.94866  0.56997  0.37173  1.0000
  H   H1985     1.0  0.91819  0.58012  0.36707  1.0000
  H   H1986     1.0  0.96672  0.57600  0.35441  1.0000
  H   H1987     1.0  0.97345  0.54887  0.34744  1.0000
  H   H1988     1.0  0.97051  0.55708  0.32449  1.0000
  H   H1989     1.0  0.75153  0.49202  0.30423  1.0000
  C   C1164     1.0  0.94125  0.58826  0.31170  1.0000
  H   H1990     1.0  0.83986  0.61939  0.47181  1.0000
  H   H1991     1.0  0.85933  0.72133  0.42528  1.0000
  N   N85       1.0  0.89235  0.73414  0.44183  1.0000
  C   C1165     1.0  0.97592  0.52261  0.46360  1.0000
  H   H1992     1.0  0.96020  0.60874  0.47428  1.0000
  H   H1993     1.0  0.85489  0.73620  0.44070  1.0000
  H   H1994     1.0  0.98714  0.63072  0.42986  1.0000
  H   H1995     1.0  0.98692  0.67611  0.39893  1.0000
  H   H1996     1.0  0.91964  0.73469  0.44400  1.0000
  C   C1166     1.0  0.99141  0.67090  0.41185  1.0000
  H   H1997     1.0  0.89499  0.73643  0.46821  1.0000
  H   H1998     1.0  0.89231  0.72003  0.42087  1.0000
  H   H1999     1.0  0.85760  0.72902  0.47041  1.0000
  C   C1167     1.0  0.86475  0.73163  0.42927  1.0000
  C   C1168     1.0  0.93693  0.73836  0.46705  1.0000
  C   C1169     1.0  0.86637  0.73900  0.46906  1.0000
  H   H2000     1.0  0.65308  0.54689  0.68186  1.0000
  H   H2001     1.0  0.96169  0.57900  0.48470  1.0000
  C   C1170     1.0  0.81662  0.63543  0.57071  1.0000
  H   H2002     1.0  0.50930  0.57943  0.78105  1.0000
  C   C1171     1.0  0.68269  0.54152  0.55302  1.0000
  C   C1172     1.0  0.51450  0.62694  0.66958  1.0000
  H   H2003     1.0  0.81048  0.63965  0.52300  1.0000
  H   H2004     1.0  0.73201  0.53199  0.68403  1.0000
  H   H2005     1.0  0.67319  0.64532  0.52898  1.0000
  H   H2006     1.0  0.94753  0.64296  0.50138  1.0000
  Fe  Fe169     1.0  0.89565  0.70648  0.51681  1.0000
  S   S338      1.0  0.91479  0.68571  0.50265  1.0000
  C   C1173     1.0  0.87520  0.64558  0.59589  1.0000
  Fe  Fe170     1.0  0.86851  0.68151  0.53390  1.0000
  S   S339      1.0  0.88559  0.65894  0.52072  1.0000
  S   S340      1.0  0.84131  0.67865  0.55130  1.0000
  H   H2007     1.0  0.99594  0.70892  0.51686  1.0000
  Fe  Fe171     1.0  0.88972  0.68038  0.49670  1.0000
  H   H2008     1.0  0.61459  0.49718  0.89619  1.0000
  S   S341      1.0  0.89133  0.68799  0.54322  1.0000
  S   S342      1.0  0.87088  0.70247  0.50907  1.0000
  H   H2009     1.0  0.55787  0.59499  0.60321  1.0000
  H   H2010     1.0  0.56376  0.58537  0.66739  1.0000
  S   S343      1.0  0.74015  0.62122  0.61619  1.0000
  C   C1174     1.0  0.78080  0.53424  0.52078  1.0000
  H   H2011     1.0  0.69247  0.50069  0.55284  1.0000
  Fe  Fe172     1.0  0.65626  0.58402  0.63774  1.0000
  S   S344      1.0  0.66445  0.58963  0.60813  1.0000
  S   S345      1.0  0.66440  0.59983  0.65426  1.0000
  Fe  Fe173     1.0  0.63790  0.55368  0.63763  1.0000
  S   S346      1.0  0.64492  0.55617  0.60806  1.0000
  S   S347      1.0  0.62094  0.53316  0.65260  1.0000
  Fe  Fe174     1.0  0.67207  0.55978  0.61076  1.0000
  S   S348      1.0  0.69924  0.54881  0.59569  1.0000
  Fe  Fe175     1.0  0.63677  0.58568  0.60792  1.0000
  S   S349      1.0  0.62279  0.60272  0.58634  1.0000
  S   S350      1.0  0.66597  0.55434  0.64056  1.0000
  S   S351      1.0  0.62749  0.58312  0.63744  1.0000
  Fe  Fe176     1.0  0.56318  0.67815  0.62570  1.0000
  S   S352      1.0  0.54292  0.66081  0.62747  1.0000
  S   S353      1.0  0.58614  0.67991  0.60241  1.0000
  Fe  Fe177     1.0  0.54576  0.68971  0.66094  1.0000
  S   S354      1.0  0.52418  0.67322  0.66586  1.0000
  S   S355      1.0  0.54512  0.70457  0.68257  1.0000
  Fe  Fe178     1.0  0.54663  0.65209  0.65578  1.0000
  S   S356      1.0  0.55015  0.62375  0.67066  1.0000
  Fe  Fe179     1.0  0.52244  0.68371  0.63727  1.0000
  H   H2012     1.0  0.82688  0.56564  0.52411  1.0000
  S   S357      1.0  0.56849  0.66760  0.65331  1.0000
  S   S358      1.0  0.54250  0.70197  0.63297  1.0000
  H   H2013     1.0  0.84080  0.57896  0.50749  1.0000
  H   H2014     1.0  0.83361  0.59786  0.48195  1.0000
  H   H2015     1.0  0.79471  0.56415  0.53806  1.0000
  S   S359      1.0  0.71378  0.50333  0.65686  1.0000
  H   H2016     1.0  0.91291  0.59805  0.50282  1.0000
  H   H2017     1.0  0.58117  0.54583  0.62526  1.0000
  C   C1175     1.0  0.66822  0.49564  0.53768  1.0000
  H   H2018     1.0  0.72856  0.58853  0.69124  1.0000
  H   H2019     1.0  0.58697  0.58704  0.66360  1.0000
  H   H2020     1.0  0.71466  0.55353  0.65179  1.0000
  C   C1176     1.0  0.61239  0.62405  0.59092  1.0000
  C   C1177     1.0  0.60428  0.62632  0.60829  1.0000
  C   C1178     1.0  0.59545  0.64339  0.61173  1.0000
  C   C1179     1.0  0.59569  0.65835  0.59795  1.0000
  C   C1180     1.0  0.60416  0.65612  0.58063  1.0000
  C   C1181     1.0  0.61215  0.63891  0.57705  1.0000
  H   H2021     1.0  0.60460  0.61494  0.61903  1.0000
  H   H2022     1.0  0.58883  0.64503  0.62513  1.0000
  H   H2023     1.0  0.60425  0.66767  0.56995  1.0000
  H   H2024     1.0  0.61838  0.63717  0.56358  1.0000
  C   C1182     1.0  0.71883  0.61558  0.62618  1.0000
  C   C1183     1.0  0.70773  0.62468  0.63942  1.0000
  C   C1184     1.0  0.69104  0.61977  0.64815  1.0000
  C   C1185     1.0  0.68531  0.60589  0.64349  1.0000
  C   C1186     1.0  0.69637  0.59684  0.63026  1.0000
  C   C1187     1.0  0.71300  0.60176  0.62156  1.0000
  Fe  Fe180     1.0  0.90854  0.66687  0.52828  1.0000
  H   H2025     1.0  0.68263  0.62672  0.65850  1.0000
  H   H2026     1.0  0.69242  0.58566  0.62701  1.0000
  H   H2027     1.0  0.72139  0.59465  0.61147  1.0000
  C   C1188     1.0  0.75060  0.49973  0.58000  1.0000
  H   H2028     1.0  0.65071  0.68278  0.64124  1.0000
  C   C1189     1.0  0.83741  0.65647  0.55831  1.0000
  C   C1190     1.0  0.81981  0.65317  0.56544  1.0000
  H   H2029     1.0  0.63603  0.65700  0.65796  1.0000
  C   C1191     1.0  0.76402  0.52599  0.62673  1.0000
  H   H2030     1.0  0.80862  0.66435  0.56674  1.0000
  H   H2031     1.0  0.62282  0.62434  0.65279  1.0000
  H   H2032     1.0  0.58119  0.56809  0.65847  1.0000
  H   H2033     1.0  0.87831  0.67370  0.58483  1.0000
  H   H2034     1.0  0.84755  0.63655  0.50242  1.0000
  H   H2035     1.0  0.58615  0.56502  0.60894  1.0000
  N   N86       1.0  0.94296  0.61746  0.49782  1.0000
  H   H2036     1.0  0.91843  0.59706  0.52443  1.0000
  C   C1192     1.0  0.97470  0.67119  0.54818  1.0000
  C   C1193     1.0  0.81736  0.59432  0.52354  1.0000
  Fe  Fe181     1.0  0.76976  0.58689  0.56608  1.0000
  S   S360      1.0  0.78501  0.58600  0.60996  1.0000
  H   H2037     1.0  0.91202  0.61218  0.60217  1.0000
  H   H2038     1.0  0.50123  0.66238  0.70225  1.0000
  H   H2039     1.0  0.97781  0.59576  0.49692  1.0000
  H   H2040     1.0  0.63091  0.49919  0.96197  1.0000
  H   H2041     1.0  0.76555  0.52657  0.58466  1.0000
  C   C1194     1.0  0.83110  0.62102  0.56899  1.0000
  C   C1195     1.0  0.76568  0.50990  0.63911  1.0000
  C   C1196     1.0  0.70970  0.55806  0.66477  1.0000
  H   H2042     1.0  0.77920  0.63588  0.53421  1.0000
  C   C1197     1.0  0.84015  0.61283  0.52206  1.0000
  H   H2043     1.0  0.96428  0.63284  0.48523  1.0000
  C   C1198     1.0  0.52879  0.61783  0.67818  1.0000
  S   S361      1.0  0.52876  0.51529  0.91060  1.0000
  H   H2044     1.0  0.64777  0.50204  0.60463  1.0000
  C   C1199     1.0  0.63274  0.51208  0.64818  1.0000
  H   H2045     1.0  0.53705  0.59689  0.69940  1.0000
  H   H2046     1.0  0.96999  0.69844  0.51181  1.0000
  H   H2047     1.0  0.49906  0.64064  0.79333  1.0000
  C   C1200     1.0  0.57889  0.49657  0.79242  1.0000
  H   H2048     1.0  0.51435  0.57160  0.84974  1.0000
  H   H2049     1.0  0.59568  0.52792  0.83365  1.0000
  H   H2050     1.0  0.74109  0.53699  0.66143  1.0000
  C   C1201     1.0  0.63955  0.54669  0.69055  1.0000
  C   C1202     1.0  0.66696  0.50512  0.68802  1.0000
  C   C1203     1.0  0.94740  0.65594  0.54228  1.0000
  C   C1204     1.0  0.67856  0.59620  0.55940  1.0000
  C   C1205     1.0  0.73365  0.57522  0.66011  1.0000
  H   H2051     1.0  0.60476  0.53773  0.70074  1.0000
  H   H2052     1.0  0.57140  0.62532  0.59516  1.0000
  H   H2053     1.0  0.52583  0.58356  0.63264  1.0000
  C   C1206     1.0  0.76274  0.54266  0.52117  1.0000
  H   H2054     1.0  0.60378  0.68975  0.63401  1.0000
  C   C1207     1.0  0.94141  0.72611  0.53284  1.0000
  H   H2055     1.0  0.85130  0.60297  0.51610  1.0000
  C   C1208     1.0  0.97927  0.65631  0.53971  1.0000
  H   H2056     1.0  0.67382  0.67840  0.63040  1.0000
  C   C1209     1.0  0.73821  0.54248  0.67390  1.0000
  H   H2057     1.0  0.59285  0.56078  0.63030  1.0000
  C   C1210     1.0  0.64119  0.53424  0.70872  1.0000
  H   H2058     1.0  0.61234  0.66169  0.62676  1.0000
  C   C1211     1.0  0.71722  0.56513  0.69056  1.0000
  H   H2059     1.0  0.96927  0.63679  0.53078  1.0000
  C   C1212     1.0  0.71539  0.53447  0.54753  1.0000
  C   C1213     1.0  0.95644  0.67841  0.55375  1.0000
  H   H2060     1.0  0.85586  0.66952  0.58790  1.0000
  H   H2061     1.0  0.67004  0.54263  0.54879  1.0000
  C   C1214     1.0  0.57982  0.50680  0.77521  1.0000
  H   H2062     1.0  0.90635  0.65650  0.57285  1.0000
  H   H2063     1.0  0.79265  0.53643  0.56694  1.0000
  C   C1215     1.0  0.76769  0.56660  0.53374  1.0000
  C   C1216     1.0  0.68264  0.54586  0.56939  1.0000
  C   C1217     1.0  0.90813  0.64623  0.58504  1.0000
  H   H2064     1.0  0.74919  0.58323  0.63391  1.0000
  C   C1218     1.0  0.78577  0.55818  0.53342  1.0000
  C   C1219     1.0  0.53002  0.66727  0.71293  1.0000
  H   H2065     1.0  0.99221  0.70918  0.60142  1.0000
  C   C1220     1.0  0.55591  0.51008  0.92928  1.0000
  C   C1221     1.0  0.66070  0.50098  0.57678  1.0000
  C   C1222     1.0  0.75030  0.50251  0.64795  1.0000
  C   C1223     1.0  0.88475  0.60674  0.61225  1.0000
  H   H2066     1.0  0.52385  0.58810  0.83170  1.0000
  S   S362      1.0  0.69888  0.52811  0.52287  1.0000
  H   H2067     1.0  0.92003  0.63060  0.51483  1.0000
  H   H2068     1.0  0.74250  0.56714  0.69834  1.0000
  H   H2069     1.0  0.95285  0.68985  0.56039  1.0000
  H   H2070     1.0  0.90872  0.60945  0.55597  1.0000
  H   H2071     1.0  0.77888  0.50317  0.64188  1.0000
  H   H2072     1.0  0.76729  0.52590  0.56188  1.0000
  C   C1224     1.0  0.79271  0.52182  0.57042  1.0000
  C   C1225     1.0  0.50867  0.59969  0.69916  1.0000
  H   H2073     1.0  0.62617  0.69512  0.62736  1.0000
  Fe  Fe182     1.0  0.52659  0.50901  0.88475  1.0000
  H   H2074     1.0  0.80856  0.62213  0.54190  1.0000
  H   H2075     1.0  0.79898  0.51676  0.58237  1.0000
  H   H2076     1.0  0.65720  0.58326  0.55684  1.0000
  H   H2077     1.0  0.83947  0.60827  0.53660  1.0000
  C   C1226     1.0  0.97325  0.60305  0.50822  1.0000
  H   H2078     1.0  0.70051  0.57122  0.66195  1.0000
  C   C1227     1.0  0.62438  0.66788  0.62512  1.0000
  H   H2079     1.0  0.88998  0.59578  0.62259  1.0000
  C   C1228     1.0  0.56597  0.52361  0.80489  1.0000
  Fe  Fe183     1.0  0.79921  0.59386  0.58190  1.0000
  H   H2080     1.0  0.92277  0.61600  0.56754  1.0000
  H   H2081     1.0  0.66599  0.59602  0.53615  1.0000
  C   C1229     1.0  0.72847  0.57444  0.69835  1.0000
  H   H2082     1.0  0.74373  0.57927  0.66567  1.0000
  H   H2083     1.0  0.61945  0.63366  0.67222  1.0000
  H   H2084     1.0  0.64922  0.63037  0.59494  1.0000
  C   C1230     1.0  0.70095  0.58116  0.52488  1.0000
  C   C1231     1.0  0.84867  0.62433  0.56216  1.0000
  C   C1232     1.0  0.84672  0.63099  0.51680  1.0000
  H   H2085     1.0  0.70539  0.53095  0.67948  1.0000
  H   H2086     1.0  0.49888  0.51125  0.79071  1.0000
  N   N87       1.0  0.97153  0.72633  0.50996  1.0000
  H   H2087     1.0  0.83816  0.64102  0.52474  1.0000
  H   H2088     1.0  0.67400  0.49337  0.69640  1.0000
  H   H2089     1.0  0.51062  0.67093  0.75739  1.0000
  S   S363      1.0  0.78349  0.53484  0.61574  1.0000
  C   C1233     1.0  0.73320  0.51141  0.64465  1.0000
  C   C1234     1.0  0.52318  0.71710  0.68672  1.0000
  H   H2090     1.0  0.88307  0.60037  0.60160  1.0000
  C   C1235     1.0  0.71535  0.53907  0.56376  1.0000
  C   C1236     1.0  0.54652  0.65521  0.70375  1.0000
  C   C1237     1.0  0.74359  0.57124  0.64165  1.0000
  C   C1238     1.0  0.64813  0.50346  0.72525  1.0000
  H   H2091     1.0  0.61061  0.51770  0.69054  1.0000
  H   H2092     1.0  0.75580  0.53823  0.69338  1.0000
  H   H2093     1.0  0.92167  0.63808  0.58095  1.0000
  C   C1239     1.0  0.60596  0.50375  0.88617  1.0000
  H   H2094     1.0  0.53573  0.67414  0.72072  1.0000
  C   C1240     1.0  0.60629  0.52290  0.70316  1.0000
  H   H2095     1.0  0.64030  0.51554  0.68259  1.0000
  H   H2096     1.0  0.71419  0.55301  0.70057  1.0000
  C   C1241     1.0  0.73756  0.50781  0.59550  1.0000
  C   C1242     1.0  0.75626  0.55888  0.52745  1.0000
  H   H2097     1.0  0.90887  0.59941  0.57870  1.0000
  C   C1243     1.0  0.61872  0.51381  0.71660  1.0000
  H   H2098     1.0  0.56267  0.54826  0.78586  1.0000
  H   H2099     1.0  0.55602  0.66384  0.69513  1.0000
  C   C1244     1.0  0.51758  0.56579  0.82251  1.0000
  H   H2100     1.0  0.55409  0.64578  0.71351  1.0000
  S   S364      1.0  0.75294  0.57845  0.59265  1.0000
  H   H2101     1.0  0.92656  0.65402  0.48029  1.0000
  C   C1245     1.0  0.96712  0.71166  0.50280  1.0000
  H   H2102     1.0  0.67080  0.50246  0.67420  1.0000
  C   C1246     1.0  0.94950  0.63513  0.49057  1.0000
  H   H2103     1.0  0.87327  0.64814  0.60963  1.0000
  C   C1247     1.0  0.94762  0.58631  0.48834  1.0000
  H   H2104     1.0  0.52377  0.55817  0.78813  1.0000
  H   H2105     1.0  0.56355  0.62628  0.61810  1.0000
  H   H2106     1.0  0.76701  0.53195  0.67228  1.0000
  S   S365      1.0  0.55757  0.53437  0.82328  1.0000
  C   C1248     1.0  0.69764  0.54473  0.67637  1.0000
  H   H2107     1.0  0.72806  0.53052  0.53895  1.0000
  H   H2108     1.0  0.66265  0.50948  0.54021  1.0000
  H   H2109     1.0  0.57781  0.50637  0.94327  1.0000
  H   H2110     1.0  0.72202  0.57520  0.71241  1.0000
  S   S366      1.0  0.58909  0.49649  0.75659  1.0000
  N   N88       1.0  0.77041  0.49954  0.57887  1.0000
  C   C1249     1.0  0.94692  0.60689  0.48300  1.0000
  H   H2111     1.0  0.75376  0.53677  0.51648  1.0000
  H   H2112     1.0  0.72321  0.58762  0.65813  1.0000
  H   H2113     1.0  0.88087  0.62162  0.57609  1.0000
  H   H2114     1.0  0.51669  0.63750  0.65816  1.0000
  H   H2115     1.0  0.60934  0.49701  0.83217  1.0000
  H   H2116     1.0  0.63945  0.52221  0.74444  1.0000
  H   H2117     1.0  0.80638  0.53566  0.52643  1.0000
  S   S367      1.0  0.78876  0.51374  0.51322  1.0000
  C   C1250     1.0  0.96563  0.64847  0.53708  1.0000
  N   N89       1.0  0.56237  0.59050  0.63012  1.0000
  C   C1251     1.0  0.56335  0.57071  0.63104  1.0000
  C   C1252     1.0  0.54386  0.59833  0.63946  1.0000
  C   C1253     1.0  0.57639  0.59352  0.63915  1.0000
  C   C1254     1.0  0.56601  0.59946  0.61083  1.0000
  C   C1255     1.0  0.58202  0.56025  0.62341  1.0000
  C   C1256     1.0  0.52773  0.59756  0.63133  1.0000
  C   C1257     1.0  0.57687  0.58275  0.65818  1.0000
  C   C1258     1.0  0.56191  0.62024  0.60725  1.0000
  H   H2118     1.0  0.55903  0.56391  0.64498  1.0000
  H   H2119     1.0  0.55368  0.56856  0.62354  1.0000
  H   H2120     1.0  0.54308  0.61262  0.64024  1.0000
  H   H2121     1.0  0.54101  0.59132  0.65350  1.0000
  H   H2122     1.0  0.59018  0.59042  0.63111  1.0000
  H   H2123     1.0  0.57449  0.60792  0.64013  1.0000
  H   H2124     1.0  0.58046  0.59535  0.60462  1.0000
  H   H2125     1.0  0.66274  0.50440  0.72226  1.0000
  H   H2126     1.0  0.74557  0.54640  0.61303  1.0000
  H   H2127     1.0  0.52885  0.60440  0.61726  1.0000
  Fe  Fe184     1.0  0.77905  0.56322  0.60037  1.0000
  C   C1259     1.0  0.73156  0.52729  0.63209  1.0000
  C   C1260     1.0  0.66091  0.50376  0.59564  1.0000
  N   N90       1.0  0.51492  0.65815  0.72438  1.0000
  H   H2128     1.0  0.52122  0.72456  0.65905  1.0000
  H   H2129     1.0  0.63025  0.54373  0.68329  1.0000
  H   H2130     1.0  0.61897  0.68126  0.64863  1.0000
  C   C1261     1.0  0.51405  0.71796  0.70420  1.0000
  C   C1262     1.0  0.54869  0.50333  0.91791  1.0000
  H   H2131     1.0  0.76177  0.55479  0.67387  1.0000
  H   H2132     1.0  0.87246  0.66235  0.56977  1.0000
  H   H2133     1.0  0.50159  0.61306  0.82261  1.0000
  C   C1263     1.0  0.61835  0.68436  0.63436  1.0000
  C   C1264     1.0  0.85178  0.64198  0.55681  1.0000
  H   H2134     1.0  0.96786  0.71211  0.53726  1.0000
  C   C1265     1.0  0.74697  0.53444  0.62301  1.0000
  C   C1266     1.0  0.69907  0.53537  0.54231  1.0000
  C   C1267     1.0  0.77298  0.51890  0.57398  1.0000
  H   H2135     1.0  0.62704  0.67356  0.61066  1.0000
  H   H2136     1.0  0.60815  0.64601  0.65461  1.0000
  H   H2137     1.0  0.68926  0.57438  0.53098  1.0000
  H   H2138     1.0  0.71220  0.63536  0.64309  1.0000
  H   H2139     1.0  0.63279  0.50088  0.85735  1.0000
  C   C1268     1.0  0.66193  0.67199  0.63720  1.0000
  H   H2140     1.0  0.65898  0.51932  0.64362  1.0000
  N   N91       1.0  0.64037  0.65409  0.63024  1.0000
  H   H2141     1.0  0.54210  0.61922  0.74084  1.0000
  H   H2142     1.0  0.69573  0.50488  0.58163  1.0000
  H   H2143     1.0  0.70197  0.58755  0.58269  1.0000
  C   C1269     1.0  0.63746  0.64657  0.64991  1.0000
  C   C1270     1.0  0.65759  0.66178  0.62442  1.0000
  C   C1271     1.0  0.62095  0.63719  0.65752  1.0000
  H   H2144     1.0  0.66334  0.51356  0.56742  1.0000
  H   H2145     1.0  0.63007  0.63309  0.62359  1.0000
  C   C1272     1.0  0.89340  0.62717  0.57424  1.0000
  H   H2146     1.0  0.54820  0.62547  0.60404  1.0000
  H   H2147     1.0  0.72363  0.58353  0.56777  1.0000
  H   H2148     1.0  0.52755  0.56905  0.81014  1.0000
  H   H2149     1.0  0.66581  0.66261  0.64920  1.0000
  H   H2150     1.0  0.73770  0.52224  0.59442  1.0000
  H   H2151     1.0  0.68255  0.58250  0.56703  1.0000
  C   C1273     1.0  0.57210  0.50087  0.93478  1.0000
  H   H2152     1.0  0.70398  0.57455  0.69028  1.0000
  H   H2153     1.0  0.67263  0.60484  0.56962  1.0000
  H   H2154     1.0  0.71895  0.60037  0.58103  1.0000
  H   H2155     1.0  0.64964  0.63669  0.65318  1.0000
  H   H2156     1.0  0.99591  0.68488  0.60679  1.0000
  C   C1274     1.0  0.71275  0.59395  0.57325  1.0000
  H   H2157     1.0  0.78601  0.63168  0.51206  1.0000
  H   H2158     1.0  0.71711  0.61443  0.55004  1.0000
  H   H2159     1.0  0.65320  0.62728  0.62546  1.0000
  H   H2160     1.0  0.52035  0.55087  0.82644  1.0000
  H   H2161     1.0  0.66963  0.65084  0.62238  1.0000
  H   H2162     1.0  0.71187  0.57070  0.51942  1.0000
  H   H2163     1.0  0.53509  0.62444  0.72002  1.0000
  C   C1275     1.0  0.56713  0.53384  0.78771  1.0000
  H   H2164     1.0  0.72803  0.53876  0.56755  1.0000
  C   C1276     1.0  0.96213  0.72492  0.52920  1.0000
  H   H2165     1.0  0.63775  0.65300  0.59403  1.0000
  C   C1277     1.0  0.60145  0.51991  0.84533  1.0000
  C   C1278     1.0  0.66270  0.59575  0.55060  1.0000
  H   H2166     1.0  0.65130  0.60697  0.55346  1.0000
  C   C1279     1.0  0.64272  0.63861  0.62068  1.0000
  S   S368      1.0  0.79542  0.56972  0.57308  1.0000
  H   H2167     1.0  0.94226  0.58129  0.50240  1.0000
  H   H2168     1.0  0.63439  0.56075  0.69271  1.0000
  H   H2169     1.0  0.66236  0.51781  0.59506  1.0000
  H   H2170     1.0  0.69672  0.61942  0.56561  1.0000
  H   H2171     1.0  0.71096  0.57590  0.54885  1.0000
  H   H2172     1.0  0.68294  0.61562  0.52409  1.0000
  H   H2173     1.0  0.68755  0.54375  0.66878  1.0000
  C   C1280     1.0  0.92289  0.62183  0.50475  1.0000
  H   H2174     1.0  0.86438  0.63792  0.59654  1.0000
  H   H2175     1.0  0.80301  0.63295  0.57609  1.0000
  H   H2176     1.0  0.94753  0.59557  0.52019  1.0000
  C   C1281     1.0  0.70534  0.60863  0.55858  1.0000
  S   S369      1.0  0.93049  0.64602  0.53890  1.0000
  C   C1282     1.0  0.52302  0.57371  0.83641  1.0000
  H   H2177     1.0  0.89860  0.61129  0.51810  1.0000
  C   C1283     1.0  0.91301  0.60589  0.51298  1.0000
  H   H2178     1.0  0.65766  0.67100  0.61132  1.0000
  N   N92       1.0  0.69496  0.60280  0.54740  1.0000
  H   H2179     1.0  0.82195  0.63401  0.49388  1.0000
  H   H2180     1.0  0.95246  0.71405  0.50247  1.0000
  H   H2181     1.0  0.80659  0.59296  0.51686  1.0000
  C   C1284     1.0  0.97701  0.70894  0.48392  1.0000
  C   C1285     1.0  0.78829  0.62644  0.52584  1.0000
  C   C1286     1.0  0.70759  0.58800  0.53873  1.0000
  C   C1287     1.0  0.64813  0.64279  0.60020  1.0000
  H   H2182     1.0  0.51515  0.60469  0.63883  1.0000
  H   H2183     1.0  0.71837  0.53397  0.62920  1.0000
  H   H2184     1.0  0.68623  0.64260  0.54568  1.0000
  H   H2185     1.0  0.81146  0.59218  0.53805  1.0000
  H   H2186     1.0  0.97846  0.59407  0.51980  1.0000
  H   H2187     1.0  0.66630  0.63238  0.55040  1.0000
  C   C1288     1.0  0.52597  0.60404  0.69281  1.0000
  S   S370      1.0  0.82785  0.59867  0.57435  1.0000
  H   H2188     1.0  0.65503  0.53420  0.71074  1.0000
  S   S371      1.0  0.77473  0.61180  0.57267  1.0000
  H   H2189     1.0  0.84188  0.57613  0.53076  1.0000
  H   H2190     1.0  0.58596  0.49306  0.87862  1.0000
  S   S372      1.0  0.75926  0.58688  0.54170  1.0000
  H   H2191     1.0  0.68995  0.54938  0.68878  1.0000
  H   H2192     1.0  0.74042  0.50037  0.60863  1.0000
  H   H2193     1.0  0.94935  0.61651  0.52345  1.0000
  H   H2194     1.0  0.65032  0.50014  0.75298  1.0000
  H   H2195     1.0  0.71610  0.49383  0.57003  1.0000
  C   C1289     1.0  0.83278  0.57803  0.52115  1.0000
  H   H2196     1.0  0.75522  0.55991  0.64244  1.0000
  H   H2197     1.0  0.69799  0.59176  0.51336  1.0000
  H   H2198     1.0  0.66150  0.64699  0.59570  1.0000
  S   S373      1.0  0.51627  0.52999  0.86294  1.0000
  C   C1290     1.0  0.53022  0.62486  0.73430  1.0000
  C   C1291     1.0  0.79238  0.54210  0.52677  1.0000
  H   H2199     1.0  0.53171  0.64824  0.74434  1.0000
  C   C1292     1.0  0.80804  0.62561  0.52743  1.0000
  N   N93       1.0  0.82229  0.61281  0.51735  1.0000
  C   C1293     1.0  0.69014  0.61881  0.53330  1.0000
  C   C1294     1.0  0.67828  0.63559  0.54024  1.0000
  H   H2200     1.0  0.72071  0.59234  0.53203  1.0000
  H   H2201     1.0  0.92875  0.67689  0.55447  1.0000
  H   H2202     1.0  0.50652  0.58903  0.71045  1.0000
  H   H2203     1.0  0.80126  0.51602  0.55894  1.0000
  H   H2204     1.0  0.86532  0.64436  0.55155  1.0000
  C   C1295     1.0  0.75655  0.54209  0.67878  1.0000
  Fe  Fe185     1.0  0.75993  0.60192  0.60011  1.0000
  C   C1296     1.0  0.57376  0.52540  0.77287  1.0000
  S   S374      1.0  0.52707  0.49789  0.83893  1.0000
  H   H2205     1.0  0.59345  0.51093  0.89371  1.0000
  C   C1297     1.0  0.69896  0.54432  0.57493  1.0000
  H   H2206     1.0  0.61714  0.49942  0.72048  1.0000
  H   H2207     1.0  0.70270  0.62295  0.52464  1.0000
  C   C1298     1.0  0.94280  0.67105  0.55043  1.0000
  H   H2208     1.0  0.52470  0.67799  0.70242  1.0000
  N   N94       1.0  0.72517  0.56018  0.67247  1.0000
  H   H2209     1.0  0.54915  0.52262  0.93357  1.0000
  H   H2210     1.0  0.74231  0.56526  0.52762  1.0000
  H   H2211     1.0  0.85984  0.61318  0.56069  1.0000
  H   H2212     1.0  0.53690  0.56675  0.83820  1.0000
  H   H2213     1.0  0.54289  0.64785  0.69498  1.0000
  H   H2214     1.0  0.66998  0.55035  0.57767  1.0000
  Fe  Fe186     1.0  0.50331  0.50858  0.85862  1.0000
  Fe  Fe187     1.0  0.76544  0.50334  0.50905  1.0000
  H   H2215     1.0  0.91576  0.62962  0.49394  1.0000
  C   C1299     1.0  0.95245  0.60804  0.51307  1.0000
  C   C1300     1.0  0.87041  0.66380  0.58379  1.0000
  H   H2216     1.0  0.61242  0.51417  0.87642  1.0000
  H   H2217     1.0  0.51578  0.64161  0.70497  1.0000
  C   C1301     1.0  0.51424  0.72511  0.67258  1.0000
  N   N95       1.0  0.89371  0.63474  0.59023  1.0000
  H   H2218     1.0  0.73442  0.56868  0.63395  1.0000
  C   C1302     1.0  0.52169  0.64372  0.73895  1.0000
  H   H2219     1.0  0.63159  0.54100  0.71919  1.0000
  H   H2220     1.0  0.97968  0.61508  0.50531  1.0000
  C   C1303     1.0  0.60227  0.49988  0.84559  1.0000
  Fe  Fe188     1.0  0.54066  0.51774  0.84495  1.0000
  N   N96       1.0  0.63851  0.51513  0.71079  1.0000
  H   H2221     1.0  0.99335  0.65063  0.53542  1.0000
  H   H2222     1.0  0.89304  0.63802  0.56228  1.0000
  H   H2223     1.0  0.61495  0.52332  0.84384  1.0000
  H   H2224     1.0  0.61256  0.51987  0.72867  1.0000
  C   C1304     1.0  0.64077  0.50777  0.74413  1.0000
  H   H2225     1.0  0.89749  0.65911  0.60896  1.0000
  C   C1305     1.0  0.65163  0.50893  0.64395  1.0000
  C   C1306     1.0  0.91025  0.65569  0.59956  1.0000
  H   H2226     1.0  0.50549  0.55871  0.77780  1.0000
  S   S375      1.0  0.74608  0.51905  0.49138  1.0000
  Fe  Fe189     1.0  0.72491  0.50976  0.51429  1.0000
  C   C1307     1.0  0.70216  0.49210  0.57690  1.0000
  S   S376      1.0  0.55207  0.49876  0.86705  1.0000
  H   H2227     1.0  0.57446  0.53334  0.75961  1.0000
  H   H2228     1.0  0.80940  0.61766  0.49462  1.0000
  H   H2229     1.0  0.51740  0.68889  0.73969  1.0000
  H   H2230     1.0  0.53630  0.49275  0.78844  1.0000
  C   C1308     1.0  0.82222  0.61925  0.49778  1.0000
  C   C1309     1.0  0.50970  0.56506  0.78717  1.0000
  H   H2231     1.0  0.59252  0.51986  0.70899  1.0000
  C   C1310     1.0  0.92576  0.73129  0.48264  1.0000
  C   C1311     1.0  0.57167  0.50494  0.80726  1.0000
  H   H2232     1.0  0.74628  0.50726  0.56738  1.0000
  H   H2233     1.0  0.85076  0.60595  0.48868  1.0000
  C   C1312     1.0  0.66120  0.49218  0.64034  1.0000
  H   H2234     1.0  0.52108  0.71201  0.71509  1.0000
  H   H2235     1.0  0.87127  0.61340  0.61858  1.0000
  H   H2236     1.0  0.77163  0.50094  0.60576  1.0000
  C   C1313     1.0  0.89811  0.62001  0.60553  1.0000
  H   H2237     1.0  0.78393  0.61326  0.53080  1.0000
  C   C1314     1.0  0.64621  0.50742  0.69405  1.0000
  H   H2238     1.0  0.72347  0.50694  0.59526  1.0000
  C   C1315     1.0  0.90945  0.61219  0.56904  1.0000
  H   H2239     1.0  0.78046  0.49870  0.55091  1.0000
  C   C1316     1.0  0.77665  0.49150  0.59626  1.0000
  H   H2240     1.0  0.64643  0.50038  0.57674  1.0000
  H   H2241     1.0  0.86055  0.62892  0.51966  1.0000
  C   C1317     1.0  0.83745  0.60983  0.48460  1.0000
  H   H2242     1.0  0.89834  0.62579  0.61720  1.0000
  S   S377      1.0  0.74418  0.49566  0.53263  1.0000
  H   H2243     1.0  0.92052  0.64721  0.60725  1.0000
  H   H2244     1.0  0.67210  0.51732  0.68806  1.0000
  H   H2245     1.0  0.59210  0.52432  0.85721  1.0000
  S   S378      1.0  0.99173  0.68113  0.55131  1.0000
  H   H2246     1.0  0.93763  0.71406  0.53032  1.0000
  H   H2247     1.0  0.91470  0.66869  0.59318  1.0000
  H   H2248     1.0  0.93945  0.58220  0.48054  1.0000
  H   H2249     1.0  0.58801  0.49867  0.84665  1.0000
  H   H2250     1.0  0.57080  0.49699  0.82053  1.0000
  H   H2251     1.0  0.52065  0.61536  0.74003  1.0000
  C   C1318     1.0  0.99157  0.72279  0.50971  1.0000
  H   H2252     1.0  0.68241  0.49490  0.53030  1.0000
  C   C1319     1.0  0.99818  0.73576  0.51800  1.0000
  H   H2253     1.0  0.62760  0.50338  0.75000  1.0000
  H   H2254     1.0  0.87622  0.64774  0.49184  1.0000
  H   H2255     1.0  0.88310  0.61548  0.48897  1.0000
  H   H2256     1.0  0.50590  0.59597  0.80180  1.0000
  H   H2257     1.0  0.93456  0.73843  0.52505  1.0000
  H   H2258     1.0  0.99511  0.73238  0.53274  1.0000
  H   H2259     1.0  0.93593  0.72666  0.54711  1.0000
  H   H2260     1.0  0.99189  0.70526  0.48262  1.0000
  C   C1320     1.0  0.50083  0.67242  0.73264  1.0000
  H   H2261     1.0  0.64247  0.49407  0.69564  1.0000
  H   H2262     1.0  0.92574  0.71711  0.48578  1.0000
  H   H2263     1.0  0.97263  0.69752  0.48076  1.0000
  H   H2264     1.0  0.51034  0.64162  0.75031  1.0000
  C   C1321     1.0  0.50610  0.65121  0.71265  1.0000
  H   H2265     1.0  0.60874  0.50084  0.65192  1.0000
  S   S379      1.0  0.90128  0.73419  0.51408  1.0000
  C   C1322     1.0  0.50655  0.68102  0.74592  1.0000
  C   C1323     1.0  0.63003  0.49699  0.97649  1.0000
  H   H2266     1.0  0.96442  0.73576  0.53512  1.0000
  C   C1324     1.0  0.62338  0.49841  0.64868  1.0000
  Fe  Fe190     1.0  0.74743  0.49274  0.48336  1.0000
  H   H2267     1.0  0.67185  0.49502  0.60208  1.0000
  H   H2268     1.0  0.63346  0.50905  0.97940  1.0000
  H   H2269     1.0  0.66038  0.49300  0.52863  1.0000
  C   C1325     1.0  0.88475  0.64356  0.47999  1.0000
  H   H2270     1.0  0.98536  0.81165  0.36929  1.0000
  C   C1326     1.0  0.89746  0.76641  0.43997  1.0000
  H   H2271     1.0  0.99834  0.77610  0.42274  1.0000
  S   S380      1.0  0.95035  0.76619  0.44313  1.0000
  C   C1327     1.0  0.99591  0.78674  0.35972  1.0000
  S   S381      1.0  0.94317  0.75639  0.39865  1.0000
  S   S382      1.0  0.97462  0.78277  0.35910  1.0000
  H   H2272     1.0  0.99477  0.94049  0.40408  1.0000
  H   H2273     1.0  0.98333  0.80271  0.31722  1.0000
  Fe  Fe191     1.0  0.96981  0.75878  0.38029  1.0000
  H   H2274     1.0  0.89414  0.75508  0.41849  1.0000
  C   C1328     1.0  0.98592  0.84621  0.34081  1.0000
  H   H2275     1.0  0.98257  0.82138  0.33541  1.0000
  H   H2276     1.0  0.89255  0.78052  0.43387  1.0000
  H   H2277     1.0  0.98163  0.91245  0.32316  1.0000
  C   C1329     1.0  0.93699  0.75681  0.46271  1.0000
  H   H2278     1.0  0.89358  0.76549  0.45458  1.0000
  H   H2279     1.0  0.98394  0.86073  0.33499  1.0000
  H   H2280     1.0  0.97316  0.94399  0.32791  1.0000
  H   H2281     1.0  0.91242  0.76409  0.43590  1.0000
  Fe  Fe192     1.0  0.95891  0.75089  0.42053  1.0000
  H   H2282     1.0  0.97397  0.74874  0.47084  1.0000
  H   H2283     1.0  0.87434  0.75945  0.43443  1.0000
  H   H2284     1.0  0.98753  0.86164  0.28439  1.0000
  H   H2285     1.0  0.97487  0.84448  0.35259  1.0000
  C   C1330     1.0  0.99308  0.94108  0.34402  1.0000
  C   C1331     1.0  0.88897  0.75370  0.43312  1.0000
  H   H2286     1.0  0.97178  0.84070  0.32267  1.0000
  S   S383      1.0  0.98481  0.75564  0.40214  1.0000
  H   H2287     1.0  0.92661  0.78235  0.47109  1.0000
  C   C1332     1.0  0.98385  0.93489  0.33391  1.0000
  H   H2288     1.0  0.98186  0.83276  0.29554  1.0000
  H   H2289     1.0  0.99603  0.87812  0.29117  1.0000
  C   C1333     1.0  0.98468  0.83481  0.32753  1.0000
  C   C1334     1.0  0.98861  0.91704  0.33127  1.0000
  S   S384      1.0  0.98731  0.96380  0.34625  1.0000
  H   H2290     1.0  0.86556  0.74292  0.41776  1.0000
  H   H2291     1.0  0.98760  0.80132  0.29420  1.0000
  H   H2292     1.0  0.97850  0.86781  0.30605  1.0000
  C   C1335     1.0  0.99745  0.80240  0.36482  1.0000
  H   H2293     1.0  0.98106  0.93691  0.42558  1.0000
  C   C1336     1.0  0.99094  0.86524  0.29595  1.0000
  H   H2294     1.0  0.98456  0.92052  0.41189  1.0000
  H   H2295     1.0  0.86089  0.75191  0.46121  1.0000
  C   C1337     1.0  0.99508  0.82510  0.29878  1.0000
  C   C1338     1.0  0.99299  0.80518  0.30447  1.0000
  C   C1339     1.0  0.99126  0.92991  0.41570  1.0000
  C   C1340     1.0  0.92643  0.76807  0.47431  1.0000
  H   H2296     1.0  0.99282  0.88995  0.42903  1.0000
  H   H2297     1.0  0.95134  0.74499  0.49674  1.0000
  H   H2298     1.0  0.96121  0.75510  0.50876  1.0000
  H   H2299     1.0  0.90729  0.76979  0.49889  1.0000
  H   H2300     1.0  0.99232  0.75002  0.51352  1.0000
  C   C1341     1.0  0.91548  0.76098  0.49000  1.0000
  C   C1342     1.0  0.97649  0.75263  0.48263  1.0000
  C   C1343     1.0  0.96458  0.74478  0.50010  1.0000
  C   C1344     1.0  0.91498  0.74259  0.49415  1.0000
  H   H2301     1.0  0.99114  0.74971  0.48266  1.0000
  H   H2302     1.0  0.97299  0.76754  0.48067  1.0000
  H   H2303     1.0  0.86544  0.74201  0.48246  1.0000
  H   H2304     1.0  0.49878  0.78264  0.67896  1.0000
