data_image0
_chemical_formula_structural       CSH2CHFeS2FeS2FeHFeS3FeS2CHFeSHSHC2H2CHNHC7H4NCH4CHC6H4C6H6C6H6C2H8FeH5CHSH2CHCH2NC6HC2H3CH3CH18CHCH2CH6NC2HCHFeHCHC2Fe2SH3S2C2SC3H8C2SCH2CNSHFeS2FeS2FeHFeS3HSH2SHFeHFeS3CSHFeS2FeSFeS3NH3C6H3CSHCH4C2HC6H4C6H4CHCH2C6H5CH2CHNC5H5CH7NC7H11CH3C2H2CH5NC8H21CHCH2NH5C3SHC4H3CH2C2SC2H2CH3CH2C2H3CHFeHC2SNC8H14CHSH10C2H4CNC2SFe3H8CH3FeCH4CHCH2SCH2C2H3CH3CFeHCH4SHC4SHSC3HSHFeSCFeS2FeSFeHS2FeS2FeSCFeS2FeHSNHFeHS3C6H2C2SC6HFeHCH4C6H4C6H4CHCH4CH5C2H8CH3NCH7SHCH2C2H10CH2CH4CH4NHC2H2C3H11SNCHCHC3HCH3CH2CH3CH3C2SCH3CH2CH3SHCH4CHNHSCSHCH2CHC2HCSCH4CNH5CH3C2HCH3CHFeS2FeCSFeH2SHCH4CH2CSC4H2CH2CHC3H5CH2CSH3NSH2CH2CH4SCH2CH3FeHFeS2FeCFeS3FeS2FeS2FeHFeS3CH4NCH2SHC3HC2H2CHC5H3C6H5CHC2H8CH2C4H5CHSCSH3NC5HCH7CH2C2H6C2HNHCHCNH7CH2CHCH6C3H3C3H9C2H2CHC2H4CH2C3HCH4CHCNCHFeCH3NC2H6CHCH4CFeS2H4FeH2FeS2HFeS3CHC2SHCSC2SCH11C4HNCHC2HC3H2SH3C2H5CH2CSHCH3CH4CH2CFeCHC4H2CH4NC4H3C2H2C2H4NH5FeH3SHC4HC2HCH3CSCSHFeSFeSHFeS2FeS2FeSFeS3FeS2FeS2FeSFeS4CH2CHCH3C6H4C6H4C5FeH3C2HCH2SFeC5H4C4H3SHC7H2SH2NC8H21C2HC2NH3CH3C2H5CSH2C2HCH2SH3C2SH3CSC2HCH2C2H5CH2FeCHNCH5SHC2H2CH5C2H2CH2SHFeHCH3C2HC2H2C5H2FeSCNH3CHC2NCH8CH3C2HCHCHC2FeNCH2CNH3CSH3C2H11FeH2C3HC2H5SH2FeHCH5FeSHCHCH3CH13C2H3CHSH2FeCH2CH3NHC2H2C3H2CNC3H2C2HCH4SH3S2HCHFeH2CH7CH3CHCHC2H4SH2FeSH2SH4C7H4C6H3C3HCNC2HFeH3SH2CH2SH5FeH3CH3SHFeC2H3CSHSH3CH2SNHCFeS2FeSHFeCFeS3FeS2FeS2FeSFeS3FeSHFeS2FeSHS2H2C2H3CH4C6H4CHCH2NH2C7H4C6H4CNCHC2HC4H2CHC4H2C2H4CHC2H4SHC2H4SCH5C2HNC8H26CHCH2CHCHSHC2H4CH3C2NHCH2C2NH4CHNCH4CH5NH3C3FeCH2CHCHCH4CH4CH5SH2CHCH3CHCSH7CSH5CH5CFeC3HCH2CHSH2SHS2HC4H2SFe2S2H2FeH2CH4C3H7CFeH2SC2H3CHCH2CH2CSHFeHC2NSHCH3SHC5H7C2HC2H2NH10C2
_chemical_formula_sum              "C672 S192 H1152 Fe96 N48"
_cell_length_a       50.5806
_cell_length_b       50.5512
_cell_length_c       50.7278
_cell_angle_alpha    90.1786
_cell_angle_beta     89.8094
_cell_angle_gamma    90.0434

_space_group_name_H-M_alt    "P 1"
_space_group_IT_number       1

loop_
  _space_group_symop_operation_xyz
  'x, y, z'

loop_
  _atom_site_type_symbol
  _atom_site_label
  _atom_site_symmetry_multiplicity
  _atom_site_fract_x
  _atom_site_fract_y
  _atom_site_fract_z
  _atom_site_occupancy
  C   C1        1.0  0.35782  0.28607  0.39826  1.0000
  S   S1        1.0  0.47370  0.05088  0.15036  1.0000
  H   H1        1.0  0.32452  0.20553  0.43428  1.0000
  H   H2        1.0  0.04792  0.17206  0.36936  1.0000
  C   C2        1.0  0.31808  0.20866  0.41368  1.0000
  H   H3        1.0  0.30425  0.22567  0.41270  1.0000
  Fe  Fe1       1.0  0.40966  0.23539  0.25934  1.0000
  S   S2        1.0  0.43147  0.27166  0.27368  1.0000
  S   S3        1.0  0.42929  0.21343  0.22492  1.0000
  Fe  Fe2       1.0  0.36451  0.24428  0.29896  1.0000
  S   S4        1.0  0.38359  0.28013  0.31611  1.0000
  S   S5        1.0  0.32520  0.23124  0.31639  1.0000
  Fe  Fe3       1.0  0.39180  0.29153  0.27442  1.0000
  H   H4        1.0  0.47839  0.15645  0.14235  1.0000
  Fe  Fe4       1.0  0.42121  0.25737  0.31418  1.0000
  S   S6        1.0  0.45089  0.25807  0.34740  1.0000
  S   S7        1.0  0.37036  0.25681  0.25680  1.0000
  S   S8        1.0  0.40182  0.21980  0.30011  1.0000
  Fe  Fe5       1.0  0.22514  0.31201  0.40378  1.0000
  S   S9        1.0  0.19225  0.29044  0.38354  1.0000
  S   S10       1.0  0.26929  0.30929  0.39680  1.0000
  C   C3        1.0  0.39761  0.24740  0.43313  1.0000
  H   H5        1.0  0.21198  0.32913  0.30289  1.0000
  Fe  Fe6       1.0  0.16997  0.29380  0.42222  1.0000
  S   S11       1.0  0.14942  0.25705  0.43885  1.0000
  H   H6        1.0  0.06549  0.29202  0.47520  1.0000
  S   S12       1.0  0.20481  0.31212  0.44333  1.0000
  H   H7        1.0  0.39047  0.26401  0.44565  1.0000
  C   C4        1.0  0.11992  0.25600  0.45798  1.0000
  C   C5        1.0  0.11326  0.23242  0.47111  1.0000
  H   H8        1.0  0.05414  0.23099  0.40572  1.0000
  H   H9        1.0  0.41253  0.23609  0.44450  1.0000
  C   C6        1.0  0.10261  0.27753  0.45973  1.0000
  H   H10       1.0  0.22898  0.28118  0.25048  1.0000
  N   N1        1.0  0.04367  0.19283  0.42206  1.0000
  H   H11       1.0  0.10745  0.29578  0.44971  1.0000
  C   C7        1.0  0.37881  0.23649  0.37680  1.0000
  C   C8        1.0  0.44598  0.28073  0.37334  1.0000
  C   C9        1.0  0.46293  0.28021  0.39513  1.0000
  C   C10       1.0  0.45865  0.29730  0.41661  1.0000
  C   C11       1.0  0.43714  0.31464  0.41647  1.0000
  C   C12       1.0  0.42047  0.31548  0.39457  1.0000
  C   C13       1.0  0.42509  0.29881  0.37294  1.0000
  H   H12       1.0  0.01766  0.20764  0.39151  1.0000
  H   H13       1.0  0.40936  0.20809  0.38997  1.0000
  H   H14       1.0  0.41247  0.30003  0.35603  1.0000
  H   H15       1.0  0.07594  0.22027  0.42996  1.0000
  N   N2        1.0  0.36030  0.23454  0.40011  1.0000
  C   C14       1.0  0.03005  0.20387  0.44623  1.0000
  H   H16       1.0  0.35233  0.19257  0.39462  1.0000
  H   H17       1.0  0.30549  0.32044  0.21474  1.0000
  H   H18       1.0  0.44015  0.12339  0.08247  1.0000
  H   H19       1.0  0.34775  0.30650  0.23500  1.0000
  C   C15       1.0  0.01484  0.23009  0.44240  1.0000
  H   H20       1.0  0.27763  0.33064  0.31802  1.0000
  C   C16       1.0  0.30770  0.25398  0.33639  1.0000
  C   C17       1.0  0.31612  0.28021  0.33906  1.0000
  C   C18       1.0  0.30347  0.29731  0.35692  1.0000
  C   C19       1.0  0.28167  0.28865  0.37164  1.0000
  C   C20       1.0  0.27210  0.26293  0.36788  1.0000
  C   C21       1.0  0.28525  0.24557  0.35045  1.0000
  H   H21       1.0  0.33230  0.28747  0.32740  1.0000
  H   H22       1.0  0.31088  0.31722  0.35959  1.0000
  H   H23       1.0  0.25533  0.25606  0.37926  1.0000
  H   H24       1.0  0.27834  0.22541  0.34828  1.0000
  C   C22       1.0  0.45661  0.12657  0.22011  1.0000
  C   C23       1.0  0.46989  0.14635  0.20606  1.0000
  C   C24       1.0  0.46198  0.17301  0.20857  1.0000
  C   C25       1.0  0.44104  0.18029  0.22542  1.0000
  C   C26       1.0  0.42851  0.16066  0.24030  1.0000
  C   C27       1.0  0.43621  0.13396  0.23755  1.0000
  H   H25       1.0  0.42927  0.08211  0.16770  1.0000
  H   H26       1.0  0.47191  0.18808  0.19711  1.0000
  H   H27       1.0  0.41232  0.16592  0.25327  1.0000
  H   H28       1.0  0.42589  0.11887  0.24863  1.0000
  H   H29       1.0  0.39189  0.25397  0.37794  1.0000
  H   H30       1.0  0.34369  0.30228  0.40288  1.0000
  C   C28       1.0  0.02869  0.16855  0.37911  1.0000
  C   C29       1.0  0.26489  0.28900  0.29013  1.0000
  C   C30       1.0  0.07941  0.16835  0.44904  1.0000
  C   C31       1.0  0.37463  0.22876  0.42548  1.0000
  C   C32       1.0  0.34387  0.25937  0.40275  1.0000
  C   C33       1.0  0.29009  0.28731  0.27305  1.0000
  H   H31       1.0  0.48602  0.14110  0.19302  1.0000
  H   H32       1.0  0.36734  0.23951  0.35832  1.0000
  H   H33       1.0  0.47159  0.29653  0.43352  1.0000
  H   H34       1.0  0.12663  0.21574  0.47011  1.0000
  H   H35       1.0  0.25242  0.27200  0.28419  1.0000
  H   H36       1.0  0.27053  0.28454  0.31075  1.0000
  C   C34       1.0  0.05585  0.16673  0.42986  1.0000
  C   C35       1.0  0.02267  0.18861  0.40130  1.0000
  H   H37       1.0  0.08698  0.14806  0.45264  1.0000
  H   H38       1.0  0.38600  0.19464  0.36614  1.0000
  H   H39       1.0  0.37510  0.28887  0.41115  1.0000
  H   H40       1.0  0.04439  0.20767  0.46228  1.0000
  H   H41       1.0  0.02775  0.14794  0.38661  1.0000
  H   H42       1.0  0.47923  0.26636  0.39552  1.0000
  H   H43       1.0  0.23306  0.31872  0.32872  1.0000
  H   H44       1.0  0.20551  0.27923  0.29136  1.0000
  Fe  Fe7       1.0  0.49082  0.07211  0.18562  1.0000
  H   H45       1.0  0.29813  0.26689  0.27421  1.0000
  H   H46       1.0  0.41650  0.12835  0.18206  1.0000
  H   H47       1.0  0.33425  0.26045  0.42251  1.0000
  H   H48       1.0  0.02842  0.24680  0.43817  1.0000
  H   H49       1.0  0.06332  0.15549  0.41263  1.0000
  C   C36       1.0  0.24126  0.32190  0.26194  1.0000
  H   H50       1.0  0.07517  0.20947  0.37133  1.0000
  S   S13       1.0  0.46345  0.09235  0.21543  1.0000
  H   H51       1.0  0.32733  0.25896  0.38845  1.0000
  H   H52       1.0  0.04056  0.15359  0.43887  1.0000
  C   C37       1.0  0.47484  0.13883  0.12972  1.0000
  H   H53       1.0  0.40401  0.32913  0.39425  1.0000
  C   C38       1.0  0.34167  0.21181  0.39450  1.0000
  H   H54       1.0  0.07367  0.17639  0.46847  1.0000
  H   H55       1.0  0.40877  0.25549  0.41624  1.0000
  N   N3        1.0  0.42466  0.13243  0.14026  1.0000
  C   C39       1.0  0.40910  0.12062  0.16284  1.0000
  C   C40       1.0  0.42501  0.16202  0.14441  1.0000
  C   C41       1.0  0.45247  0.12137  0.14100  1.0000
  C   C42       1.0  0.41124  0.12469  0.11491  1.0000
  C   C43       1.0  0.07209  0.25165  0.48710  1.0000
  C   C44       1.0  0.39785  0.17587  0.14506  1.0000
  H   H56       1.0  0.28595  0.29124  0.25200  1.0000
  C   C45       1.0  0.42321  0.13572  0.08921  1.0000
  C   C46       1.0  0.40916  0.09014  0.16483  1.0000
  H   H57       1.0  0.38792  0.12641  0.16186  1.0000
  H   H58       1.0  0.43685  0.17238  0.12922  1.0000
  H   H59       1.0  0.43498  0.16684  0.16334  1.0000
  C   C47       1.0  0.21177  0.28737  0.31056  1.0000
  H   H60       1.0  0.45855  0.11701  0.16157  1.0000
  H   H61       1.0  0.41176  0.10283  0.11231  1.0000
  H   H62       1.0  0.38970  0.12914  0.11531  1.0000
  C   C48       1.0  0.08316  0.20425  0.39100  1.0000
  H   H63       1.0  0.20223  0.30493  0.25342  1.0000
  H   H64       1.0  0.25834  0.32646  0.24887  1.0000
  H   H65       1.0  0.38618  0.17030  0.16276  1.0000
  H   H66       1.0  0.40107  0.19758  0.14655  1.0000
  H   H67       1.0  0.38633  0.17222  0.12687  1.0000
  H   H68       1.0  0.09608  0.18006  0.44090  1.0000
  H   H69       1.0  0.01569  0.18927  0.45436  1.0000
  H   H70       1.0  0.49353  0.12736  0.12964  1.0000
  H   H71       1.0  0.45352  0.10200  0.13051  1.0000
  H   H72       1.0  0.42948  0.15660  0.09073  1.0000
  H   H73       1.0  0.40782  0.13562  0.07364  1.0000
  H   H74       1.0  0.33309  0.21363  0.37432  1.0000
  H   H75       1.0  0.30652  0.19090  0.40779  1.0000
  H   H76       1.0  0.41122  0.21703  0.35631  1.0000
  H   H77       1.0  0.39973  0.08049  0.14763  1.0000
  H   H78       1.0  0.22510  0.30523  0.22599  1.0000
  H   H79       1.0  0.08833  0.18303  0.39132  1.0000
  H   H80       1.0  0.38218  0.20807  0.42589  1.0000
  C   C49       1.0  0.06396  0.21280  0.41311  1.0000
  H   H81       1.0  0.47128  0.14496  0.10916  1.0000
  C   C50       1.0  0.39712  0.21246  0.37245  1.0000
  H   H82       1.0  0.36064  0.22936  0.44242  1.0000
  H   H83       1.0  0.36360  0.28862  0.37729  1.0000
  C   C51       1.0  0.22678  0.31387  0.30818  1.0000
  H   H84       1.0  0.08512  0.21231  0.49631  1.0000
  H   H85       1.0  0.39760  0.08427  0.18254  1.0000
  H   H86       1.0  0.10229  0.21479  0.39371  1.0000
  H   H87       1.0  0.30596  0.30055  0.28037  1.0000
  H   H88       1.0  0.00389  0.18148  0.41053  1.0000
  H   H89       1.0  0.22373  0.27248  0.32130  1.0000
  N   N4        1.0  0.25004  0.31484  0.28939  1.0000
  C   C52       1.0  0.08963  0.23032  0.48578  1.0000
  C   C53       1.0  0.07881  0.27532  0.47418  1.0000
  H   H90       1.0  0.00455  0.23518  0.46110  1.0000
  C   C54       1.0  0.22323  0.30203  0.24758  1.0000
  H   H91       1.0  0.01318  0.17016  0.36374  1.0000
  Fe  Fe8       1.0  0.17601  0.33089  0.37508  1.0000
  H   H92       1.0  0.19352  0.29055  0.32239  1.0000
  C   C55       1.0  0.33971  0.32583  0.23940  1.0000
  H   H93       1.0  0.99935  0.22863  0.42708  1.0000
  C   C56       1.0  0.00955  0.07977  0.61547  1.0000
  C   C57       1.0  0.01532  0.10130  0.59864  1.0000
  Fe  Fe9       1.0  0.02213  0.21117  0.51820  1.0000
  Fe  Fe10      1.0  0.02269  0.15983  0.55031  1.0000
  S   S14       1.0  0.05088  0.13614  0.57469  1.0000
  H   H94       1.0  0.41347  0.33037  0.52205  1.0000
  H   H95       1.0  0.05932  0.26029  0.57699  1.0000
  H   H96       1.0  0.01936  0.31274  0.61155  1.0000
  S   S15       1.0  0.01422  0.20211  0.56086  1.0000
  S   S16       1.0  0.03426  0.16965  0.50875  1.0000
  C   C58       1.0  0.03014  0.06643  0.62840  1.0000
  C   C59       1.0  0.04760  0.27832  0.58167  1.0000
  S   S17       1.0  0.02485  0.03954  0.64986  1.0000
  C   C60       1.0  0.05620  0.07472  0.62454  1.0000
  C   C61       1.0  0.06191  0.09600  0.60796  1.0000
  C   C62       1.0  0.04166  0.10938  0.59494  1.0000
  H   H97       1.0  0.08224  0.10214  0.60524  1.0000
  H   H98       1.0  0.07216  0.06460  0.63447  1.0000
  H   H99       1.0  0.02932  0.30000  0.52805  1.0000
  H   H100      1.0  0.05640  0.29464  0.57003  1.0000
  H   H101      1.0  0.02693  0.32834  0.56924  1.0000
  H   H102      1.0  0.05002  0.28206  0.60307  1.0000
  H   H103      1.0  0.01895  0.26546  0.55375  1.0000
  H   H104      1.0  0.01152  0.25620  0.58652  1.0000
  C   C63       1.0  0.01852  0.27308  0.57425  1.0000
  C   C64       1.0  0.00846  0.31967  0.56102  1.0000
  S   S18       1.0  0.04158  0.24954  0.50450  1.0000
  C   C65       1.0  0.01354  0.31479  0.53150  1.0000
  H   H105      1.0  0.00102  0.04853  0.55877  1.0000
  H   H106      1.0  0.99957  0.11170  0.58876  1.0000
  C   C66       1.0  0.99987  0.30437  0.60577  1.0000
  N   N5        1.0  0.99979  0.29613  0.57710  1.0000
  S   S19       1.0  0.18628  0.38831  0.45478  1.0000
  H   H107      1.0  0.39900  0.55602  0.42530  1.0000
  Fe  Fe11      1.0  0.28078  0.46872  0.22794  1.0000
  S   S20       1.0  0.27713  0.44341  0.19186  1.0000
  S   S21       1.0  0.31487  0.49712  0.23211  1.0000
  Fe  Fe12      1.0  0.22936  0.44872  0.25096  1.0000
  S   S22       1.0  0.22110  0.42210  0.21634  1.0000
  S   S23       1.0  0.20762  0.45073  0.28982  1.0000
  Fe  Fe13      1.0  0.26408  0.41169  0.21974  1.0000
  H   H108      1.0  0.33802  0.48149  0.17455  1.0000
  Fe  Fe14      1.0  0.23454  0.45642  0.19117  1.0000
  S   S24       1.0  0.21963  0.46438  0.14939  1.0000
  S   S25       1.0  0.27139  0.43593  0.25593  1.0000
  S   S26       1.0  0.23922  0.48414  0.22574  1.0000
  H   H109      1.0  0.24871  0.44918  0.49631  1.0000
  S   S27       1.0  0.13994  0.59756  0.04020  1.0000
  H   H110      1.0  0.35409  0.38206  0.27331  1.0000
  H   H111      1.0  0.43243  0.37377  0.39287  1.0000
  S   S28       1.0  0.09130  0.55591  0.04679  1.0000
  H   H112      1.0  0.34736  0.51176  0.30712  1.0000
  Fe  Fe15      1.0  0.10025  0.59140  0.02176  1.0000
  H   H113      1.0  0.35934  0.36373  0.19887  1.0000
  Fe  Fe16      1.0  0.13314  0.55939  0.06171  1.0000
  S   S29       1.0  0.14482  0.55520  0.10482  1.0000
  S   S30       1.0  0.33095  0.48091  0.48715  1.0000
  S   S31       1.0  0.15072  0.53431  0.02982  1.0000
  C   C67       1.0  0.30581  0.35922  0.23246  1.0000
  S   S32       1.0  0.44537  0.57444  0.36103  1.0000
  H   H114      1.0  0.42790  0.40373  0.17784  1.0000
  Fe  Fe17      1.0  0.42503  0.50970  0.32474  1.0000
  S   S33       1.0  0.41089  0.54973  0.31218  1.0000
  S   S34       1.0  0.40995  0.47110  0.30795  1.0000
  Fe  Fe18      1.0  0.45285  0.56332  0.31869  1.0000
  S   S35       1.0  0.47248  0.58753  0.28603  1.0000
  Fe  Fe19      1.0  0.40473  0.55729  0.35530  1.0000
  S   S36       1.0  0.36727  0.57741  0.36879  1.0000
  S   S37       1.0  0.46757  0.52213  0.32815  1.0000
  S   S38       1.0  0.41564  0.51642  0.36739  1.0000
  N   N6        1.0  0.45196  0.39048  0.35838  1.0000
  H   H115      1.0  0.40687  0.38638  0.15561  1.0000
  H   H116      1.0  0.21375  0.61892  0.08761  1.0000
  H   H117      1.0  0.13281  0.43585  0.11038  1.0000
  C   C68       1.0  0.34672  0.56523  0.39416  1.0000
  C   C69       1.0  0.35081  0.54070  0.40635  1.0000
  C   C70       1.0  0.33365  0.53220  0.42666  1.0000
  C   C71       1.0  0.31208  0.54799  0.43427  1.0000
  C   C72       1.0  0.30768  0.57197  0.42138  1.0000
  C   C73       1.0  0.32504  0.58066  0.40169  1.0000
  H   H118      1.0  0.36711  0.52835  0.40016  1.0000
  H   H119      1.0  0.33684  0.51337  0.43615  1.0000
  H   H120      1.0  0.32155  0.59947  0.39219  1.0000
  C   C74       1.0  0.12318  0.45074  0.06099  1.0000
  S   S39       1.0  0.16497  0.34100  0.33325  1.0000
  H   H121      1.0  0.37717  0.36088  0.45791  1.0000
  C   C75       1.0  0.02860  0.61200  0.02814  1.0000
  H   H122      1.0  0.40050  0.60402  0.44117  1.0000
  H   H123      1.0  0.28942  0.49034  0.32537  1.0000
  H   H124      1.0  0.03859  0.59655  0.03892  1.0000
  H   H125      1.0  0.29092  0.58410  0.42690  1.0000
  C   C76       1.0  0.41165  0.37136  0.33367  1.0000
  C   C77       1.0  0.35376  0.34337  0.25545  1.0000
  H   H126      1.0  0.40316  0.38189  0.19031  1.0000
  C   C78       1.0  0.19989  0.49079  0.13769  1.0000
  C   C79       1.0  0.19661  0.49363  0.11032  1.0000
  C   C80       1.0  0.18008  0.51344  0.10001  1.0000
  C   C81       1.0  0.16654  0.53059  0.11698  1.0000
  C   C82       1.0  0.17022  0.52812  0.14432  1.0000
  C   C83       1.0  0.18682  0.50831  0.15467  1.0000
  H   H127      1.0  0.20671  0.48019  0.09706  1.0000
  H   H128      1.0  0.17769  0.51528  0.07896  1.0000
  H   H129      1.0  0.15993  0.54139  0.15762  1.0000
  H   H130      1.0  0.18917  0.50634  0.17577  1.0000
  C   C84       1.0  0.34205  0.48803  0.25154  1.0000
  C   C85       1.0  0.34225  0.46452  0.26607  1.0000
  C   C86       1.0  0.36359  0.45887  0.28281  1.0000
  C   C87       1.0  0.38473  0.47670  0.28498  1.0000
  C   C88       1.0  0.38501  0.49953  0.26953  1.0000
  C   C89       1.0  0.36368  0.50523  0.25295  1.0000
  H   H131      1.0  0.32580  0.45097  0.26484  1.0000
  H   H132      1.0  0.36344  0.44101  0.29453  1.0000
  H   H133      1.0  0.40166  0.51290  0.27042  1.0000
  H   H134      1.0  0.36380  0.52327  0.24151  1.0000
  C   C90       1.0  0.21574  0.39592  0.47139  1.0000
  H   H135      1.0  0.39792  0.37199  0.35073  1.0000
  C   C91       1.0  0.35772  0.35783  0.46732  1.0000
  H   H136      1.0  0.29257  0.55568  0.29093  1.0000
  H   H137      1.0  0.26144  0.62884  0.03027  1.0000
  C   C92       1.0  0.19603  0.42006  0.30172  1.0000
  C   C93       1.0  0.19026  0.41720  0.32862  1.0000
  C   C94       1.0  0.18136  0.39284  0.33862  1.0000
  C   C95       1.0  0.17707  0.37151  0.32151  1.0000
  C   C96       1.0  0.18225  0.37456  0.29450  1.0000
  C   C97       1.0  0.19227  0.39855  0.28473  1.0000
  H   H138      1.0  0.19248  0.43395  0.34168  1.0000
  H   H139      1.0  0.32819  0.58519  0.28431  1.0000
  H   H140      1.0  0.19627  0.40063  0.26392  1.0000
  H   H141      1.0  0.31178  0.39603  0.25302  1.0000
  H   H142      1.0  0.49103  0.40145  0.37306  1.0000
  C   C98       1.0  0.37730  0.56328  0.47631  1.0000
  H   H143      1.0  0.32877  0.45071  0.16057  1.0000
  H   H144      1.0  0.26891  0.51873  0.27646  1.0000
  C   C99       1.0  0.15137  0.45985  0.05359  1.0000
  H   H145      1.0  0.38007  0.42203  0.15417  1.0000
  N   N7        1.0  0.11123  0.46305  0.08549  1.0000
  C   C100      1.0  0.08525  0.44919  0.09039  1.0000
  C   C101      1.0  0.10808  0.49242  0.08110  1.0000
  C   C102      1.0  0.06496  0.45106  0.06776  1.0000
  C   C103      1.0  0.12182  0.46875  0.13526  1.0000
  C   C104      1.0  0.08689  0.50692  0.09791  1.0000
  H   H146      1.0  0.36287  0.37032  0.16381  1.0000
  H   H147      1.0  0.07529  0.45639  0.10848  1.0000
  H   H148      1.0  0.12721  0.50276  0.08416  1.0000
  H   H149      1.0  0.10272  0.49628  0.06021  1.0000
  H   H150      1.0  0.23956  0.36427  0.31651  1.0000
  C   C105      1.0  0.34332  0.36851  0.26074  1.0000
  H   H151      1.0  0.06296  0.47141  0.05995  1.0000
  H   H152      1.0  0.36199  0.46364  0.15585  1.0000
  H   H153      1.0  0.10236  0.46146  0.14217  1.0000
  H   H154      1.0  0.12253  0.49069  0.13541  1.0000
  H   H155      1.0  0.09419  0.52708  0.10273  1.0000
  H   H156      1.0  0.08189  0.49766  0.11694  1.0000
  H   H157      1.0  0.06861  0.51013  0.08628  1.0000
  N   N8        1.0  0.23393  0.57427  0.06355  1.0000
  C   C106      1.0  0.23626  0.54532  0.05628  1.0000
  C   C107      1.0  0.24742  0.57753  0.08987  1.0000
  C   C108      1.0  0.24847  0.58999  0.04281  1.0000
  C   C109      1.0  0.20504  0.58169  0.06424  1.0000
  C   C110      1.0  0.22677  0.53740  0.02848  1.0000
  C   C111      1.0  0.23455  0.56244  0.11307  1.0000
  C   C112      1.0  0.22070  0.42209  0.47915  1.0000
  H   H158      1.0  0.45028  0.40290  0.30201  1.0000
  H   H159      1.0  0.25715  0.53847  0.05792  1.0000
  H   H160      1.0  0.22472  0.53283  0.07018  1.0000
  H   H161      1.0  0.24899  0.59843  0.09607  1.0000
  H   H162      1.0  0.26841  0.57092  0.08851  1.0000
  H   H163      1.0  0.26923  0.58281  0.04086  1.0000
  H   H164      1.0  0.23919  0.58722  0.02312  1.0000
  H   H165      1.0  0.19744  0.58412  0.04383  1.0000
  H   H166      1.0  0.19306  0.56523  0.07264  1.0000
  H   H167      1.0  0.33996  0.39350  0.48276  1.0000
  H   H168      1.0  0.18568  0.62036  0.06711  1.0000
  C   C113      1.0  0.38641  0.42450  0.47519  1.0000
  H   H169      1.0  0.23756  0.54076  0.11141  1.0000
  H   H170      1.0  0.24406  0.56868  0.13179  1.0000
  H   H171      1.0  0.21314  0.56667  0.11508  1.0000
  C   C114      1.0  0.29712  0.54209  0.34184  1.0000
  C   C115      1.0  0.39556  0.39989  0.49054  1.0000
  H   H172      1.0  0.42908  0.52044  0.48116  1.0000
  H   H173      1.0  0.45282  0.36389  0.32463  1.0000
  C   C116      1.0  0.44866  0.41147  0.40476  1.0000
  H   H174      1.0  0.20609  0.43723  0.47535  1.0000
  H   H175      1.0  0.49159  0.38137  0.34503  1.0000
  H   H176      1.0  0.32811  0.47834  0.34049  1.0000
  H   H177      1.0  0.42962  0.42354  0.34245  1.0000
  H   H178      1.0  0.14957  0.46607  0.10429  1.0000
  N   N9        1.0  0.26110  0.42777  0.40096  1.0000
  C   C117      1.0  0.25903  0.40357  0.41810  1.0000
  C   C118      1.0  0.24170  0.44805  0.41125  1.0000
  C   C119      1.0  0.28853  0.43939  0.40194  1.0000
  C   C120      1.0  0.25509  0.42003  0.37290  1.0000
  C   C121      1.0  0.27858  0.38090  0.41211  1.0000
  C   C122      1.0  0.21232  0.44262  0.40518  1.0000
  C   C123      1.0  0.29913  0.44587  0.42976  1.0000
  C   C124      1.0  0.25620  0.44266  0.35252  1.0000
  H   H179      1.0  0.26155  0.40895  0.43913  1.0000
  H   H180      1.0  0.23893  0.39485  0.41699  1.0000
  H   H181      1.0  0.24637  0.46823  0.40385  1.0000
  H   H182      1.0  0.24315  0.44988  0.43308  1.0000
  H   H183      1.0  0.30307  0.42618  0.39197  1.0000
  H   H184      1.0  0.28935  0.45823  0.39064  1.0000
  H   H185      1.0  0.26958  0.40514  0.36565  1.0000
  H   H186      1.0  0.23579  0.40948  0.37118  1.0000
  H   H187      1.0  0.27565  0.36511  0.42705  1.0000
  H   H188      1.0  0.27471  0.37150  0.39272  1.0000
  H   H189      1.0  0.29950  0.38721  0.41347  1.0000
  H   H190      1.0  0.20792  0.44571  0.38404  1.0000
  H   H191      1.0  0.20600  0.42247  0.41097  1.0000
  H   H192      1.0  0.19985  0.45677  0.41649  1.0000
  H   H193      1.0  0.28617  0.45997  0.44052  1.0000
  H   H194      1.0  0.31879  0.45551  0.42787  1.0000
  H   H195      1.0  0.30200  0.42784  0.44183  1.0000
  H   H196      1.0  0.27663  0.44537  0.34491  1.0000
  H   H197      1.0  0.24889  0.46174  0.36036  1.0000
  H   H198      1.0  0.24305  0.43779  0.33571  1.0000
  H   H199      1.0  0.40731  0.48959  0.45339  1.0000
  C   C125      1.0  0.49044  0.49043  0.41102  1.0000
  H   H200      1.0  0.15328  0.48162  0.05369  1.0000
  C   C126      1.0  0.42739  0.52688  0.46039  1.0000
  H   H201      1.0  0.48372  0.48995  0.45304  1.0000
  H   H202      1.0  0.47178  0.35633  0.39647  1.0000
  N   N10       1.0  0.42560  0.55664  0.45898  1.0000
  H   H203      1.0  0.24053  0.54435  0.01288  1.0000
  H   H204      1.0  0.08864  0.42774  0.09421  1.0000
  H   H205      1.0  0.45197  0.43187  0.39748  1.0000
  H   H206      1.0  0.13667  0.46221  0.14999  1.0000
  H   H207      1.0  0.44135  0.34925  0.35392  1.0000
  C   C127      1.0  0.41784  0.56501  0.43158  1.0000
  C   C128      1.0  0.35171  0.37667  0.49058  1.0000
  C   C129      1.0  0.25859  0.38311  0.48855  1.0000
  S   S40       1.0  0.28923  0.53809  0.45862  1.0000
  H   H208      1.0  0.36974  0.41998  0.46178  1.0000
  C   C130      1.0  0.12972  0.45757  0.10811  1.0000
  C   C131      1.0  0.41497  0.59506  0.42735  1.0000
  C   C132      1.0  0.24955  0.62022  0.04660  1.0000
  C   C133      1.0  0.48863  0.63441  0.26399  1.0000
  H   H209      1.0  0.35600  0.33686  0.47356  1.0000
  H   H210      1.0  0.47172  0.53641  0.48802  1.0000
  H   H211      1.0  0.33163  0.36233  0.17764  1.0000
  C   C134      1.0  0.31210  0.54696  0.29599  1.0000
  H   H212      1.0  0.25539  0.52650  0.30866  1.0000
  H   H213      1.0  0.29306  0.50834  0.36967  1.0000
  C   C135      1.0  0.40731  0.56731  0.48007  1.0000
  C   C136      1.0  0.23472  0.37643  0.47616  1.0000
  S   S41       1.0  0.07787  0.62812  0.01056  1.0000
  C   C137      1.0  0.33713  0.51855  0.32531  1.0000
  C   C138      1.0  0.44061  0.36797  0.34248  1.0000
  H   H214      1.0  0.45971  0.43644  0.30700  1.0000
  H   H215      1.0  0.45252  0.58958  0.46544  1.0000
  C   C139      1.0  0.48334  0.62090  0.28764  1.0000
  H   H216      1.0  0.48430  0.62358  0.32995  1.0000
  H   H217      1.0  0.15600  0.45302  0.03325  1.0000
  H   H218      1.0  0.46647  0.56297  0.44722  1.0000
  C   C140      1.0  0.48060  0.38441  0.36380  1.0000
  H   H219      1.0  0.32700  0.58102  0.31934  1.0000
  H   H220      1.0  0.22609  0.51548  0.02696  1.0000
  C   C141      1.0  0.29335  0.50460  0.30929  1.0000
  C   C142      1.0  0.49120  0.47908  0.43622  1.0000
  H   H221      1.0  0.43425  0.60541  0.42866  1.0000
  H   H222      1.0  0.34311  0.36130  0.45139  1.0000
  H   H223      1.0  0.25395  0.49338  0.29580  1.0000
  C   C143      1.0  0.45294  0.56762  0.46401  1.0000
  H   H224      1.0  0.31236  0.55328  0.35300  1.0000
  Fe  Fe20      1.0  0.46750  0.34713  0.46499  1.0000
  H   H225      1.0  0.25928  0.62630  0.06516  1.0000
  C   C144      1.0  0.33092  0.57063  0.30044  1.0000
  C   C145      1.0  0.04327  0.63012  0.01328  1.0000
  S   S42       1.0  0.21026  0.35210  0.39273  1.0000
  N   N11       1.0  0.36576  0.42075  0.19428  1.0000
  C   C146      1.0  0.35437  0.44836  0.19608  1.0000
  C   C147      1.0  0.37444  0.41343  0.22177  1.0000
  C   C148      1.0  0.34356  0.40267  0.18581  1.0000
  C   C149      1.0  0.38810  0.42072  0.17455  1.0000
  C   C150      1.0  0.34544  0.46127  0.17001  1.0000
  C   C151      1.0  0.39905  0.42804  0.23242  1.0000
  C   C152      1.0  0.35031  0.37325  0.18150  1.0000
  C   C153      1.0  0.40726  0.39678  0.17494  1.0000
  H   H226      1.0  0.33700  0.44861  0.20966  1.0000
  H   H227      1.0  0.36881  0.46248  0.20466  1.0000
  H   H228      1.0  0.37861  0.39206  0.22377  1.0000
  H   H229      1.0  0.35807  0.41704  0.23607  1.0000
  H   H230      1.0  0.32702  0.40357  0.20037  1.0000
  H   H231      1.0  0.33495  0.40912  0.16682  1.0000
  H   H232      1.0  0.40042  0.43886  0.17708  1.0000
  H   H233      1.0  0.17858  0.35830  0.28109  1.0000
  H   H234      1.0  0.44580  0.51977  0.45075  1.0000
  H   H235      1.0  0.41631  0.40147  0.37954  1.0000
  H   H236      1.0  0.39599  0.44963  0.23444  1.0000
  H   H237      1.0  0.40336  0.42059  0.25255  1.0000
  H   H238      1.0  0.26277  0.51783  0.35365  1.0000
  H   H239      1.0  0.17686  0.39085  0.35938  1.0000
  C   C154      1.0  0.31937  0.37643  0.24930  1.0000
  H   H240      1.0  0.22968  0.62927  0.04494  1.0000
  S   S43       1.0  0.27705  0.36919  0.21586  1.0000
  H   H241      1.0  0.23104  0.35621  0.47028  1.0000
  H   H242      1.0  0.11084  0.45501  0.04337  1.0000
  H   H243      1.0  0.00026  0.56533  0.00282  1.0000
  H   H244      1.0  0.46749  0.40330  0.41230  1.0000
  H   H245      1.0  0.27318  0.36791  0.49216  1.0000
  H   H246      1.0  0.40743  0.59857  0.40711  1.0000
  H   H247      1.0  0.43496  0.41285  0.42186  1.0000
  H   H248      1.0  0.37074  0.56373  0.45563  1.0000
  H   H249      1.0  0.40617  0.51141  0.42593  1.0000
  H   H250      1.0  0.40879  0.38908  0.32118  1.0000
  C   C155      1.0  0.25642  0.36412  0.30247  1.0000
  C   C156      1.0  0.40494  0.51067  0.44773  1.0000
  H   H251      1.0  0.30449  0.49312  0.29416  1.0000
  H   H252      1.0  0.38510  0.51680  0.45438  1.0000
  H   H253      1.0  0.04522  0.44477  0.07508  1.0000
  H   H254      1.0  0.41691  0.42431  0.22032  1.0000
  C   C157      1.0  0.48817  0.63377  0.31161  1.0000
  N   N12       1.0  0.30957  0.52782  0.31870  1.0000
  C   C158      1.0  0.46683  0.55779  0.48925  1.0000
  C   C159      1.0  0.19728  0.60695  0.07991  1.0000
  S   S44       1.0  0.47016  0.39087  0.47016  1.0000
  Fe  Fe21      1.0  0.18734  0.35075  0.43047  1.0000
  Fe  Fe22      1.0  0.10955  0.53291  0.01332  1.0000
  Fe  Fe23      1.0  0.45686  0.53235  0.36994  1.0000
  H   H255      1.0  0.25022  0.37287  0.28343  1.0000
  H   H256      1.0  0.27644  0.53783  0.37923  1.0000
  H   H257      1.0  0.28296  0.55751  0.33507  1.0000
  H   H258      1.0  0.46124  0.43218  0.35437  1.0000
  H   H259      1.0  0.43249  0.55749  0.41693  1.0000
  H   H260      1.0  0.16647  0.45098  0.06670  1.0000
  H   H261      1.0  0.41071  0.58880  0.48358  1.0000
  H   H262      1.0  0.27171  0.37756  0.31068  1.0000
  C   C160      1.0  0.26636  0.51152  0.29699  1.0000
  H   H263      1.0  0.18408  0.60170  0.09668  1.0000
  H   H264      1.0  0.48286  0.41111  0.31463  1.0000
  H   H265      1.0  0.35194  0.56438  0.29962  1.0000
  Fe  Fe24      1.0  0.15490  0.57229  0.00724  1.0000
  C   C161      1.0  0.28165  0.52519  0.36199  1.0000
  H   H266      1.0  0.31894  0.53653  0.27780  1.0000
  H   H267      1.0  0.12373  0.42876  0.06268  1.0000
  H   H268      1.0  0.07023  0.43756  0.05125  1.0000
  H   H269      1.0  0.48484  0.62466  0.24536  1.0000
  C   C162      1.0  0.43632  0.39333  0.38361  1.0000
  H   H270      1.0  0.36082  0.48974  0.34587  1.0000
  C   C163      1.0  0.33980  0.49614  0.34557  1.0000
  H   H271      1.0  0.33535  0.50325  0.36575  1.0000
  H   H272      1.0  0.34936  0.53508  0.33313  1.0000
  S   S45       1.0  0.47867  0.52297  0.40738  1.0000
  C   C164      1.0  0.45039  0.41632  0.34362  1.0000
  H   H273      1.0  0.40478  0.38643  0.47591  1.0000
  H   H274      1.0  0.20663  0.54470  0.02438  1.0000
  C   C165      1.0  0.46157  0.41619  0.31527  1.0000
  C   C166      1.0  0.24483  0.42888  0.49101  1.0000
  H   H275      1.0  0.40311  0.43172  0.46287  1.0000
  H   H276      1.0  0.37057  0.54462  0.48568  1.0000
  H   H277      1.0  0.38107  0.44105  0.48860  1.0000
  C   C167      1.0  0.26381  0.40937  0.49575  1.0000
  H   H278      1.0  0.17917  0.62876  0.01747  1.0000
  H   H279      1.0  0.22991  0.34075  0.26217  1.0000
  H   H280      1.0  0.44032  0.47652  0.49224  1.0000
  C   C168      1.0  0.48608  0.35931  0.38024  1.0000
  Fe  Fe25      1.0  0.30395  0.51521  0.49354  1.0000
  H   H281      1.0  0.04520  0.55909  0.00716  1.0000
  C   C169      1.0  0.00086  0.61422  0.02936  1.0000
  H   H282      1.0  0.36651  0.57987  0.48589  1.0000
  H   H283      1.0  0.03307  0.52623  0.01360  1.0000
  H   H284      1.0  0.48592  0.56845  0.49144  1.0000
  H   H285      1.0  0.48630  0.34129  0.36763  1.0000
  S   S46       1.0  0.43059  0.33533  0.44344  1.0000
  H   H286      1.0  0.28539  0.33895  0.28479  1.0000
  C   C170      1.0  0.26862  0.33628  0.29880  1.0000
  C   C171      1.0  0.19082  0.63525  0.00093  1.0000
  C   C172      1.0  0.00261  0.65249  0.00090  1.0000
  C   C173      1.0  0.03023  0.65050  0.99995  1.0000
  S   S47       1.0  0.09134  0.49318  0.00427  1.0000
  H   H287      1.0  0.40591  0.35391  0.32156  1.0000
  S   S48       1.0  0.38532  0.33517  0.26724  1.0000
  C   C174      1.0  0.31582  0.33378  0.22788  1.0000
  C   C175      1.0  0.19699  0.66221  0.99830  1.0000
  C   C176      1.0  0.03482  0.54187  0.99836  1.0000
  H   H288      1.0  0.39767  0.33525  0.49129  1.0000
  S   S49       1.0  0.15106  0.33276  0.41189  1.0000
  H   H289      1.0  0.20164  0.51127  0.58347  1.0000
  Fe  Fe26      1.0  0.20532  0.62850  0.73206  1.0000
  S   S50       1.0  0.18320  0.64124  0.69589  1.0000
  C   C177      1.0  0.00517  0.51104  0.94345  1.0000
  Fe  Fe27      1.0  0.17122  0.57964  0.73887  1.0000
  S   S51       1.0  0.14721  0.58828  0.70296  1.0000
  S   S52       1.0  0.15921  0.54443  0.76322  1.0000
  Fe  Fe28      1.0  0.18601  0.59835  0.68367  1.0000
  S   S53       1.0  0.19455  0.58904  0.64038  1.0000
  Fe  Fe29      1.0  0.14684  0.62984  0.71851  1.0000
  H   H290      1.0  0.20689  0.51832  0.54965  1.0000
  S   S54       1.0  0.21047  0.58627  0.71854  1.0000
  S   S55       1.0  0.16873  0.62060  0.75563  1.0000
  Fe  Fe30      1.0  0.02436  0.52026  0.82734  1.0000
  S   S56       1.0  0.03741  0.47820  0.82198  1.0000
  S   S57       1.0  0.04340  0.55652  0.80953  1.0000
  Fe  Fe31      1.0  0.03008  0.47468  0.86548  1.0000
  S   S58       1.0  0.05662  0.45059  0.89163  1.0000
  C   C178      1.0  0.07978  0.36176  0.86788  1.0000
  Fe  Fe32      1.0  0.30056  0.50719  0.55338  1.0000
  S   S59       1.0  0.27547  0.49314  0.51957  1.0000
  S   S60       1.0  0.28564  0.51426  0.59543  1.0000
  Fe  Fe33      1.0  0.35197  0.49662  0.52271  1.0000
  H   H291      1.0  0.01949  0.55727  0.72595  1.0000
  S   S61       1.0  0.39611  0.50045  0.51889  1.0000
  N   N13       1.0  0.27803  0.61910  0.66638  1.0000
  H   H292      1.0  0.20091  0.41741  0.53732  1.0000
  Fe  Fe34      1.0  0.30462  0.46009  0.51590  1.0000
  H   H293      1.0  0.08355  0.35348  0.88779  1.0000
  S   S62       1.0  0.32648  0.53273  0.52757  1.0000
  S   S63       1.0  0.32844  0.47235  0.55106  1.0000
  S   S64       1.0  0.46643  0.40072  0.54606  1.0000
  C   C179      1.0  0.41543  0.47266  0.52666  1.0000
  C   C180      1.0  0.41088  0.45833  0.54976  1.0000
  C   C181      1.0  0.42712  0.43668  0.55602  1.0000
  C   C182      1.0  0.44760  0.42903  0.53894  1.0000
  C   C183      1.0  0.45228  0.44354  0.51598  1.0000
  C   C184      1.0  0.26016  0.65497  0.83302  1.0000
  H   H294      1.0  0.39508  0.46415  0.56299  1.0000
  H   H295      1.0  0.42359  0.42564  0.57392  1.0000
  C   C185      1.0  0.04009  0.66449  0.82921  1.0000
  C   C186      1.0  0.05510  0.59424  0.70573  1.0000
  S   S65       1.0  0.11561  0.56809  0.98725  1.0000
  C   C187      1.0  0.06565  0.46402  0.92251  1.0000
  C   C188      1.0  0.07215  0.49085  0.92591  1.0000
  C   C189      1.0  0.08066  0.50024  0.95077  1.0000
  C   C190      1.0  0.08195  0.48293  0.97231  1.0000
  C   C191      1.0  0.07511  0.45634  0.96878  1.0000
  C   C192      1.0  0.06742  0.44688  0.94400  1.0000
  H   H296      1.0  0.07129  0.50413  0.90926  1.0000
  Fe  Fe35      1.0  0.48514  0.38158  0.51048  1.0000
  H   H297      1.0  0.06262  0.42616  0.94152  1.0000
  C   C193      1.0  0.03688  0.54812  0.73574  1.0000
  H   H298      1.0  0.08410  0.57622  0.73064  1.0000
  H   H299      1.0  0.16709  0.42605  0.54118  1.0000
  H   H300      1.0  0.04601  0.49267  0.70059  1.0000
  H   H301      1.0  0.01016  0.63282  0.86501  1.0000
  C   C194      1.0  0.12823  0.54875  0.77869  1.0000
  C   C195      1.0  0.11417  0.57238  0.77575  1.0000
  C   C196      1.0  0.08856  0.57489  0.78625  1.0000
  C   C197      1.0  0.07669  0.55370  0.79953  1.0000
  C   C198      1.0  0.09098  0.53029  0.80316  1.0000
  C   C199      1.0  0.11673  0.52785  0.79281  1.0000
  H   H302      1.0  0.12267  0.58856  0.76477  1.0000
  H   H303      1.0  0.07769  0.59307  0.78339  1.0000
  H   H304      1.0  0.08217  0.51398  0.81370  1.0000
  H   H305      1.0  0.12754  0.50958  0.79530  1.0000
  C   C200      1.0  0.21845  0.56656  0.62792  1.0000
  C   C201      1.0  0.22445  0.56676  0.60081  1.0000
  C   C202      1.0  0.24481  0.55074  0.59042  1.0000
  C   C203      1.0  0.25925  0.53423  0.60708  1.0000
  C   C204      1.0  0.25287  0.53362  0.63409  1.0000
  C   C205      1.0  0.23256  0.54966  0.64448  1.0000
  H   H306      1.0  0.21367  0.57983  0.58786  1.0000
  H   H307      1.0  0.24953  0.55143  0.56961  1.0000
  H   H308      1.0  0.26388  0.52082  0.64711  1.0000
  H   H309      1.0  0.22800  0.54915  0.66533  1.0000
  C   C206      1.0  0.05280  0.37602  0.86814  1.0000
  H   H310      1.0  0.04286  0.56233  0.75149  1.0000
  C   C207      1.0  0.04905  0.53540  0.68981  1.0000
  H   H311      1.0  0.08620  0.53251  0.74687  1.0000
  H   H312      1.0  0.29907  0.58383  0.67879  1.0000
  H   H313      1.0  0.24999  0.63926  0.69240  1.0000
  H   H314      1.0  0.04126  0.59922  0.72201  1.0000
  C   C208      1.0  0.23962  0.63365  0.79504  1.0000
  H   H315      1.0  0.01976  0.61691  0.81977  1.0000
  H   H316      1.0  0.02877  0.34309  0.83920  1.0000
  H   H317      1.0  0.24280  0.61603  0.83363  1.0000
  H   H318      1.0  0.22933  0.61690  0.78656  1.0000
  H   H319      1.0  0.03734  0.53828  0.94216  1.0000
  C   C209      1.0  0.22073  0.46211  0.60673  1.0000
  C   C210      1.0  0.19523  0.46990  0.62173  1.0000
  H   H320      1.0  0.17525  0.45624  0.57681  1.0000
  H   H321      1.0  0.18927  0.42520  0.58462  1.0000
  H   H322      1.0  0.22836  0.44467  0.61775  1.0000
  H   H323      1.0  0.23558  0.47810  0.61005  1.0000
  H   H324      1.0  0.28179  0.42776  0.57162  1.0000
  H   H325      1.0  0.18242  0.45234  0.62496  1.0000
  H   H326      1.0  0.18353  0.48540  0.61190  1.0000
  H   H327      1.0  0.20068  0.47768  0.64151  1.0000
  C   C211      1.0  0.22126  0.65281  0.95821  1.0000
  H   H328      1.0  0.05471  0.39498  0.78578  1.0000
  H   H329      1.0  0.05495  0.39374  0.88115  1.0000
  H   H330      1.0  0.05474  0.35120  0.81689  1.0000
  N   N14       1.0  0.37467  0.38628  0.50693  1.0000
  C   C212      1.0  0.00701  0.54976  0.98887  1.0000
  H   H331      1.0  0.23544  0.61730  0.67001  1.0000
  H   H332      1.0  0.12578  0.66478  0.78712  1.0000
  H   H333      1.0  0.35206  0.42173  0.51632  1.0000
  H   H334      1.0  0.03904  0.49995  0.66758  1.0000
  H   H335      1.0  0.01286  0.38091  0.79505  1.0000
  H   H336      1.0  0.14253  0.60464  0.94193  1.0000
  H   H337      1.0  0.34181  0.64561  0.92388  1.0000
  S   S66       1.0  0.10730  0.64969  0.72380  1.0000
  H   H338      1.0  0.30010  0.60913  0.71944  1.0000
  C   C213      1.0  0.04724  0.58699  0.95262  1.0000
  H   H339      1.0  0.33840  0.41243  0.56036  1.0000
  H   H340      1.0  0.05256  0.57944  0.93272  1.0000
  C   C214      1.0  0.24720  0.63320  0.82170  1.0000
  C   C215      1.0  0.30119  0.63758  0.67025  1.0000
  H   H341      1.0  0.11643  0.50489  0.72012  1.0000
  H   H342      1.0  0.01517  0.49853  0.92840  1.0000
  H   H343      1.0  0.04281  0.65541  0.80941  1.0000
  H   H344      1.0  0.01503  0.50846  0.69252  1.0000
  H   H345      1.0  0.07077  0.50556  0.73179  1.0000
  H   H346      1.0  0.45505  0.56173  0.50729  1.0000
  H   H347      1.0  0.38062  0.41726  0.53586  1.0000
  H   H348      1.0  0.32047  0.60155  0.63389  1.0000
  H   H349      1.0  0.03348  0.54920  0.68284  1.0000
  H   H350      1.0  0.08810  0.56940  0.69659  1.0000
  C   C216      1.0  0.19983  0.61695  0.98222  1.0000
  H   H351      1.0  0.36809  0.64123  0.88466  1.0000
  H   H352      1.0  0.12783  0.63721  0.97446  1.0000
  C   C217      1.0  0.18754  0.43385  0.54310  1.0000
  H   H353      1.0  0.18941  0.45033  0.52884  1.0000
  H   H354      1.0  0.09620  0.37579  0.86386  1.0000
  H   H355      1.0  0.15779  0.64634  0.95902  1.0000
  H   H356      1.0  0.00831  0.59646  0.93999  1.0000
  C   C218      1.0  0.06217  0.40088  0.82811  1.0000
  H   H357      1.0  0.04165  0.51612  0.76487  1.0000
  H   H358      1.0  0.01286  0.59895  0.97453  1.0000
  H   H359      1.0  0.00807  0.40729  0.82849  1.0000
  H   H360      1.0  0.07104  0.42509  0.79401  1.0000
  N   N15       1.0  0.21829  0.45579  0.57762  1.0000
  H   H361      1.0  0.26404  0.58083  0.67932  1.0000
  C   C219      1.0  0.19198  0.44294  0.57187  1.0000
  C   C220      1.0  0.20166  0.50220  0.56359  1.0000
  H   H362      1.0  0.24160  0.48990  0.56641  1.0000
  H   H363      1.0  0.08621  0.52076  0.95323  1.0000
  C   C221      1.0  0.23962  0.43607  0.57041  1.0000
  C   C222      1.0  0.22258  0.48026  0.56123  1.0000
  C   C223      1.0  0.26805  0.44340  0.57873  1.0000
  H   H364      1.0  0.23521  0.41633  0.57917  1.0000
  H   H365      1.0  0.27044  0.44475  0.60041  1.0000
  H   H366      1.0  0.08104  0.38999  0.82529  1.0000
  H   H367      1.0  0.31980  0.62607  0.67265  1.0000
  H   H368      1.0  0.24056  0.43288  0.54870  1.0000
  H   H369      1.0  0.18161  0.49532  0.55816  1.0000
  H   H370      1.0  0.00074  0.38484  0.88405  1.0000
  H   H371      1.0  0.02047  0.50721  0.73756  1.0000
  H   H372      1.0  0.27465  0.46211  0.56970  1.0000
  H   H373      1.0  0.22418  0.47498  0.53999  1.0000
  H   H374      1.0  0.30412  0.64986  0.65227  1.0000
  S   S67       1.0  0.27044  0.65364  0.86614  1.0000
  N   N16       1.0  0.05929  0.54418  0.71631  1.0000
  C   C224      1.0  0.07934  0.52522  0.72743  1.0000
  H   H375      1.0  0.14053  0.62761  0.91554  1.0000
  C   C225      1.0  0.05525  0.41124  0.80050  1.0000
  H   H376      1.0  0.02053  0.33348  0.52236  1.0000
  C   C226      1.0  0.13202  0.62266  0.93506  1.0000
  C   C227      1.0  0.07302  0.57051  0.71258  1.0000
  C   C228      1.0  0.01536  0.36105  0.80360  1.0000
  H   H377      1.0  0.22249  0.61174  0.94651  1.0000
  C   C229      1.0  0.21538  0.62577  0.96106  1.0000
  H   H378      1.0  0.26420  0.61032  0.72103  1.0000
  H   H379      1.0  0.33717  0.36600  0.50314  1.0000
  H   H380      1.0  0.02124  0.34783  0.78706  1.0000
  C   C230      1.0  0.30108  0.59283  0.62865  1.0000
  H   H381      1.0  0.04357  0.64946  0.84456  1.0000
  H   H382      1.0  0.04740  0.53306  0.98290  1.0000
  C   C231      1.0  0.10415  0.52026  0.71043  1.0000
  H   H383      1.0  0.06697  0.41840  0.84069  1.0000
  H   H384      1.0  0.06457  0.53694  0.67425  1.0000
  H   H385      1.0  0.00978  0.50224  0.96289  1.0000
  C   C232      1.0  0.25171  0.63206  0.67188  1.0000
  H   H386      1.0  0.09918  0.51292  0.69045  1.0000
  H   H387      1.0  0.11680  0.53812  0.70916  1.0000
  H   H388      1.0  0.27717  0.62735  0.62433  1.0000
  C   C233      1.0  0.28059  0.59480  0.68340  1.0000
  C   C234      1.0  0.33902  0.66114  0.90870  1.0000
  S   S68       1.0  0.29444  0.41713  0.51008  1.0000
  C   C235      1.0  0.13619  0.64481  0.95561  1.0000
  H   H389      1.0  0.03659  0.42260  0.80015  1.0000
  H   H390      1.0  0.37134  0.35115  0.53120  1.0000
  H   H391      1.0  0.42450  0.35665  0.50171  1.0000
  C   C236      1.0  0.27766  0.61011  0.63792  1.0000
  H   H392      1.0  0.46845  0.43821  0.50305  1.0000
  H   H393      1.0  0.35875  0.38388  0.56337  1.0000
  C   C237      1.0  0.03617  0.35896  0.82586  1.0000
  H   H394      1.0  0.33524  0.64849  0.85253  1.0000
  H   H395      1.0  0.00921  0.52922  0.76265  1.0000
  H   H396      1.0  0.29953  0.57236  0.63639  1.0000
  S   S69       1.0  0.47938  0.33770  0.50645  1.0000
  H   H397      1.0  0.01149  0.54657  0.92069  1.0000
  C   C238      1.0  0.28148  0.59927  0.71341  1.0000
  H   H398      1.0  0.08891  0.65516  0.93242  1.0000
  H   H399      1.0  0.30041  0.59093  0.60681  1.0000
  H   H400      1.0  0.05853  0.57626  0.96775  1.0000
  H   H401      1.0  0.23798  0.64835  0.63419  1.0000
  C   C239      1.0  0.03652  0.50764  0.68798  1.0000
  H   H402      1.0  0.35438  0.66316  0.81075  1.0000
  N   N17       1.0  0.04176  0.38376  0.84158  1.0000
  H   H403      1.0  0.25933  0.59884  0.63365  1.0000
  S   S70       1.0  0.02068  0.51745  0.87125  1.0000
  C   C240      1.0  0.34688  0.39551  0.54917  1.0000
  S   S71       1.0  0.23747  0.65641  0.74571  1.0000
  H   H404      1.0  0.39838  0.37234  0.53952  1.0000
  C   C241      1.0  0.36411  0.40639  0.52640  1.0000
  H   H405      1.0  0.02276  0.41831  0.85777  1.0000
  H   H406      1.0  0.03900  0.36252  0.87868  1.0000
  C   C242      1.0  0.01732  0.40002  0.84682  1.0000
  H   H407      1.0  0.17385  0.66254  0.92040  1.0000
  C   C243      1.0  0.43638  0.46541  0.50997  1.0000
  C   C244      1.0  0.38694  0.36408  0.52257  1.0000
  H   H408      1.0  0.08038  0.34508  0.85367  1.0000
  C   C245      1.0  0.01554  0.53968  0.94112  1.0000
  S   S72       1.0  0.19193  0.58306  0.98471  1.0000
  C   C246      1.0  0.01710  0.58605  0.95724  1.0000
  H   H409      1.0  0.28115  0.57972  0.72338  1.0000
  H   H410      1.0  0.11089  0.61718  0.93311  1.0000
  H   H411      1.0  0.00704  0.65435  0.90675  1.0000
  H   H412      1.0  0.06777  0.61197  0.70278  1.0000
  C   C247      1.0  0.02674  0.52349  0.75066  1.0000
  N   N18       1.0  0.00444  0.55918  0.96082  1.0000
  H   H413      1.0  0.33002  0.38349  0.54211  1.0000
  H   H414      1.0  0.05389  0.60793  0.95354  1.0000
  H   H415      1.0  0.04408  0.59124  0.68714  1.0000
  H   H416      1.0  0.41228  0.40612  0.50334  1.0000
  H   H417      1.0  0.07607  0.44284  0.98525  1.0000
  C   C248      1.0  0.24461  0.65549  0.65382  1.0000
  H   H418      1.0  0.32064  0.65613  0.89795  1.0000
  H   H419      1.0  0.38990  0.65532  0.84564  1.0000
  H   H420      1.0  0.23281  0.65947  0.94151  1.0000
  C   C249      1.0  0.40657  0.34579  0.50813  1.0000
  C   C250      1.0  0.24596  0.65546  0.77935  1.0000
  H   H421      1.0  0.08698  0.65990  0.96635  1.0000
  C   C251      1.0  0.36364  0.66200  0.89066  1.0000
  H   H422      1.0  0.31945  0.66086  0.70151  1.0000
  H   H423      1.0  0.41193  0.55818  0.49946  1.0000
  H   H424      1.0  0.28686  0.65136  0.71024  1.0000
  C   C252      1.0  0.29933  0.65753  0.69344  1.0000
  H   H425      1.0  0.04147  0.66484  0.98882  1.0000
  Fe  Fe36      1.0  0.44591  0.88948  0.04351  1.0000
  S   S73       1.0  0.46639  0.82364  0.00998  1.0000
  S   S74       1.0  0.43358  0.92925  0.05921  1.0000
  Fe  Fe37      1.0  0.42602  0.83553  0.02416  1.0000
  C   C253      1.0  0.48925  0.76517  0.32136  1.0000
  S   S75       1.0  0.38852  0.81025  0.02365  1.0000
  Fe  Fe38      1.0  0.48155  0.84174  0.04756  1.0000
  H   H426      1.0  0.46096  0.76155  0.03635  1.0000
  H   H427      1.0  0.43590  0.79525  0.09587  1.0000
  S   S76       1.0  0.44088  0.85026  0.06354  1.0000
  H   H428      1.0  0.43890  0.71749  0.14524  1.0000
  C   C254      1.0  0.47168  0.76660  0.05459  1.0000
  H   H429      1.0  0.43880  0.76243  0.12783  1.0000
  H   H430      1.0  0.39418  0.73269  0.03388  1.0000
  H   H431      1.0  0.47787  0.77433  0.30510  1.0000
  H   H432      1.0  0.48427  0.74374  0.32094  1.0000
  C   C255      1.0  0.42384  0.78189  0.08325  1.0000
  H   H433      1.0  0.47285  0.82757  0.10451  1.0000
  H   H434      1.0  0.43499  0.70305  0.11332  1.0000
  C   C256      1.0  0.47734  0.96119  0.13151  1.0000
  S   S77       1.0  0.48764  0.88219  0.03059  1.0000
  C   C257      1.0  0.46536  0.92413  0.10303  1.0000
  C   C258      1.0  0.45131  0.94127  0.08660  1.0000
  C   C259      1.0  0.45069  0.96839  0.09246  1.0000
  C   C260      1.0  0.46396  0.97839  0.11465  1.0000
  H   H435      1.0  0.48256  0.77306  0.34065  1.0000
  H   H436      1.0  0.46585  0.90318  0.09867  1.0000
  C   C261      1.0  0.47808  0.93405  0.12563  1.0000
  H   H437      1.0  0.39026  0.80841  0.08613  1.0000
  H   H438      1.0  0.46493  0.72096  0.12200  1.0000
  C   C262      1.0  0.48634  0.81272  0.11166  1.0000
  H   H439      1.0  0.39605  0.73284  0.07893  1.0000
  C   C263      1.0  0.46192  0.75121  0.07894  1.0000
  C   C264      1.0  0.39454  0.78718  0.08986  1.0000
  C   C265      1.0  0.43017  0.74666  0.11513  1.0000
  H   H440      1.0  0.43990  0.98171  0.07978  1.0000
  H   H441      1.0  0.42690  0.78942  0.06301  1.0000
  H   H442      1.0  0.18984  0.67627  0.01278  1.0000
  H   H443      1.0  0.47461  0.75828  0.09541  1.0000
  H   H444      1.0  0.47086  0.78825  0.05804  1.0000
  C   C266      1.0  0.48005  0.79826  0.13439  1.0000
  H   H445      1.0  0.41483  0.76046  0.03506  1.0000
  H   H446      1.0  0.33678  0.78909  0.01409  1.0000
  C   C267      1.0  0.41392  0.73944  0.04072  1.0000
  S   S78       1.0  0.42791  0.87570  0.00548  1.0000
  H   H447      1.0  0.42934  0.72838  0.02962  1.0000
  H   H448      1.0  0.38990  0.78356  0.11090  1.0000
  H   H449      1.0  0.46158  0.80189  0.14458  1.0000
  N   N19       1.0  0.43301  0.75366  0.08628  1.0000
  S   S79       1.0  0.48741  0.75816  0.16962  1.0000
  H   H450      1.0  0.46743  0.73011  0.07581  1.0000
  H   H451      1.0  0.42432  0.71410  0.07248  1.0000
  C   C268      1.0  0.44306  0.72043  0.12392  1.0000
  H   H452      1.0  0.38110  0.77567  0.07695  1.0000
  H   H453      1.0  0.40900  0.74531  0.12098  1.0000
  C   C269      1.0  0.41639  0.73450  0.07062  1.0000
  H   H454      1.0  0.49287  0.76187  0.05112  1.0000
  H   H455      1.0  0.49436  0.81500  0.31032  1.0000
  H   H456      1.0  0.48838  0.92064  0.13860  1.0000
  H   H457      1.0  0.12976  0.70217  0.01113  1.0000
  S   S80       1.0  0.49270  0.97312  0.16034  1.0000
  C   C270      1.0  0.49743  0.77892  0.14376  1.0000
  H   H458      1.0  0.12488  0.66766  0.00580  1.0000
  H   H459      1.0  0.33964  0.86970  0.01698  1.0000
  C   C271      1.0  0.12093  0.68749  0.99740  1.0000
  H   H460      1.0  0.09931  0.69118  0.99718  1.0000
  H   H461      1.0  0.46330  0.99932  0.11900  1.0000
  H   H462      1.0  0.33134  0.84055  0.99838  1.0000
  Fe  Fe39      1.0  0.24289  0.71587  0.93770  1.0000
  H   H463      1.0  0.26422  0.69399  0.77855  1.0000
  Fe  Fe40      1.0  0.24456  0.74746  0.88718  1.0000
  S   S81       1.0  0.28403  0.73074  0.87567  1.0000
  S   S82       1.0  0.22547  0.77375  0.85683  1.0000
  Fe  Fe41      1.0  0.26728  0.69204  0.88869  1.0000
  C   C272      1.0  0.35720  0.72938  0.85496  1.0000
  Fe  Fe42      1.0  0.29573  0.73725  0.91811  1.0000
  S   S83       1.0  0.33819  0.75194  0.92386  1.0000
  S   S84       1.0  0.22702  0.70813  0.89723  1.0000
  S   S85       1.0  0.25727  0.75723  0.92862  1.0000
  Fe  Fe43      1.0  0.08035  0.80290  0.82645  1.0000
  S   S86       1.0  0.06659  0.76666  0.80502  1.0000
  S   S87       1.0  0.10234  0.79578  0.86441  1.0000
  Fe  Fe44      1.0  0.05185  0.84062  0.78802  1.0000
  S   S88       1.0  0.03578  0.80686  0.76411  1.0000
  S   S89       1.0  0.04771  0.88426  0.77746  1.0000
  Fe  Fe45      1.0  0.02771  0.78761  0.80329  1.0000
  H   H464      1.0  0.33795  0.70925  0.88620  1.0000
  Fe  Fe46      1.0  0.07639  0.78928  0.76833  1.0000
  S   S90       1.0  0.10183  0.77439  0.73484  1.0000
  S   S91       1.0  0.04063  0.82273  0.82710  1.0000
  S   S92       1.0  0.09321  0.82415  0.78994  1.0000
  C   C273      1.0  0.03778  0.88671  0.68029  1.0000
  H   H465      1.0  0.34958  0.91866  0.97608  1.0000
  H   H466      1.0  0.07174  0.77424  0.90824  1.0000
  H   H467      1.0  0.36893  0.92491  0.94651  1.0000
  H   H468      1.0  0.04073  0.90619  0.68998  1.0000
  N   N20       1.0  0.35917  0.86816  0.95101  1.0000
  C   C274      1.0  0.06434  0.87327  0.67338  1.0000
  H   H469      1.0  0.04165  0.93611  0.75535  1.0000
  H   H470      1.0  0.27575  0.69398  0.82606  1.0000
  S   S93       1.0  0.28211  0.69657  0.93017  1.0000
  H   H471      1.0  0.38507  0.87999  0.91882  1.0000
  C   C275      1.0  0.10350  0.73972  0.73202  1.0000
  C   C276      1.0  0.12415  0.72801  0.71760  1.0000
  C   C277      1.0  0.12576  0.70032  0.71522  1.0000
  H   H472      1.0  0.06842  0.79624  0.93550  1.0000
  C   C278      1.0  0.08582  0.69607  0.74128  1.0000
  C   C279      1.0  0.08444  0.72368  0.74399  1.0000
  H   H473      1.0  0.13889  0.74035  0.70824  1.0000
  H   H474      1.0  0.14164  0.69137  0.70399  1.0000
  C   C280      1.0  0.38640  0.87371  0.93983  1.0000
  H   H475      1.0  0.06832  0.73257  0.75491  1.0000
  C   C281      1.0  0.04756  0.82255  0.69835  1.0000
  C   C282      1.0  0.39029  0.78794  0.97347  1.0000
  C   C283      1.0  0.37874  0.77487  0.95175  1.0000
  C   C284      1.0  0.35196  0.76724  0.95222  1.0000
  C   C285      1.0  0.33695  0.77240  0.97486  1.0000
  H   H476      1.0  0.03914  0.82568  0.95358  1.0000
  H   H477      1.0  0.39055  0.77092  0.93437  1.0000
  H   H478      1.0  0.02283  0.84807  0.88299  1.0000
  C   C286      1.0  0.13643  0.78913  0.86188  1.0000
  C   C287      1.0  0.14924  0.77565  0.88234  1.0000
  C   C288      1.0  0.17655  0.77057  0.88093  1.0000
  C   C289      1.0  0.19122  0.77946  0.85928  1.0000
  C   C290      1.0  0.17838  0.79286  0.83882  1.0000
  C   C291      1.0  0.15103  0.79750  0.84000  1.0000
  H   H479      1.0  0.13805  0.76923  0.89936  1.0000
  H   H480      1.0  0.18634  0.76023  0.89679  1.0000
  H   H481      1.0  0.18968  0.79982  0.82207  1.0000
  H   H482      1.0  0.14136  0.80809  0.82425  1.0000
  H   H483      1.0  0.01847  0.85249  0.94429  1.0000
  C   C292      1.0  0.40637  0.85055  0.94059  1.0000
  H   H484      1.0  0.06861  0.89554  0.72218  1.0000
  C   C293      1.0  0.08672  0.88664  0.71345  1.0000
  C   C294      1.0  0.33909  0.67546  0.82062  1.0000
  H   H485      1.0  0.00046  0.86184  0.75278  1.0000
  H   H486      1.0  0.35539  0.84125  0.91779  1.0000
  H   H487      1.0  0.21553  0.69713  0.83095  1.0000
  H   H488      1.0  0.07080  0.68377  0.75027  1.0000
  H   H489      1.0  0.41086  0.79380  0.97278  1.0000
  H   H490      1.0  0.31923  0.87300  0.98924  1.0000
  H   H491      1.0  0.05977  0.69382  0.95201  1.0000
  H   H492      1.0  0.02619  0.82604  0.70216  1.0000
  C   C295      1.0  0.34950  0.91825  0.95421  1.0000
  H   H493      1.0  0.14841  0.69826  0.76330  1.0000
  H   H494      1.0  0.11760  0.84405  0.70388  1.0000
  C   C296      1.0  0.07965  0.69498  0.94267  1.0000
  C   C297      1.0  0.34151  0.89086  0.94332  1.0000
  C   C298      1.0  0.02538  0.92416  0.74828  1.0000
  C   C299      1.0  0.03302  0.83793  0.93642  1.0000
  H   H495      1.0  0.41123  0.70684  0.87157  1.0000
  H   H496      1.0  0.12614  0.87855  0.73028  1.0000
  H   H497      1.0  0.33473  0.93311  0.94775  1.0000
  H   H498      1.0  0.03093  0.73619  0.89568  1.0000
  H   H499      1.0  0.31636  0.76659  0.97554  1.0000
  C   C300      1.0  0.33824  0.67027  0.85056  1.0000
  H   H500      1.0  0.15533  0.68962  0.97287  1.0000
  S   S94       1.0  0.21801  0.70522  0.97312  1.0000
  C   C301      1.0  0.13681  0.67933  0.79937  1.0000
  S   S95       1.0  0.48491  0.87027  0.95307  1.0000
  H   H501      1.0  0.00927  0.68668  0.81150  1.0000
  H   H502      1.0  0.05590  0.67948  0.83222  1.0000
  H   H503      1.0  0.03178  0.75161  0.84935  1.0000
  N   N21       1.0  0.17284  0.71593  0.79354  1.0000
  C   C302      1.0  0.19998  0.71725  0.78116  1.0000
  C   C303      1.0  0.17646  0.71391  0.82296  1.0000
  C   C304      1.0  0.15908  0.74161  0.78723  1.0000
  C   C305      1.0  0.15815  0.69257  0.78201  1.0000
  C   C306      1.0  0.05759  0.85378  0.92731  1.0000
  H   H504      1.0  0.37453  0.84860  0.98542  1.0000
  C   C307      1.0  0.13157  0.74579  0.79941  1.0000
  H   H505      1.0  0.12359  0.82077  0.66241  1.0000
  H   H506      1.0  0.21215  0.73308  0.79060  1.0000
  H   H507      1.0  0.09884  0.86477  0.74912  1.0000
  H   H508      1.0  0.15730  0.71175  0.83341  1.0000
  H   H509      1.0  0.18512  0.73256  0.83089  1.0000
  H   H510      1.0  0.17157  0.75872  0.79339  1.0000
  H   H511      1.0  0.15610  0.74377  0.76563  1.0000
  C   C308      1.0  0.34927  0.84266  0.93889  1.0000
  H   H512      1.0  0.12216  0.69341  0.80739  1.0000
  H   H513      1.0  0.05805  0.85838  0.90599  1.0000
  C   C309      1.0  0.10649  0.68433  0.72698  1.0000
  C   C310      1.0  0.19446  0.69111  0.83223  1.0000
  H   H514      1.0  0.08902  0.71277  0.95126  1.0000
  H   H515      1.0  0.05069  0.82115  0.67689  1.0000
  H   H516      1.0  0.39608  0.89040  0.95047  1.0000
  H   H517      1.0  0.13127  0.74402  0.82115  1.0000
  H   H518      1.0  0.11677  0.73258  0.79019  1.0000
  H   H519      1.0  0.12516  0.76629  0.79485  1.0000
  C   C311      1.0  0.25934  0.67703  0.79058  1.0000
  C   C312      1.0  0.04095  0.80355  0.90232  1.0000
  H   H520      1.0  0.09592  0.90259  0.70134  1.0000
  N   N22       1.0  0.07985  0.86292  0.69655  1.0000
  H   H521      1.0  0.02504  0.87414  0.69288  1.0000
  C   C313      1.0  0.06447  0.84345  0.71311  1.0000
  H   H522      1.0  0.21081  0.69849  0.78445  1.0000
  C   C314      1.0  0.13358  0.69092  0.96990  1.0000
  N   N23       1.0  0.02044  0.82060  0.91573  1.0000
  H   H523      1.0  0.36215  0.74857  0.86452  1.0000
  H   H524      1.0  0.40052  0.83399  0.92745  1.0000
  H   H525      1.0  0.07805  0.83248  0.72643  1.0000
  H   H526      1.0  0.09189  0.83017  0.65073  1.0000
  H   H527      1.0  0.37286  0.88271  0.98911  1.0000
  H   H528      1.0  0.30891  0.85120  0.92493  1.0000
  H   H529      1.0  0.32076  0.88766  0.94960  1.0000
  C   C315      1.0  0.20078  0.72167  0.75105  1.0000
  H   H530      1.0  0.19565  0.74234  0.74587  1.0000
  H   H531      1.0  0.34056  0.89243  0.92141  1.0000
  C   C316      1.0  0.10544  0.85089  0.68698  1.0000
  H   H532      1.0  0.09542  0.80911  0.67969  1.0000
  C   C317      1.0  0.02337  0.89756  0.75617  1.0000
  H   H533      1.0  0.22126  0.71820  0.74385  1.0000
  H   H534      1.0  0.00818  0.95597  0.72550  1.0000
  H   H535      1.0  0.18776  0.70769  0.74029  1.0000
  H   H536      1.0  0.34212  0.69657  0.81584  1.0000
  H   H537      1.0  0.07637  0.88794  0.66216  1.0000
  H   H538      1.0  0.05814  0.87301  0.93796  1.0000
  C   C318      1.0  0.01259  0.74041  0.88566  1.0000
  C   C319      1.0  0.00229  0.88231  0.74686  1.0000
  C   C320      1.0  0.41245  0.68583  0.86535  1.0000
  H   H539      1.0  0.13040  0.71174  0.96366  1.0000
  H   H540      1.0  0.40956  0.84292  0.96074  1.0000
  H   H541      1.0  0.33735  0.73116  0.84584  1.0000
  C   C321      1.0  0.05708  0.78517  0.92045  1.0000
  C   C322      1.0  0.10543  0.88160  0.73687  1.0000
  C   C323      1.0  0.00262  0.66658  0.88915  1.0000
  H   H542      1.0  0.03172  0.79067  0.88732  1.0000
  H   H543      1.0  0.07606  0.84336  0.93292  1.0000
  H   H544      1.0  0.11749  0.86603  0.67642  1.0000
  H   H545      1.0  0.10543  0.89933  0.74990  1.0000
  H   H546      1.0  0.07722  0.69808  0.92114  1.0000
  H   H547      1.0  0.35841  0.82543  0.94882  1.0000
  H   H548      1.0  0.31000  0.83903  0.95848  1.0000
  H   H549      1.0  0.42591  0.85773  0.93346  1.0000
  H   H550      1.0  0.02667  0.89063  0.66186  1.0000
  C   C324      1.0  0.31916  0.83770  0.93875  1.0000
  C   C325      1.0  0.36185  0.86571  0.98049  1.0000
  H   H551      1.0  0.16883  0.68978  0.89875  1.0000
  H   H552      1.0  0.31545  0.81724  0.93150  1.0000
  C   C326      1.0  0.34859  0.78518  0.99668  1.0000
  H   H553      1.0  0.17205  0.67642  0.77634  1.0000
  C   C327      1.0  0.26582  0.67708  0.81749  1.0000
  C   C328      1.0  0.01308  0.74912  0.85941  1.0000
  H   H554      1.0  0.02065  0.67819  0.88468  1.0000
  H   H555      1.0  0.05524  0.81574  0.89090  1.0000
  H   H556      1.0  0.12674  0.70147  0.91872  1.0000
  H   H557      1.0  0.19033  0.68661  0.85324  1.0000
  C   C329      1.0  0.33638  0.86187  0.99675  1.0000
  H   H558      1.0  0.37234  0.72677  0.83946  1.0000
  H   H559      1.0  0.04459  0.76990  0.92999  1.0000
  C   C330      1.0  0.13417  0.68110  0.92255  1.0000
  C   C331      1.0  0.00763  0.83797  0.89525  1.0000
  C   C332      1.0  0.35740  0.70755  0.87609  1.0000
  H   H560      1.0  0.19164  0.67268  0.82066  1.0000
  C   C333      1.0  0.38705  0.67645  0.85133  1.0000
  H   H561      1.0  0.05068  0.85415  0.72656  1.0000
  H   H562      1.0  0.31959  0.67932  0.85804  1.0000
  H   H563      1.0  0.00950  0.79061  0.94438  1.0000
  H   H564      1.0  0.17385  0.69615  0.93291  1.0000
  C   C334      1.0  0.01296  0.67821  0.83137  1.0000
  H   H565      1.0  0.37158  0.71328  0.89188  1.0000
  C   C335      1.0  0.10336  0.82646  0.66889  1.0000
  N   N24       1.0  0.36164  0.67957  0.86671  1.0000
  C   C336      1.0  0.16442  0.68226  0.91883  1.0000
  H   H566      1.0  0.41754  0.67319  0.88241  1.0000
  Fe  Fe47      1.0  0.46945  0.86503  0.99429  1.0000
  C   C337      1.0  0.00028  0.80298  0.92884  1.0000
  H   H567      1.0  0.12585  0.66881  0.90633  1.0000
  H   H568      1.0  0.05989  0.85774  0.65869  1.0000
  H   H569      1.0  0.01515  0.69613  0.84395  1.0000
  N   N25       1.0  0.12471  0.67151  0.94904  1.0000
  C   C338      1.0  0.37519  0.79332  0.99600  1.0000
  C   C339      1.0  0.00649  0.93546  0.73130  1.0000
  H   H570      1.0  0.31989  0.66945  0.81190  1.0000
  H   H571      1.0  0.42931  0.68431  0.85132  1.0000
  H   H572      1.0  0.26120  0.66959  0.65140  1.0000
  H   H573      1.0  0.14576  0.66809  0.81581  1.0000
  H   H574      1.0  0.99874  0.80736  0.86511  1.0000
  H   H575      1.0  0.33649  0.68010  0.91949  1.0000
  C   C340      1.0  0.09503  0.66916  0.94820  1.0000
  H   H576      1.0  0.05197  0.80257  0.70634  1.0000
  C   C341      1.0  0.21198  0.67111  0.97679  1.0000
  H   H577      1.0  0.29263  0.67719  0.68637  1.0000
  H   H578      1.0  0.38655  0.68731  0.83240  1.0000
  H   H579      1.0  0.38010  0.66835  0.90370  1.0000
  H   H580      1.0  0.22773  0.66654  0.66258  1.0000
  C   C342      1.0  0.95632  0.10171  0.43805  1.0000
  Fe  Fe48      1.0  0.54678  0.05303  0.17279  1.0000
  S   S96       1.0  0.52462  0.09028  0.16314  1.0000
  S   S97       1.0  0.59026  0.04930  0.18157  1.0000
  H   H581      1.0  0.63819  0.03255  0.36355  1.0000
  H   H582      1.0  0.94125  0.03364  0.49043  1.0000
  H   H583      1.0  0.56475  0.10754  0.01693  1.0000
  H   H584      1.0  0.67699  0.07290  0.47884  1.0000
  Fe  Fe49      1.0  0.78905  0.05089  0.46211  1.0000
  H   H585      1.0  0.68285  0.16724  0.46412  1.0000
  H   H586      1.0  0.65245  0.31429  0.48071  1.0000
  Fe  Fe50      1.0  0.84661  0.06909  0.46437  1.0000
  S   S98       1.0  0.75339  0.02888  0.44473  1.0000
  S   S99       1.0  0.88648  0.06391  0.44520  1.0000
  H   H587      1.0  0.63971  0.05403  0.06728  1.0000
  Fe  Fe51      1.0  0.80334  0.10747  0.47866  1.0000
  S   S100      1.0  0.79173  0.15043  0.47666  1.0000
  S   S101      1.0  0.82528  0.03412  0.48199  1.0000
  S   S102      1.0  0.81114  0.08375  0.44197  1.0000
  C   C343      1.0  0.55251  0.04502  0.03833  1.0000
  H   H588      1.0  0.62126  0.31851  0.44661  1.0000
  C   C344      1.0  0.76928  0.01934  0.39290  1.0000
  C   C345      1.0  0.95618  0.12037  0.45844  1.0000
  S   S103      1.0  0.58691  0.06002  0.99783  1.0000
  H   H589      1.0  0.55750  0.02469  0.03394  1.0000
  C   C346      1.0  0.76429  0.15895  0.49605  1.0000
  S   S104      1.0  0.53427  0.03134  0.13636  1.0000
  C   C347      1.0  0.91232  0.10503  0.47144  1.0000
  C   C348      1.0  0.91269  0.08624  0.45098  1.0000
  S   S105      1.0  0.51448  0.03644  0.19814  1.0000
  C   C349      1.0  0.66570  0.07232  0.33566  1.0000
  H   H590      1.0  0.57014  0.02221  0.27205  1.0000
  H   H591      1.0  0.78717  0.03011  0.39758  1.0000
  H   H592      1.0  0.68903  0.10900  0.41869  1.0000
  H   H593      1.0  0.97319  0.10035  0.42495  1.0000
  H   H594      1.0  0.72625  0.12897  0.41796  1.0000
  H   H595      1.0  0.93536  0.07009  0.41880  1.0000
  H   H596      1.0  0.71406  0.15756  0.45145  1.0000
  H   H597      1.0  0.60380  0.01539  0.05557  1.0000
  H   H598      1.0  0.75086  0.10335  0.41494  1.0000
  H   H599      1.0  0.66058  0.07711  0.27389  1.0000
  H   H600      1.0  0.96474  0.06923  0.48874  1.0000
  C   C350      1.0  0.55645  0.09168  0.02860  1.0000
  C   C351      1.0  0.53855  0.09763  0.04886  1.0000
  C   C352      1.0  0.52785  0.07750  0.06439  1.0000
  C   C353      1.0  0.53473  0.05109  0.05907  1.0000
  H   H601      1.0  0.66663  0.09112  0.43809  1.0000
  N   N26       1.0  0.70284  0.10075  0.45856  1.0000
  C   C354      1.0  0.93424  0.12193  0.47538  1.0000
  H   H602      1.0  0.52577  0.03540  0.07049  1.0000
  C   C355      1.0  0.61642  0.02269  0.12244  1.0000
  C   C356      1.0  0.58370  0.02041  0.25559  1.0000
  H   H603      1.0  0.59398  0.05852  0.06991  1.0000
  C   C357      1.0  0.57888  0.03447  0.23231  1.0000
  C   C358      1.0  0.60592  0.00408  0.25760  1.0000
  C   C359      1.0  0.68815  0.09331  0.43378  1.0000
  H   H604      1.0  0.71976  0.07943  0.33697  1.0000
  H   H605      1.0  0.69295  0.04981  0.43238  1.0000
  S   S106      1.0  0.98384  0.14135  0.46153  1.0000
  H   H606      1.0  0.75800  0.19584  0.47588  1.0000
  H   H607      1.0  0.63308  0.01042  0.33579  1.0000
  H   H608      1.0  0.58677  0.09340  0.10154  1.0000
  C   C360      1.0  0.60621  0.00823  0.07621  1.0000
  C   C361      1.0  0.67428  0.02497  0.33983  1.0000
  H   H609      1.0  0.68701  0.02919  0.35715  1.0000
  H   H610      1.0  0.72528  0.04540  0.34642  1.0000
  H   H611      1.0  0.64079  0.05171  0.25987  1.0000
  H   H612      1.0  0.68286  0.00698  0.33033  1.0000
  H   H613      1.0  0.63244  0.01462  0.19672  1.0000
  C   C362      1.0  0.65850  0.05544  0.27226  1.0000
  H   H614      1.0  0.74183  0.08391  0.45370  1.0000
  H   H615      1.0  0.62492  0.03898  0.13453  1.0000
  C   C363      1.0  0.56362  0.06548  0.02325  1.0000
  S   S107      1.0  0.50497  0.08629  0.08924  1.0000
  H   H616      1.0  0.67684  0.07458  0.35443  1.0000
  C   C364      1.0  0.69110  0.12570  0.47010  1.0000
  H   H617      1.0  0.64480  0.07037  0.34229  1.0000
  H   H618      1.0  0.65160  0.05287  0.10021  1.0000
  H   H619      1.0  0.93397  0.13642  0.49111  1.0000
  C   C365      1.0  0.73223  0.10369  0.45417  1.0000
  H   H620      1.0  0.62146  0.08715  0.10073  1.0000
  H   H621      1.0  0.75732  0.13218  0.43366  1.0000
  H   H622      1.0  0.68364  0.14916  0.43396  1.0000
  H   H623      1.0  0.53307  0.11799  0.05257  1.0000
  C   C366      1.0  0.74149  0.11778  0.42865  1.0000
  H   H624      1.0  0.65529  0.02007  0.29435  1.0000
  H   H625      1.0  0.70912  0.06039  0.47206  1.0000
  C   C367      1.0  0.69740  0.06750  0.42026  1.0000
  Fe  Fe52      1.0  0.50036  0.01710  0.16088  1.0000
  C   C368      1.0  0.59643  0.03242  0.21106  1.0000
  H   H626      1.0  0.70313  0.06443  0.29324  1.0000
  C   C369      1.0  0.60214  0.07848  0.10635  1.0000
  C   C370      1.0  0.61885  0.01630  0.21316  1.0000
  C   C371      1.0  0.93488  0.08457  0.43456  1.0000
  C   C372      1.0  0.64213  0.04064  0.08458  1.0000
  H   H627      1.0  0.60112  0.07549  0.12799  1.0000
  H   H628      1.0  0.70086  0.13099  0.48897  1.0000
  C   C373      1.0  0.64716  0.01675  0.35128  1.0000
  H   H629      1.0  0.90606  0.03253  0.49202  1.0000
  H   H630      1.0  0.74139  0.11417  0.47108  1.0000
  H   H631      1.0  0.56176  0.04719  0.23095  1.0000
  H   H632      1.0  0.68207  0.03005  0.07241  1.0000
  N   N27       1.0  0.67419  0.04792  0.32076  1.0000
  C   C374      1.0  0.70189  0.05025  0.30980  1.0000
  C   C375      1.0  0.66282  0.01998  0.07570  1.0000
  C   C376      1.0  0.59593  0.05282  0.09099  1.0000
  C   C377      1.0  0.69322  0.15101  0.45345  1.0000
  H   H633      1.0  0.68380  0.10031  0.30690  1.0000
  H   H634      1.0  0.66980  0.12261  0.47496  1.0000
  H   H635      1.0  0.63404  0.04545  0.30559  1.0000
  C   C378      1.0  0.65474  0.04153  0.29905  1.0000
  C   C379      1.0  0.66698  0.09883  0.32076  1.0000
  H   H636      1.0  0.60350  0.32171  0.47648  1.0000
  H   H637      1.0  0.58001  0.31041  0.42938  1.0000
  C   C380      1.0  0.74996  0.01571  0.41235  1.0000
  C   C381      1.0  0.72331  0.05908  0.32958  1.0000
  H   H638      1.0  0.89530  0.10647  0.48423  1.0000
  H   H639      1.0  0.64822  0.10256  0.31004  1.0000
  H   H640      1.0  0.67010  0.11515  0.33514  1.0000
  H   H641      1.0  0.70830  0.03099  0.30109  1.0000
  N   N28       1.0  0.61554  0.03048  0.09380  1.0000
  H   H642      1.0  0.67564  0.04705  0.26136  1.0000
  H   H643      1.0  0.68665  0.06490  0.40142  1.0000
  H   H644      1.0  0.71880  0.06782  0.41555  1.0000
  H   H645      1.0  0.57590  0.04677  0.09760  1.0000
  H   H646      1.0  0.65728  0.01088  0.05657  1.0000
  Fe  Fe53      1.0  0.50912  0.06673  0.12875  1.0000
  H   H647      1.0  0.74280  0.05917  0.31941  1.0000
  H   H648      1.0  0.78064  0.01185  0.35253  1.0000
  H   H649      1.0  0.59614  0.02032  0.13074  1.0000
  S   S108      1.0  0.64857  0.01610  0.99872  1.0000
  H   H650      1.0  0.56305  0.00794  0.08423  1.0000
  C   C382      1.0  0.69828  0.07862  0.47813  1.0000
  C   C383      1.0  0.76552  0.00889  0.36736  1.0000
  C   C384      1.0  0.75106  0.18274  0.49126  1.0000
  C   C385      1.0  0.61757  0.33231  0.46336  1.0000
  H   H651      1.0  0.55724  0.33105  0.41234  1.0000
  C   C386      1.0  0.57720  0.33066  0.42144  1.0000
  C   C387      1.0  0.62347  0.00192  0.23633  1.0000
  H   H652      1.0  0.65351  0.00333  0.13391  1.0000
  C   C388      1.0  0.72680  0.00168  0.40583  1.0000
  H   H653      1.0  0.66618  0.00421  0.09029  1.0000
  H   H654      1.0  0.74901  0.00013  0.23829  1.0000
  H   H655      1.0  0.73179  0.04687  0.85063  1.0000
  C   C389      1.0  0.92069  0.23918  0.60847  1.0000
  S   S109      1.0  0.93230  0.27033  0.73730  1.0000
  C   C390      1.0  0.81281  0.01766  0.65043  1.0000
  S   S110      1.0  0.88729  0.26077  0.69120  1.0000
  H   H656      1.0  0.77242  0.15012  0.69778  1.0000
  Fe  Fe54      1.0  0.89296  0.24989  0.73351  1.0000
  S   S111      1.0  0.88720  0.20611  0.74049  1.0000
  Fe  Fe55      1.0  0.92482  0.28371  0.69586  1.0000
  S   S112      1.0  0.95787  0.28004  0.66635  1.0000
  H   H657      1.0  0.95827  0.15996  0.61564  1.0000
  Fe  Fe56      1.0  0.72481  0.08525  0.79631  1.0000
  S   S113      1.0  0.73092  0.06330  0.75809  1.0000
  S   S114      1.0  0.69074  0.07853  0.82511  1.0000
  Fe  Fe57      1.0  0.76844  0.12484  0.78387  1.0000
  S   S115      1.0  0.77872  0.10618  0.74511  1.0000
  S   S116      1.0  0.78455  0.16370  0.79882  1.0000
  Fe  Fe58      1.0  0.73510  0.10304  0.73904  1.0000
  S   S117      1.0  0.72250  0.10943  0.69704  1.0000
  Fe  Fe59      1.0  0.77420  0.06778  0.76648  1.0000
  S   S118      1.0  0.79990  0.03322  0.75529  1.0000
  S   S119      1.0  0.72488  0.12490  0.77609  1.0000
  S   S120      1.0  0.76804  0.08648  0.80637  1.0000
  Fe  Fe60      1.0  0.69586  0.21568  0.56727  1.0000
  S   S121      1.0  0.66232  0.23286  0.59068  1.0000
  S   S122      1.0  0.69003  0.17942  0.54249  1.0000
  Fe  Fe61      1.0  0.73652  0.25379  0.58941  1.0000
  S   S123      1.0  0.70615  0.27460  0.61426  1.0000
  S   S124      1.0  0.78102  0.25873  0.59044  1.0000
  Fe  Fe62      1.0  0.69148  0.23393  0.62387  1.0000
  S   S125      1.0  0.68228  0.22376  0.66615  1.0000
  Fe  Fe63      1.0  0.67962  0.27196  0.57866  1.0000
  S   S126      1.0  0.65445  0.30798  0.56896  1.0000
  S   S127      1.0  0.72353  0.21332  0.60143  1.0000
  S   S128      1.0  0.71150  0.25455  0.55270  1.0000
  S   S129      1.0  0.69199  0.01357  0.93254  1.0000
  C   C391      1.0  0.62554  0.30659  0.54948  1.0000
  H   H658      1.0  0.86419  0.15123  0.53288  1.0000
  H   H659      1.0  0.66628  0.00769  0.85867  1.0000
  C   C392      1.0  0.84583  0.19002  0.52370  1.0000
  H   H660      1.0  0.73758  0.05026  0.67421  1.0000
  C   C393      1.0  0.61808  0.28349  0.53623  1.0000
  H   H661      1.0  0.91692  0.07174  0.51603  1.0000
  H   H662      1.0  0.72632  0.09340  0.50816  1.0000
  H   H663      1.0  0.63047  0.26607  0.53730  1.0000
  C   C394      1.0  0.71026  0.14092  0.68899  1.0000
  C   C395      1.0  0.70327  0.15924  0.70853  1.0000
  C   C396      1.0  0.69393  0.18441  0.70141  1.0000
  C   C397      1.0  0.69205  0.19150  0.67477  1.0000
  C   C398      1.0  0.69865  0.17299  0.65531  1.0000
  C   C399      1.0  0.70770  0.14777  0.66240  1.0000
  H   H664      1.0  0.70485  0.15397  0.72908  1.0000
  H   H665      1.0  0.68837  0.19847  0.71655  1.0000
  H   H666      1.0  0.69629  0.17785  0.63476  1.0000
  H   H667      1.0  0.71267  0.13354  0.64720  1.0000
  C   C400      1.0  0.85817  0.19499  0.75621  1.0000
  C   C401      1.0  0.85111  0.16823  0.75408  1.0000
  C   C402      1.0  0.82836  0.15859  0.76677  1.0000
  C   C403      1.0  0.81269  0.17559  0.78199  1.0000
  C   C404      1.0  0.81974  0.20237  0.78416  1.0000
  C   C405      1.0  0.84234  0.21210  0.77115  1.0000
  H   H668      1.0  0.86348  0.15480  0.74291  1.0000
  H   H669      1.0  0.82342  0.13783  0.76540  1.0000
  H   H670      1.0  0.80780  0.21557  0.79605  1.0000
  H   H671      1.0  0.84787  0.23266  0.77322  1.0000
  C   C406      1.0  0.81562  0.29777  0.66431  1.0000
  C   C407      1.0  0.83189  0.28346  0.64705  1.0000
  C   C408      1.0  0.82116  0.27169  0.62431  1.0000
  C   C409      1.0  0.79407  0.27390  0.61890  1.0000
  C   C410      1.0  0.90893  0.15838  0.69255  1.0000
  Fe  Fe64      1.0  0.98489  0.02144  0.65637  1.0000
  H   H672      1.0  0.85281  0.28190  0.65088  1.0000
  H   H673      1.0  0.83389  0.26092  0.61089  1.0000
  H   H674      1.0  0.79469  0.04376  0.69504  1.0000
  C   C411      1.0  0.71929  0.17230  0.52555  1.0000
  C   C412      1.0  0.81197  0.23824  0.52793  1.0000
  H   H675      1.0  0.79675  0.11261  0.67848  1.0000
  C   C413      1.0  0.92042  0.09032  0.57065  1.0000
  H   H676      1.0  0.75057  0.18731  0.68296  1.0000
  H   H677      1.0  0.78951  0.21336  0.55329  1.0000
  S   S130      1.0  0.97970  0.20458  0.50655  1.0000
  Fe  Fe65      1.0  0.90940  0.30678  0.74905  1.0000
  C   C414      1.0  0.94108  0.22340  0.59826  1.0000
  C   C415      1.0  0.92548  0.25615  0.62992  1.0000
  C   C416      1.0  0.95069  0.25738  0.64112  1.0000
  C   C417      1.0  0.97083  0.24109  0.63134  1.0000
  C   C418      1.0  0.96596  0.22403  0.61010  1.0000
  H   H678      1.0  0.90992  0.26894  0.63716  1.0000
  H   H679      1.0  0.93058  0.10849  0.56375  1.0000
  H   H680      1.0  0.97523  0.17182  0.68760  1.0000
  H   H681      1.0  0.92247  0.17366  0.64538  1.0000
  C   C419      1.0  0.84092  0.02445  0.72132  1.0000
  C   C420      1.0  0.82923  0.04220  0.73910  1.0000
  C   C421      1.0  0.84126  0.06661  0.74401  1.0000
  C   C422      1.0  0.86550  0.07277  0.73195  1.0000
  H   H682      1.0  0.90141  0.23892  0.59933  1.0000
  H   H683      1.0  0.83236  0.08038  0.75779  1.0000
  H   H684      1.0  0.87520  0.09132  0.73650  1.0000
  S   S131      1.0  0.82830  0.31258  0.69311  1.0000
  H   H685      1.0  0.92471  0.01136  0.51290  1.0000
  C   C423      1.0  0.88811  0.13765  0.68434  1.0000
  C   C424      1.0  0.69184  0.03306  0.90356  1.0000
  C   C425      1.0  0.66972  0.04783  0.89616  1.0000
  C   C426      1.0  0.66988  0.06193  0.87222  1.0000
  C   C427      1.0  0.69214  0.06151  0.85554  1.0000
  C   C428      1.0  0.71451  0.04732  0.86326  1.0000
  C   C429      1.0  0.71433  0.03318  0.88718  1.0000
  H   H686      1.0  0.65237  0.04811  0.90870  1.0000
  H   H687      1.0  0.65251  0.07296  0.86647  1.0000
  S   S132      1.0  0.98094  0.14885  0.54064  1.0000
  H   H688      1.0  0.54459  0.31685  0.62443  1.0000
  H   H689      1.0  0.70739  0.06522  0.51789  1.0000
  N   N29       1.0  0.72437  0.14518  0.87312  1.0000
  C   C430      1.0  0.72297  0.13779  0.90191  1.0000
  C   C431      1.0  0.73561  0.17278  0.87103  1.0000
  C   C432      1.0  0.74203  0.12649  0.85801  1.0000
  C   C433      1.0  0.69691  0.14356  0.86176  1.0000
  C   C434      1.0  0.71535  0.10883  0.90793  1.0000
  C   C435      1.0  0.71720  0.19535  0.88014  1.0000
  C   C436      1.0  0.77061  0.12425  0.86838  1.0000
  C   C437      1.0  0.69371  0.15359  0.83313  1.0000
  H   H690      1.0  0.74204  0.14190  0.91203  1.0000
  H   H691      1.0  0.70820  0.15027  0.91244  1.0000
  H   H692      1.0  0.74220  0.17729  0.85055  1.0000
  H   H693      1.0  0.75396  0.17462  0.88297  1.0000
  H   H694      1.0  0.73336  0.10627  0.85714  1.0000
  H   H695      1.0  0.74365  0.13261  0.83702  1.0000
  H   H696      1.0  0.68969  0.12277  0.86191  1.0000
  H   H697      1.0  0.68250  0.15438  0.87445  1.0000
  H   H698      1.0  0.72972  0.09440  0.89977  1.0000
  H   H699      1.0  0.71514  0.10591  0.92963  1.0000
  H   H700      1.0  0.69520  0.10397  0.90092  1.0000
  H   H701      1.0  0.69984  0.19747  0.86703  1.0000
  H   H702      1.0  0.71050  0.19279  0.90079  1.0000
  H   H703      1.0  0.72824  0.21434  0.87920  1.0000
  H   H704      1.0  0.78152  0.14318  0.86627  1.0000
  H   H705      1.0  0.78155  0.10944  0.85644  1.0000
  H   H706      1.0  0.77142  0.11732  0.88905  1.0000
  H   H707      1.0  0.68650  0.13725  0.82033  1.0000
  H   H708      1.0  0.71200  0.16137  0.82400  1.0000
  H   H709      1.0  0.67851  0.16941  0.83239  1.0000
  H   H710      1.0  0.97962  0.27069  0.52990  1.0000
  C   C438      1.0  0.93494  0.15668  0.65161  1.0000
  C   C439      1.0  0.96873  0.26640  0.54829  1.0000
  H   H711      1.0  0.92447  0.02593  0.78705  1.0000
  C   C440      1.0  0.80429  0.21023  0.53728  1.0000
  C   C441      1.0  0.78151  0.09739  0.62038  1.0000
  N   N30       1.0  0.82669  0.19276  0.54644  1.0000
  H   H712      1.0  0.97471  0.14175  0.64085  1.0000
  H   H713      1.0  0.99072  0.09044  0.49905  1.0000
  H   H714      1.0  0.76622  0.12446  0.52074  1.0000
  C   C442      1.0  0.83967  0.20569  0.56998  1.0000
  H   H715      1.0  0.98085  0.03435  0.58489  1.0000
  H   H716      1.0  0.90090  0.17804  0.68678  1.0000
  H   H717      1.0  0.63335  0.01382  0.86837  1.0000
  C   C443      1.0  0.85525  0.18747  0.58888  1.0000
  C   C444      1.0  0.62690  0.29100  0.64114  1.0000
  H   H718      1.0  0.83577  0.32542  0.77125  1.0000
  H   H719      1.0  0.83137  0.00573  0.71719  1.0000
  H   H720      1.0  0.88458  0.13779  0.66280  1.0000
  H   H721      1.0  0.99681  0.28693  0.61876  1.0000
  H   H722      1.0  0.85337  0.22167  0.56344  1.0000
  C   C445      1.0  0.94682  0.20428  0.68721  1.0000
  S   S133      1.0  0.84062  0.09582  0.49901  1.0000
  H   H723      1.0  0.93636  0.11158  0.67696  1.0000
  H   H724      1.0  0.96995  0.02421  0.52611  1.0000
  C   C446      1.0  0.55236  0.31723  0.60398  1.0000
  C   C447      1.0  0.84737  0.03798  0.56873  1.0000
  H   H725      1.0  0.80688  0.15682  0.53432  1.0000
  C   C448      1.0  0.75549  0.14227  0.51618  1.0000
  H   H726      1.0  0.72156  0.25984  0.70664  1.0000
  H   H727      1.0  0.83082  0.06356  0.67210  1.0000
  S   S134      1.0  0.82017  0.05746  0.55960  1.0000
  H   H728      1.0  0.83077  0.11685  0.67120  1.0000
  H   H729      1.0  0.65566  0.00019  0.81314  1.0000
  H   H730      1.0  0.82717  0.08134  0.64281  1.0000
  C   C449      1.0  0.87763  0.05462  0.71485  1.0000
  C   C450      1.0  0.75410  0.03891  0.68300  1.0000
  S   S135      1.0  0.90917  0.06172  0.70226  1.0000
  H   H731      1.0  0.80313  0.23904  0.67006  1.0000
  H   H732      1.0  0.56795  0.28569  0.65554  1.0000
  H   H733      1.0  0.95271  0.09703  0.52726  1.0000
  C   C451      1.0  0.70657  0.08417  0.50688  1.0000
  S   S136      1.0  0.94733  0.03917  0.64177  1.0000
  C   C452      1.0  0.86495  0.03077  0.70895  1.0000
  C   C453      1.0  0.94701  0.12745  0.68794  1.0000
  H   H734      1.0  0.95493  0.09962  0.71944  1.0000
  C   C454      1.0  0.73278  0.14875  0.53069  1.0000
  H   H735      1.0  0.72570  0.13559  0.54596  1.0000
  H   H736      1.0  0.74958  0.19257  0.71695  1.0000
  C   C455      1.0  0.76354  0.19216  0.69999  1.0000
  C   C456      1.0  0.73705  0.24621  0.71409  1.0000
  H   H737      1.0  0.74756  0.25676  0.73013  1.0000
  H   H738      1.0  0.78529  0.16617  0.72692  1.0000
  H   H739      1.0  0.87292  0.19833  0.59613  1.0000
  H   H740      1.0  0.76245  0.09597  0.65841  1.0000
  H   H741      1.0  0.83347  0.02430  0.65349  1.0000
  C   C457      1.0  0.78191  0.16843  0.70540  1.0000
  H   H742      1.0  0.74277  0.23215  0.67463  1.0000
  H   H743      1.0  0.72662  0.22879  0.72218  1.0000
  Fe  Fe66      1.0  0.93151  0.02892  0.68175  1.0000
  C   C458      1.0  0.97194  0.28774  0.56994  1.0000
  H   H744      1.0  0.85059  0.05545  0.60738  1.0000
  N   N31       1.0  0.77676  0.21867  0.69685  1.0000
  C   C459      1.0  0.75570  0.23897  0.69105  1.0000
  H   H745      1.0  0.80697  0.20998  0.72565  1.0000
  H   H746      1.0  0.80134  0.21004  0.63257  1.0000
  H   H747      1.0  0.80127  0.16980  0.69537  1.0000
  H   H748      1.0  0.82080  0.09783  0.69963  1.0000
  H   H749      1.0  0.88899  0.02796  0.62060  1.0000
  S   S137      1.0  0.97025  0.01414  0.69764  1.0000
  H   H750      1.0  0.92497  0.13905  0.64296  1.0000
  C   C460      1.0  0.77786  0.28816  0.63620  1.0000
  C   C461      1.0  0.78589  0.20742  0.64796  1.0000
  H   H751      1.0  0.76456  0.25775  0.68390  1.0000
  H   H752      1.0  0.78148  0.18596  0.64922  1.0000
  C   C462      1.0  0.81605  0.10243  0.67877  1.0000
  H   H753      1.0  0.54933  0.27698  0.59057  1.0000
  H   H754      1.0  0.73158  0.02191  0.89283  1.0000
  H   H755      1.0  0.99024  0.24162  0.64025  1.0000
  H   H756      1.0  0.86273  0.16891  0.58015  1.0000
  H   H757      1.0  0.63757  0.30861  0.64884  1.0000
  C   C463      1.0  0.72868  0.18954  0.50618  1.0000
  C   C464      1.0  0.79627  0.21857  0.67429  1.0000
  H   H758      1.0  0.76819  0.21827  0.64109  1.0000
  H   H759      1.0  0.96798  0.12565  0.68148  1.0000
  C   C465      1.0  0.79133  0.22500  0.72193  1.0000
  H   H760      1.0  0.81466  0.20773  0.67943  1.0000
  H   H761      1.0  0.79784  0.17740  0.59126  1.0000
  S   S138      1.0  0.87048  0.28480  0.74907  1.0000
  H   H762      1.0  0.77798  0.22365  0.73938  1.0000
  Fe  Fe67      1.0  0.86775  0.29727  0.70680  1.0000
  H   H763      1.0  0.75709  0.29034  0.63205  1.0000
  C   C466      1.0  0.77985  0.05518  0.68370  1.0000
  H   H764      1.0  0.77558  0.07282  0.69618  1.0000
  H   H765      1.0  0.82232  0.23779  0.50862  1.0000
  H   H766      1.0  0.98145  0.21119  0.60311  1.0000
  C   C467      1.0  0.78865  0.30028  0.65868  1.0000
  C   C468      1.0  0.80535  0.25210  0.72256  1.0000
  H   H767      1.0  0.82248  0.25254  0.70883  1.0000
  C   C469      1.0  0.81495  0.16600  0.55259  1.0000
  C   C470      1.0  0.59456  0.28291  0.52149  1.0000
  H   H768      1.0  0.90186  0.08738  0.55941  1.0000
  H   H769      1.0  0.79191  0.26875  0.71804  1.0000
  C   C471      1.0  0.92317  0.05302  0.52566  1.0000
  C   C472      1.0  0.81689  0.07700  0.66176  1.0000
  C   C473      1.0  0.57827  0.30535  0.51987  1.0000
  C   C474      1.0  0.94645  0.11979  0.71738  1.0000
  C   C475      1.0  0.91416  0.00348  0.75087  1.0000
  H   H770      1.0  0.81328  0.25563  0.74265  1.0000
  H   H771      1.0  0.86906  0.14258  0.69414  1.0000
  Fe  Fe68      1.0  0.65509  0.00355  0.95656  1.0000
  S   S139      1.0  0.90490  0.32173  0.70767  1.0000
  C   C476      1.0  0.85852  0.04095  0.59384  1.0000
  N   N32       1.0  0.79074  0.06345  0.65729  1.0000
  H   H772      1.0  0.88108  0.17049  0.50900  1.0000
  H   H773      1.0  0.53563  0.32138  0.59045  1.0000
  H   H774      1.0  0.69192  0.09696  0.51713  1.0000
  C   C477      1.0  0.77106  0.08156  0.64419  1.0000
  H   H775      1.0  0.59760  0.22123  0.57982  1.0000
  C   C478      1.0  0.88030  0.02549  0.60129  1.0000
  C   C479      1.0  0.97890  0.07284  0.50491  1.0000
  N   N33       1.0  0.58389  0.27905  0.61612  1.0000
  C   C480      1.0  0.56975  0.26953  0.64064  1.0000
  H   H776      1.0  0.79359  0.24991  0.52502  1.0000
  H   H777      1.0  0.83529  0.18274  0.50577  1.0000
  H   H778      1.0  0.75365  0.07014  0.63703  1.0000
  H   H779      1.0  0.76481  0.10843  0.61145  1.0000
  H   H780      1.0  0.93385  0.21243  0.70298  1.0000
  H   H781      1.0  0.98113  0.32928  0.63538  1.0000
  H   H782      1.0  0.90603  0.04715  0.53814  1.0000
  H   H783      1.0  0.78980  0.08439  0.60478  1.0000
  C   C481      1.0  0.93879  0.06592  0.56952  1.0000
  H   H784      1.0  0.92839  0.04940  0.57972  1.0000
  H   H785      1.0  0.61208  0.30990  0.60618  1.0000
  H   H786      1.0  0.95603  0.07096  0.58215  1.0000
  C   C482      1.0  0.64565  0.00077  0.85549  1.0000
  C   C483      1.0  0.96271  0.03174  0.54539  1.0000
  H   H787      1.0  0.91459  0.09384  0.59150  1.0000
  C   C484      1.0  0.96468  0.07900  0.53104  1.0000
  H   H788      1.0  0.97512  0.24680  0.55562  1.0000
  C   C485      1.0  0.89083  0.00690  0.58366  1.0000
  H   H789      1.0  0.61280  0.26499  0.58798  1.0000
  C   C486      1.0  0.58350  0.23440  0.59043  1.0000
  C   C487      1.0  0.60927  0.32908  0.54783  1.0000
  Fe  Fe69      1.0  0.60609  0.02124  0.98704  1.0000
  N   N34       1.0  0.93623  0.15444  0.68126  1.0000
  C   C488      1.0  0.59938  0.25689  0.60342  1.0000
  H   H790      1.0  0.93676  0.20714  0.66814  1.0000
  H   H791      1.0  0.98010  0.08520  0.54541  1.0000
  C   C489      1.0  0.79262  0.16589  0.57341  1.0000
  N   N35       1.0  0.94764  0.05730  0.54236  1.0000
  H   H792      1.0  0.89349  0.11743  0.69075  1.0000
  H   H793      1.0  0.61240  0.24703  0.61805  1.0000
  H   H794      1.0  0.95870  0.13313  0.72967  1.0000
  C   C490      1.0  0.60351  0.30022  0.62396  1.0000
  S   S140      1.0  0.93549  0.20384  0.57013  1.0000
  H   H795      1.0  0.90948  0.15902  0.71449  1.0000
  H   H796      1.0  0.74818  0.03423  0.70359  1.0000
  H   H797      1.0  0.98936  0.07364  0.61863  1.0000
  C   C491      1.0  0.85799  0.01946  0.55115  1.0000
  C   C492      1.0  0.95414  0.17517  0.69302  1.0000
  H   H798      1.0  0.87394  0.01691  0.69540  1.0000
  H   H799      1.0  0.79336  0.20062  0.52084  1.0000
  H   H800      1.0  0.84940  0.01690  0.53184  1.0000
  H   H801      1.0  0.82441  0.21570  0.58241  1.0000
  H   H802      1.0  0.92077  0.04550  0.75796  1.0000
  H   H803      1.0  0.95852  0.31817  0.61104  1.0000
  H   H804      1.0  0.95979  0.30512  0.56410  1.0000
  H   H805      1.0  0.77599  0.31149  0.67182  1.0000
  H   H806      1.0  0.54003  0.24297  0.62198  1.0000
  H   H807      1.0  0.80439  0.04616  0.62052  1.0000
  H   H808      1.0  0.58150  0.25390  0.65069  1.0000
  Fe  Fe70      1.0  0.97283  0.19189  0.54843  1.0000
  H   H809      1.0  0.79647  0.11226  0.62637  1.0000
  H   H810      1.0  0.52720  0.27455  0.63243  1.0000
  C   C493      1.0  0.79513  0.03991  0.63943  1.0000
  C   C494      1.0  0.54144  0.25860  0.63717  1.0000
  C   C495      1.0  0.92817  0.02628  0.76553  1.0000
  H   H811      1.0  0.77387  0.17363  0.56512  1.0000
  C   C496      1.0  0.96178  0.15906  0.63725  1.0000
  C   C497      1.0  0.56545  0.29082  0.59601  1.0000
  H   H812      1.0  0.78858  0.14518  0.57948  1.0000
  H   H813      1.0  0.77601  0.03078  0.63352  1.0000
  H   H814      1.0  0.75664  0.01977  0.67259  1.0000
  H   H815      1.0  0.94745  0.26441  0.54324  1.0000
  H   H816      1.0  0.56934  0.24145  0.57540  1.0000
  S   S141      1.0  0.61343  0.01156  0.94418  1.0000
  H   H817      1.0  0.94931  0.01600  0.55300  1.0000
  H   H818      1.0  0.84329  0.18301  0.60672  1.0000
  Fe  Fe71      1.0  0.81686  0.06229  0.51545  1.0000
  H   H819      1.0  0.57618  0.29437  0.57719  1.0000
  C   C498      1.0  0.98689  0.03258  0.56390  1.0000
  H   H820      1.0  0.57367  0.22184  0.60537  1.0000
  H   H821      1.0  0.92606  0.11876  0.72540  1.0000
  H   H822      1.0  0.53478  0.24974  0.65608  1.0000
  H   H823      1.0  0.62035  0.27908  0.65828  1.0000
  H   H824      1.0  0.97234  0.17751  0.64265  1.0000
  Fe  Fe72      1.0  0.99143  0.16239  0.49985  1.0000
  S   S142      1.0  0.54968  0.30385  0.49993  1.0000
  H   H825      1.0  0.82996  0.15167  0.55931  1.0000
  C   C499      1.0  0.63996  0.00786  0.82644  1.0000
  H   H826      1.0  0.85445  0.20952  0.51834  1.0000
  C   C500      1.0  0.86983  0.17177  0.52783  1.0000
  H   H827      1.0  0.64154  0.27962  0.62932  1.0000
  H   H828      1.0  0.92233  0.00289  0.73046  1.0000
  H   H829      1.0  0.94979  0.02595  0.76165  1.0000
  C   C501      1.0  0.87955  0.00381  0.55868  1.0000
  H   H830      1.0  0.88372  0.18013  0.54255  1.0000
  H   H831      1.0  0.71829  0.20782  0.50227  1.0000
  H   H832      1.0  0.80480  0.00906  0.66887  1.0000
  H   H833      1.0  0.59364  0.31639  0.63522  1.0000
  H   H834      1.0  0.62057  0.00088  0.81931  1.0000
  H   H835      1.0  0.64026  0.02976  0.82440  1.0000
  H   H836      1.0  0.82391  0.24908  0.54274  1.0000
  H   H837      1.0  0.58906  0.26501  0.51112  1.0000
  H   H838      1.0  0.99300  0.05618  0.50668  1.0000
  H   H839      1.0  0.96160  0.27916  0.58736  1.0000
  H   H840      1.0  0.95415  0.17371  0.71490  1.0000
  H   H841      1.0  0.99530  0.30909  0.52098  1.0000
  H   H842      1.0  0.96509  0.21645  0.68619  1.0000
  C   C502      1.0  0.58564  0.32844  0.53322  1.0000
  C   C503      1.0  0.97907  0.32527  0.61392  1.0000
  H   H843      1.0  0.81374  0.00138  0.63569  1.0000
  H   H844      1.0  0.89344  0.00967  0.74828  1.0000
  H   H845      1.0  0.88189  0.01141  0.80340  1.0000
  C   C504      1.0  0.92434  0.03143  0.50407  1.0000
  H   H846      1.0  0.99775  0.01355  0.56222  1.0000
  S   S143      1.0  0.77888  0.07591  0.49759  1.0000
  H   H847      1.0  0.69386  0.64917  0.01037  1.0000
  H   H848      1.0  0.60492  0.41622  0.45997  1.0000
  Fe  Fe73      1.0  0.52130  0.33764  0.49141  1.0000
  C   C505      1.0  0.51311  0.44018  0.41851  1.0000
  H   H849      1.0  0.59104  0.36689  0.49289  1.0000
  H   H850      1.0  0.54043  0.60460  0.24859  1.0000
  C   C506      1.0  0.62116  0.63364  0.22327  1.0000
  H   H851      1.0  0.52107  0.44113  0.37674  1.0000
  H   H852      1.0  0.54959  0.64067  0.28319  1.0000
  H   H853      1.0  0.57153  0.40309  0.46299  1.0000
  N   N36       1.0  0.58377  0.64135  0.25722  1.0000
  H   H854      1.0  0.56579  0.34400  0.46013  1.0000
  C   C507      1.0  0.60204  0.62183  0.24393  1.0000
  C   C508      1.0  0.61079  0.38886  0.41295  1.0000
  H   H855      1.0  0.59114  0.60577  0.23381  1.0000
  H   H856      1.0  0.73873  0.65718  0.07734  1.0000
  C   C509      1.0  0.51231  0.45147  0.39329  1.0000
  C   C510      1.0  0.57838  0.35150  0.44370  1.0000
  C   C511      1.0  0.55202  0.60175  0.26675  1.0000
  H   H857      1.0  0.62536  0.40452  0.40789  1.0000
  H   H858      1.0  0.57670  0.62160  0.29451  1.0000
  C   C512      1.0  0.49857  0.65969  0.31184  1.0000
  N   N37       1.0  0.60566  0.35797  0.45379  1.0000
  C   C513      1.0  0.59140  0.40388  0.47202  1.0000
  C   C514      1.0  0.56811  0.65756  0.23787  1.0000
  C   C515      1.0  0.55315  0.64267  0.21580  1.0000
  H   H859      1.0  0.61484  0.64888  0.28579  1.0000
  H   H860      1.0  0.72420  0.63886  0.02481  1.0000
  C   C516      1.0  0.98781  0.63426  0.01542  1.0000
  C   C517      1.0  0.60321  0.37633  0.47718  1.0000
  H   H861      1.0  0.50268  0.44528  0.45940  1.0000
  C   C518      1.0  0.56568  0.62727  0.27638  1.0000
  H   H862      1.0  0.98947  0.60029  0.04091  1.0000
  H   H863      1.0  0.61416  0.61134  0.25894  1.0000
  H   H864      1.0  0.75786  0.65555  0.04818  1.0000
  H   H865      1.0  0.56628  0.58527  0.26417  1.0000
  S   S144      1.0  0.50851  0.34290  0.44925  1.0000
  H   H866      1.0  0.53203  0.63998  0.22116  1.0000
  H   H867      1.0  0.60643  0.37857  0.39408  1.0000
  H   H868      1.0  0.53768  0.59521  0.28209  1.0000
  S   S145      1.0  0.52861  0.40939  0.42311  1.0000
  S   S146      1.0  0.95305  0.63581  0.01546  1.0000
  H   H869      1.0  0.64058  0.37993  0.44223  1.0000
  C   C519      1.0  0.50201  0.45379  0.43987  1.0000
  H   H870      1.0  0.59283  0.39923  0.41984  1.0000
  Fe  Fe74      1.0  0.51218  0.38627  0.45732  1.0000
  H   H871      1.0  0.50025  0.48509  0.37003  1.0000
  H   H872      1.0  0.78542  0.66350  0.08697  1.0000
  C   C520      1.0  0.62355  0.36956  0.43290  1.0000
  H   H873      1.0  0.56776  0.36915  0.43655  1.0000
  H   H874      1.0  0.56148  0.62328  0.21031  1.0000
  H   H875      1.0  0.58894  0.41432  0.49119  1.0000
  H   H876      1.0  0.55395  0.65457  0.19743  1.0000
  H   H877      1.0  0.63237  0.35339  0.42074  1.0000
  H   H878      1.0  0.63204  0.61728  0.21338  1.0000
  H   H879      1.0  0.62283  0.38036  0.48612  1.0000
  C   C521      1.0  0.60098  0.66008  0.27293  1.0000
  H   H880      1.0  0.65880  0.34657  0.46764  1.0000
  H   H881      1.0  0.63629  0.64661  0.23240  1.0000
  H   H882      1.0  0.61062  0.64470  0.20764  1.0000
  C   C522      1.0  0.71327  0.65642  0.01763  1.0000
  H   H883      1.0  0.50555  0.36142  0.39011  1.0000
  C   C523      1.0  0.50050  0.47632  0.38945  1.0000
  H   H884      1.0  0.72377  0.66500  0.00046  1.0000
  C   C524      1.0  0.49860  0.66044  0.26423  1.0000
  C   C525      1.0  0.64401  0.33444  0.47833  1.0000
  H   H885      1.0  0.59185  0.33446  0.40563  1.0000
  H   H886      1.0  0.69786  0.66584  0.05575  1.0000
  H   H887      1.0  0.91424  0.40668  0.73289  1.0000
  H   H888      1.0  0.82611  0.44305  0.77805  1.0000
  S   S147      1.0  0.91636  0.63950  0.88795  1.0000
  H   H889      1.0  0.85816  0.36181  0.69321  1.0000
  H   H890      1.0  0.99048  0.36631  0.85513  1.0000
  Fe  Fe75      1.0  0.93728  0.66250  0.98357  1.0000
  S   S148      1.0  0.94764  0.51847  0.89199  1.0000
  H   H891      1.0  0.91842  0.55124  0.92784  1.0000
  H   H892      1.0  0.96090  0.58021  0.99209  1.0000
  S   S149      1.0  0.98445  0.44107  0.78279  1.0000
  H   H893      1.0  0.99333  0.53298  0.99301  1.0000
  H   H894      1.0  0.82480  0.35539  0.78567  1.0000
  H   H895      1.0  0.85617  0.34616  0.73445  1.0000
  H   H896      1.0  0.90735  0.59916  0.92735  1.0000
  C   C526      1.0  0.96042  0.58367  0.97055  1.0000
  C   C527      1.0  0.93744  0.36290  0.78375  1.0000
  C   C528      1.0  0.95129  0.37086  0.76121  1.0000
  C   C529      1.0  0.96561  0.39480  0.76131  1.0000
  C   C530      1.0  0.96630  0.41103  0.78388  1.0000
  C   C531      1.0  0.95257  0.40301  0.80645  1.0000
  C   C532      1.0  0.93829  0.37904  0.80639  1.0000
  H   H897      1.0  0.95084  0.35863  0.74367  1.0000
  H   H898      1.0  0.61486  0.34699  0.55815  1.0000
  H   H899      1.0  0.95262  0.41548  0.82382  1.0000
  H   H900      1.0  0.92755  0.37311  0.82389  1.0000
  C   C533      1.0  0.92473  0.60580  0.88918  1.0000
  C   C534      1.0  0.93797  0.59416  0.86777  1.0000
  C   C535      1.0  0.94543  0.56743  0.86858  1.0000
  C   C536      1.0  0.93841  0.55191  0.89026  1.0000
  C   C537      1.0  0.92417  0.56328  0.91118  1.0000
  C   C538      1.0  0.91797  0.59036  0.91098  1.0000
  H   H901      1.0  0.94256  0.60586  0.85062  1.0000
  H   H902      1.0  0.95611  0.55869  0.85223  1.0000
  H   H903      1.0  0.82322  0.35788  0.73690  1.0000
  C   C539      1.0  0.86599  0.38204  0.69641  1.0000
  C   C540      1.0  0.84313  0.35946  0.74620  1.0000
  C   C541      1.0  0.99458  0.64816  0.86622  1.0000
  H   H904      1.0  0.88777  0.42943  0.73918  1.0000
  C   C542      1.0  0.88156  0.38786  0.75448  1.0000
  N   N38       1.0  0.85317  0.38766  0.74544  1.0000
  C   C543      1.0  0.84989  0.39718  0.71746  1.0000
  C   C544      1.0  0.84120  0.43385  0.76495  1.0000
  H   H905      1.0  0.86058  0.43824  0.77414  1.0000
  Fe  Fe76      1.0  0.91861  0.66142  0.92669  1.0000
  H   H906      1.0  0.96444  0.54335  0.95841  1.0000
  H   H907      1.0  0.85508  0.41827  0.71514  1.0000
  H   H908      1.0  0.83801  0.39707  0.78438  1.0000
  S   S150      1.0  0.98788  0.46173  0.86064  1.0000
  H   H909      1.0  0.81468  0.40115  0.75840  1.0000
  H   H910      1.0  0.97255  0.56672  0.93357  1.0000
  C   C545      1.0  0.89854  0.41234  0.74721  1.0000
  H   H911      1.0  0.90906  0.41949  0.76508  1.0000
  H   H912      1.0  0.96782  0.60382  0.96609  1.0000
  S   S151      1.0  0.91810  0.33359  0.78431  1.0000
  H   H913      1.0  0.88260  0.38541  0.77627  1.0000
  H   H914      1.0  0.98372  0.50952  0.93936  1.0000
  H   H915      1.0  0.97708  0.39832  0.86208  1.0000
  H   H916      1.0  0.93926  0.58341  0.96484  1.0000
  H   H917      1.0  0.97618  0.40082  0.74375  1.0000
  Fe  Fe77      1.0  0.97892  0.50517  0.86318  1.0000
  H   H918      1.0  0.88730  0.38101  0.70126  1.0000
  H   H919      1.0  0.89222  0.37036  0.74632  1.0000
  H   H920      1.0  0.85989  0.34743  0.78465  1.0000
  C   C546      1.0  0.97536  0.56211  0.95483  1.0000
  H   H921      1.0  0.57309  0.34574  0.53236  1.0000
  H   H922      1.0  0.99189  0.60231  0.83680  1.0000
  H   H923      1.0  0.82869  0.39607  0.71155  1.0000
  S   S152      1.0  0.98152  0.51128  0.81935  1.0000
  H   H924      1.0  0.86425  0.39243  0.67723  1.0000
  Fe  Fe78      1.0  0.99419  0.46849  0.81736  1.0000
  C   C547      1.0  0.98300  0.64116  0.81914  1.0000
  C   C548      1.0  0.83591  0.40386  0.76365  1.0000
  H   H925      1.0  0.83933  0.44379  0.74564  1.0000
  H   H926      1.0  0.99583  0.35349  0.81030  1.0000
  H   H927      1.0  0.96166  0.63573  0.82033  1.0000
  C   C549      1.0  0.84096  0.34662  0.77371  1.0000
  S   S153      1.0  0.89696  0.65733  0.96531  1.0000
  H   H928      1.0  0.98579  0.64957  0.79905  1.0000
  S   S154      1.0  0.95863  0.66268  0.94495  1.0000
  H   H929      1.0  0.97649  0.63725  0.87258  1.0000
  H   H930      1.0  0.98201  0.34434  0.60363  1.0000
  H   H931      1.0  0.64107  0.34227  0.49861  1.0000
  C   C550      1.0  0.99537  0.38620  0.86291  1.0000
  H   H932      1.0  0.99299  0.60294  0.80178  1.0000
  H   H933      1.0  0.99350  0.33574  0.56210  1.0000
  S   S155      1.0  0.52816  0.38105  0.49845  1.0000
  N   N39       1.0  0.98986  0.66144  0.84003  1.0000
  H   H934      1.0  0.56654  0.33390  0.60187  1.0000
  C   C551      1.0  0.99804  0.61457  0.81970  1.0000
  Fe  Fe79      1.0  0.69353  0.94089  0.25268  1.0000
  S   S156      1.0  0.71274  0.92142  0.28723  1.0000
  S   S157      1.0  0.70825  0.93895  0.21081  1.0000
  Fe  Fe80      1.0  0.64939  0.96364  0.28654  1.0000
  S   S158      1.0  0.66498  0.94592  0.32399  1.0000
  H   H935      1.0  0.69389  0.69160  0.03267  1.0000
  Fe  Fe81      1.0  0.70483  0.95949  0.30925  1.0000
  C   C552      1.0  0.78801  0.93813  0.29169  1.0000
  Fe  Fe82      1.0  0.67128  0.90982  0.29842  1.0000
  S   S159      1.0  0.66157  0.86716  0.30721  1.0000
  S   S160      1.0  0.68850  0.97974  0.27339  1.0000
  S   S161      1.0  0.65282  0.92691  0.26230  1.0000
  Fe  Fe83      1.0  0.72977  0.82720  0.07134  1.0000
  S   S162      1.0  0.76617  0.82080  0.09609  1.0000
  S   S163      1.0  0.72878  0.85798  0.03919  1.0000
  Fe  Fe84      1.0  0.70108  0.78011  0.09467  1.0000
  S   S164      1.0  0.73495  0.76965  0.12071  1.0000
  S   S165      1.0  0.66230  0.75821  0.09353  1.0000
  Fe  Fe85      1.0  0.73709  0.81326  0.12883  1.0000
  S   S166      1.0  0.74079  0.82439  0.17175  1.0000
  Fe  Fe86      1.0  0.76095  0.77780  0.08556  1.0000
  S   S167      1.0  0.79528  0.74943  0.07853  1.0000
  S   S168      1.0  0.70121  0.82322  0.10503  1.0000
  S   S169      1.0  0.72663  0.78466  0.05861  1.0000
  Fe  Fe87      1.0  0.51991  0.75136  0.19890  1.0000
  S   S170      1.0  0.53585  0.71190  0.21165  1.0000
  H   H936      1.0  0.55298  0.66952  0.24846  1.0000
  Fe  Fe88      1.0  0.55343  0.78277  0.23710  1.0000
  S   S171      1.0  0.57218  0.74640  0.25384  1.0000
  S   S172      1.0  0.55958  0.82582  0.24765  1.0000
  Fe  Fe89      1.0  0.57507  0.73290  0.21175  1.0000
  S   S173      1.0  0.61377  0.71425  0.20016  1.0000
  H   H937      1.0  0.55679  0.96069  0.15481  1.0000
  S   S174      1.0  0.55954  0.77079  0.19505  1.0000
  S   S175      1.0  0.51251  0.76579  0.24007  1.0000
  H   H938      1.0  0.80145  0.94723  0.33135  1.0000
  H   H939      1.0  0.59399  0.91724  0.19513  1.0000
  C   C553      1.0  0.81176  0.74198  0.04851  1.0000
  C   C554      1.0  0.80238  0.75092  0.02422  1.0000
  H   H940      1.0  0.52201  0.93373  0.24196  1.0000
  H   H941      1.0  0.86386  0.84287  0.00475  1.0000
  H   H942      1.0  0.71430  0.89756  0.00175  1.0000
  C   C555      1.0  0.83538  0.72738  0.04924  1.0000
  H   H943      1.0  0.78404  0.76182  0.02329  1.0000
  H   H944      1.0  0.50841  0.95527  0.21785  1.0000
  H   H945      1.0  0.57250  0.75387  0.31979  1.0000
  H   H946      1.0  0.84279  0.72034  0.06794  1.0000
  C   C556      1.0  0.64910  0.74738  0.12386  1.0000
  C   C557      1.0  0.66555  0.73904  0.14435  1.0000
  C   C558      1.0  0.65455  0.72812  0.16735  1.0000
  C   C559      1.0  0.62707  0.72705  0.17073  1.0000
  C   C560      1.0  0.61058  0.73628  0.15068  1.0000
  C   C561      1.0  0.62159  0.74589  0.12709  1.0000
  H   H947      1.0  0.68675  0.74051  0.14239  1.0000
  H   H948      1.0  0.66737  0.72098  0.18280  1.0000
  H   H949      1.0  0.58934  0.73536  0.15303  1.0000
  H   H950      1.0  0.60873  0.75227  0.11133  1.0000
  C   C562      1.0  0.52990  0.97465  0.24899  1.0000
  H   H951      1.0  0.55489  0.83713  0.34894  1.0000
  C   C563      1.0  0.55923  0.79486  0.31362  1.0000
  H   H952      1.0  0.52878  0.75326  0.32985  1.0000
  H   H953      1.0  0.74643  0.73219  0.99726  1.0000
  N   N40       1.0  0.53067  0.79558  0.32230  1.0000
  H   H954      1.0  0.59861  0.84679  0.07267  1.0000
  H   H955      1.0  0.56782  0.85674  0.06050  1.0000
  C   C564      1.0  0.83575  0.93474  0.25429  1.0000
  C   C565      1.0  0.71632  0.90692  0.19972  1.0000
  C   C566      1.0  0.72099  0.90228  0.17282  1.0000
  C   C567      1.0  0.72811  0.87689  0.16385  1.0000
  C   C568      1.0  0.73127  0.85629  0.18190  1.0000
  C   C569      1.0  0.72678  0.86103  0.20878  1.0000
  C   C570      1.0  0.71880  0.88611  0.21761  1.0000
  H   H956      1.0  0.71903  0.91831  0.15888  1.0000
  H   H957      1.0  0.73155  0.87337  0.14306  1.0000
  H   H958      1.0  0.72917  0.84512  0.22280  1.0000
  H   H959      1.0  0.71502  0.88938  0.23833  1.0000
  C   C571      1.0  0.63329  0.85545  0.29064  1.0000
  C   C572      1.0  0.61313  0.87288  0.28344  1.0000
  C   C573      1.0  0.59077  0.86347  0.27010  1.0000
  C   C574      1.0  0.58840  0.83659  0.26375  1.0000
  C   C575      1.0  0.60847  0.81902  0.27094  1.0000
  C   C576      1.0  0.63077  0.82843  0.28461  1.0000
  H   H960      1.0  0.61450  0.89357  0.28870  1.0000
  H   H961      1.0  0.57516  0.87705  0.26487  1.0000
  H   H962      1.0  0.60678  0.79824  0.26612  1.0000
  H   H963      1.0  0.64629  0.81487  0.29023  1.0000
  C   C577      1.0  0.81377  0.95583  0.25332  1.0000
  N   N41       1.0  0.73274  0.69017  0.05067  1.0000
  C   C578      1.0  0.58718  0.84885  0.05412  1.0000
  H   H964      1.0  0.82088  0.80919  0.07003  1.0000
  C   C579      1.0  0.57671  0.77408  0.32733  1.0000
  C   C580      1.0  0.71130  0.70026  0.09592  1.0000
  H   H965      1.0  0.55311  0.88895  0.21526  1.0000
  C   C581      1.0  0.68903  0.88718  0.06301  1.0000
  C   C582      1.0  0.70485  0.88332  0.04065  1.0000
  C   C583      1.0  0.73245  0.72225  0.01100  1.0000
  C   C584      1.0  0.68374  0.92123  0.01985  1.0000
  H   H966      1.0  0.56923  0.81418  0.31600  1.0000
  H   H967      1.0  0.54925  0.88577  0.03638  1.0000
  C   C585      1.0  0.59797  0.92805  0.21362  1.0000
  H   H968      1.0  0.82107  0.97410  0.26328  1.0000
  C   C586      1.0  0.87291  0.80185  0.00757  1.0000
  C   C587      1.0  0.78869  0.82115  0.02745  1.0000
  C   C588      1.0  0.70843  0.67676  0.03990  1.0000
  C   C589      1.0  0.81702  0.82105  0.01621  1.0000
  H   H969      1.0  0.82024  0.80106  0.00760  1.0000
  H   H970      1.0  0.58184  0.98523  0.10429  1.0000
  C   C590      1.0  0.56482  0.89829  0.02738  1.0000
  C   C591      1.0  0.86450  0.82813  0.02095  1.0000
  H   H971      1.0  0.59779  0.77827  0.32266  1.0000
  H   H972      1.0  0.81720  0.85367  0.06247  1.0000
  H   H973      1.0  0.83475  0.92197  0.27191  1.0000
  H   H974      1.0  0.58859  0.95726  0.17108  1.0000
  C   C592      1.0  0.84988  0.72225  0.02600  1.0000
  H   H975      1.0  0.77075  0.89071  0.26889  1.0000
  C   C593      1.0  0.58025  0.99449  0.08458  1.0000
  C   C594      1.0  0.86282  0.80741  0.07553  1.0000
  H   H976      1.0  0.82424  0.95761  0.30651  1.0000
  H   H977      1.0  0.76424  0.71582  0.03781  1.0000
  H   H978      1.0  0.83707  0.78699  0.04887  1.0000
  H   H979      1.0  0.61712  0.85395  0.02512  1.0000
  S   S176      1.0  0.61151  0.98673  0.28692  1.0000
  H   H980      1.0  0.50672  0.80861  0.35532  1.0000
  C   C595      1.0  0.74247  0.99469  0.36091  1.0000
  C   C596      1.0  0.78119  0.89786  0.25097  1.0000
  H   H981      1.0  0.51881  0.85289  0.32649  1.0000
  H   H982      1.0  0.80259  0.89398  0.25269  1.0000
  H   H983      1.0  0.69236  0.68993  0.09208  1.0000
  H   H984      1.0  0.60841  0.91357  0.22625  1.0000
  S   S177      1.0  0.51657  0.82313  0.06781  1.0000
  C   C597      1.0  0.74826  0.70362  0.02912  1.0000
  H   H985      1.0  0.51314  0.85552  0.29196  1.0000
  H   H986      1.0  0.56793  0.98464  0.20937  1.0000
  H   H987      1.0  0.57447  0.77444  0.34905  1.0000
  H   H988      1.0  0.86826  0.71133  0.02686  1.0000
  H   H989      1.0  0.78896  0.68970  0.06387  1.0000
  C   C598      1.0  0.58632  0.68004  0.29083  1.0000
  C   C599      1.0  0.54631  0.82293  0.36308  1.0000
  H   H990      1.0  0.54610  0.97133  0.26328  1.0000
  N   N42       1.0  0.64538  0.82374  0.18855  1.0000
  C   C600      1.0  0.65009  0.79451  0.19249  1.0000
  C   C601      1.0  0.61588  0.82760  0.18624  1.0000
  C   C602      1.0  0.65585  0.83793  0.21262  1.0000
  C   C603      1.0  0.66013  0.83204  0.16405  1.0000
  C   C604      1.0  0.67906  0.78622  0.19759  1.0000
  C   C605      1.0  0.60290  0.81535  0.16153  1.0000
  C   C606      1.0  0.64551  0.86603  0.21826  1.0000
  C   C607      1.0  0.65540  0.86038  0.15389  1.0000
  H   H991      1.0  0.63797  0.78688  0.20925  1.0000
  H   H992      1.0  0.64374  0.78304  0.17493  1.0000
  H   H993      1.0  0.61029  0.84876  0.18610  1.0000
  H   H994      1.0  0.60562  0.81940  0.20394  1.0000
  H   H995      1.0  0.65145  0.82639  0.23081  1.0000
  H   H996      1.0  0.67773  0.83952  0.21167  1.0000
  H   H997      1.0  0.68182  0.83056  0.16720  1.0000
  H   H998      1.0  0.65660  0.81799  0.14744  1.0000
  H   H999      1.0  0.69167  0.78923  0.17991  1.0000
  H   H1000     1.0  0.68793  0.79636  0.21482  1.0000
  H   H1001     1.0  0.67960  0.76476  0.20205  1.0000
  H   H1002     1.0  0.58148  0.82027  0.16162  1.0000
  H   H1003     1.0  0.61131  0.82341  0.14301  1.0000
  H   H1004     1.0  0.60423  0.79349  0.16128  1.0000
  H   H1005     1.0  0.62441  0.86576  0.22425  1.0000
  H   H1006     1.0  0.64857  0.87983  0.20171  1.0000
  H   H1007     1.0  0.65663  0.87420  0.23529  1.0000
  H   H1008     1.0  0.67017  0.87428  0.16228  1.0000
  H   H1009     1.0  0.63533  0.86803  0.15772  1.0000
  H   H1010     1.0  0.65759  0.86054  0.13208  1.0000
  H   H1011     1.0  0.77390  0.88564  0.23425  1.0000
  H   H1012     1.0  0.79427  0.97613  0.31302  1.0000
  H   H1013     1.0  0.69120  0.87437  0.07985  1.0000
  H   H1014     1.0  0.53020  0.78377  0.36320  1.0000
  H   H1015     1.0  0.82628  0.89599  0.04096  1.0000
  H   H1016     1.0  0.83551  0.92223  0.23624  1.0000
  C   C608      1.0  0.67081  0.90818  0.06386  1.0000
  H   H1017     1.0  0.57359  0.69341  0.27926  1.0000
  C   C609      1.0  0.83863  0.80717  0.05714  1.0000
  H   H1018     1.0  0.74097  0.72379  0.07622  1.0000
  H   H1019     1.0  0.61154  0.94488  0.20957  1.0000
  C   C610      1.0  0.52169  0.77492  0.13104  1.0000
  H   H1020     1.0  0.53533  0.83489  0.37792  1.0000
  C   C611      1.0  0.84078  0.73165  0.00178  1.0000
  H   H1021     1.0  0.55424  0.90980  0.01204  1.0000
  S   S178      1.0  0.73851  0.98296  0.32806  1.0000
  H   H1022     1.0  0.88097  0.83531  0.03360  1.0000
  C   C612      1.0  0.50993  0.80777  0.09812  1.0000
  C   C613      1.0  0.54130  0.92439  0.19251  1.0000
  H   H1023     1.0  0.53083  0.88284  0.18877  1.0000
  H   H1024     1.0  0.56046  0.79077  0.29209  1.0000
  H   H1025     1.0  0.53518  0.75998  0.13815  1.0000
  H   H1026     1.0  0.71798  0.71139  0.99870  1.0000
  C   C614      1.0  0.82860  0.87753  0.02921  1.0000
  H   H1027     1.0  0.70647  0.71738  0.10870  1.0000
  H   H1028     1.0  0.54629  0.78556  0.09789  1.0000
  H   H1029     1.0  0.71178  0.99865  0.42076  1.0000
  C   C615      1.0  0.70205  0.90035  0.01905  1.0000
  C   C616      1.0  0.60249  0.86705  0.03507  1.0000
  N   N43       1.0  0.83854  0.82767  0.03561  1.0000
  H   H1030     1.0  0.78217  0.99391  0.22795  1.0000
  C   C617      1.0  0.72413  0.71083  0.07042  1.0000
  H   H1031     1.0  0.79749  0.91847  0.29337  1.0000
  H   H1032     1.0  0.70530  0.98017  0.37572  1.0000
  C   C618      1.0  0.57348  0.91800  0.04898  1.0000
  C   C619      1.0  0.52662  0.95125  0.22958  1.0000
  N   N44       1.0  0.54980  0.94584  0.21148  1.0000
  H   H1033     1.0  0.56722  0.92235  0.24292  1.0000
  H   H1034     1.0  0.57446  0.67026  0.30644  1.0000
  H   H1035     1.0  0.50258  0.66930  0.33048  1.0000
  H   H1036     1.0  0.60109  0.69274  0.30096  1.0000
  C   C620      1.0  0.77481  0.68030  0.07772  1.0000
  H   H1037     1.0  0.84515  0.88090  0.01526  1.0000
  N   N45       1.0  0.78697  0.94776  0.26353  1.0000
  C   C621      1.0  0.57018  0.96892  0.17011  1.0000
  H   H1038     1.0  0.55555  0.92729  0.05771  1.0000
  H   H1039     1.0  0.85966  0.79244  0.09125  1.0000
  H   H1040     1.0  0.54854  0.83999  0.01992  1.0000
  H   H1041     1.0  0.53231  0.86422  0.99946  1.0000
  C   C622      1.0  0.72307  0.99115  0.38030  1.0000
  H   H1042     1.0  0.78589  0.80549  0.04241  1.0000
  H   H1043     1.0  0.57562  0.98914  0.16350  1.0000
  H   H1044     1.0  0.54537  0.84730  0.30277  1.0000
  H   H1045     1.0  0.77447  0.81704  0.01130  1.0000
  H   H1046     1.0  0.70934  0.72448  0.06166  1.0000
  N   N46       1.0  0.58660  0.88207  0.01493  1.0000
  H   H1047     1.0  0.85143  0.86029  0.06022  1.0000
  H   H1048     1.0  0.72213  0.73803  0.02215  1.0000
  H   H1049     1.0  0.58564  0.93435  0.04090  1.0000
  C   C623      1.0  0.66821  0.92532  0.04233  1.0000
  C   C624      1.0  0.57296  0.93764  0.22821  1.0000
  C   C625      1.0  0.83401  0.85437  0.04822  1.0000
  Fe  Fe90      1.0  0.53168  0.72781  0.25283  1.0000
  C   C626      1.0  0.75017  0.66962  0.06327  1.0000
  H   H1050     1.0  0.88116  0.80164  0.06495  1.0000
  H   H1051     1.0  0.56250  0.81321  0.37417  1.0000
  C   C627      1.0  0.76927  0.97184  0.26329  1.0000
  H   H1052     1.0  0.65005  0.99937  0.36433  1.0000
  C   C628      1.0  0.55591  0.97118  0.19689  1.0000
  H   H1053     1.0  0.53745  0.98231  0.19265  1.0000
  C   C629      1.0  0.77463  0.92715  0.24563  1.0000
  H   H1054     1.0  0.86551  0.82679  0.08542  1.0000
  H   H1055     1.0  0.63220  0.98219  0.11445  1.0000
  H   H1056     1.0  0.52316  0.93059  0.18177  1.0000
  H   H1057     1.0  0.57968  0.95442  0.24078  1.0000
  C   C630      1.0  0.80291  0.95609  0.31137  1.0000
  H   H1058     1.0  0.85527  0.94476  0.25566  1.0000
  H   H1059     1.0  0.76764  0.93514  0.29956  1.0000
  H   H1060     1.0  0.86697  0.78395  0.01858  1.0000
  H   H1061     1.0  0.77734  0.98799  0.27580  1.0000
  C   C631      1.0  0.52733  0.80199  0.35121  1.0000
  H   H1062     1.0  0.76985  0.69440  0.09375  1.0000
  H   H1063     1.0  0.74957  0.96700  0.27191  1.0000
  H   H1064     1.0  0.75267  0.92827  0.24645  1.0000
  H   H1065     1.0  0.61521  0.88054  0.04698  1.0000
  H   H1066     1.0  0.51829  0.89740  0.21815  1.0000
  S   S179      1.0  0.51861  0.70500  0.28933  1.0000
  H   H1067     1.0  0.58416  0.90814  0.06525  1.0000
  H   H1068     1.0  0.55606  0.92093  0.17672  1.0000
  C   C632      1.0  0.52791  0.78932  0.10821  1.0000
  H   H1069     1.0  0.64060  0.98922  0.23769  1.0000
  C   C633      1.0  0.54884  0.84991  0.00057  1.0000
  H   H1070     1.0  0.81249  0.96173  0.23225  1.0000
  H   H1071     1.0  0.65893  0.91131  0.08136  1.0000
  H   H1072     1.0  0.58437  0.82884  0.04545  1.0000
  C   C634      1.0  0.53568  0.89704  0.20481  1.0000
  H   H1073     1.0  0.53298  0.99373  0.23870  1.0000
  C   C635      1.0  0.76415  0.98436  0.23603  1.0000
  S   S180      1.0  0.64571  0.95188  0.04425  1.0000
  H   H1074     1.0  0.75619  0.97002  0.22153  1.0000
  H   H1075     1.0  0.52364  0.76204  0.29649  1.0000
  H   H1076     1.0  0.62094  0.99217  0.07471  1.0000
  H   H1077     1.0  0.51140  0.97683  0.26066  1.0000
  H   H1078     1.0  0.80988  0.87490  0.01818  1.0000
  H   H1079     1.0  0.72474  0.68748  0.10744  1.0000
  H   H1080     1.0  0.77971  0.93101  0.22460  1.0000
  C   C636      1.0  0.51932  0.76840  0.31708  1.0000
  S   S181      1.0  0.59365  0.98011  0.99811  1.0000
  H   H1081     1.0  0.68216  0.93451  0.00330  1.0000
  H   H1082     1.0  0.78319  0.84054  0.03605  1.0000
  H   H1083     1.0  0.62406  0.98879  0.14754  1.0000
  H   H1084     1.0  0.61486  0.91445  0.01536  1.0000
  H   H1085     1.0  0.58076  0.67282  0.22822  1.0000
  C   C637      1.0  0.52416  0.84417  0.30711  1.0000
  H   H1086     1.0  0.89482  0.80085  0.00639  1.0000
  H   H1087     1.0  0.81757  0.83461  0.99897  1.0000
  H   H1088     1.0  0.61361  0.67230  0.25967  1.0000
  H   H1089     1.0  0.57590  0.97838  0.07029  1.0000
  H   H1090     1.0  0.75863  0.68895  0.01636  1.0000
  C   C638      1.0  0.60503  0.90106  0.00106  1.0000
  Fe  Fe91      1.0  0.63681  0.97398  0.00660  1.0000
  C   C639      1.0  0.51577  0.81495  0.30533  1.0000
  C   C640      1.0  0.81685  0.74578  0.00100  1.0000
  C   C641      1.0  0.63267  0.99795  0.12959  1.0000
  H   H1091     1.0  0.50217  0.67069  0.24588  1.0000
  C   C642      1.0  0.50398  0.67308  0.28816  1.0000
  H   H1092     1.0  0.51707  0.80894  0.28418  1.0000
  H   H1093     1.0  0.64176  0.87750  0.99746  1.0000
  C   C643      1.0  0.95206  0.94301  0.77807  1.0000
  H   H1094     1.0  0.57190  0.87433  0.97542  1.0000
  S   S182      1.0  0.58609  0.94033  0.92888  1.0000
  H   H1095     1.0  0.56064  0.89902  0.90118  1.0000
  H   H1096     1.0  0.94701  0.75605  0.84965  1.0000
  S   S183      1.0  0.93496  0.70686  0.98687  1.0000
  H   H1097     1.0  0.97092  0.70781  0.81072  1.0000
  S   S184      1.0  0.98866  0.73020  0.93292  1.0000
  S   S185      1.0  0.64713  0.96075  0.96573  1.0000
  H   H1098     1.0  0.61073  0.97756  0.89182  1.0000
  C   C644      1.0  0.98324  0.89368  0.73016  1.0000
  C   C645      1.0  0.90328  0.97564  0.79047  1.0000
  C   C646      1.0  0.96624  0.67941  0.84356  1.0000
  C   C647      1.0  0.87475  0.95846  0.73940  1.0000
  H   H1099     1.0  0.91730  0.98329  0.80560  1.0000
  H   H1100     1.0  0.66758  0.92487  0.88456  1.0000
  S   S186      1.0  0.85898  0.72744  0.97219  1.0000
  Fe  Fe92      1.0  0.93647  0.99756  0.63129  1.0000
  Fe  Fe93      1.0  0.95790  0.97413  0.68243  1.0000
  S   S187      1.0  0.95960  0.93390  0.70278  1.0000
  S   S188      1.0  0.91428  0.70549  0.92557  1.0000
  H   H1101     1.0  0.57327  0.96728  0.86261  1.0000
  H   H1102     1.0  0.98631  0.68002  0.89499  1.0000
  Fe  Fe94      1.0  0.95317  0.70652  0.94631  1.0000
  H   H1103     1.0  0.90702  0.93586  0.75316  1.0000
  H   H1104     1.0  0.59380  0.91418  0.98746  1.0000
  C   C648      1.0  0.54969  0.90215  0.91927  1.0000
  H   H1105     1.0  0.69056  0.93865  0.84364  1.0000
  H   H1106     1.0  0.94625  0.74180  0.89634  1.0000
  H   H1107     1.0  0.94221  0.93951  0.79728  1.0000
  H   H1108     1.0  0.94915  0.66824  0.85188  1.0000
  C   C649      1.0  0.96488  0.74320  0.88599  1.0000
  C   C650      1.0  0.98946  0.75486  0.84639  1.0000
  C   C651      1.0  0.98895  0.82386  0.87564  1.0000
  H   H1109     1.0  0.94749  0.92662  0.76424  1.0000
  H   H1110     1.0  0.63913  0.90426  0.97508  1.0000
  H   H1111     1.0  0.88761  0.98941  0.54503  1.0000
  H   H1112     1.0  0.99617  0.85427  0.90465  1.0000
  H   H1113     1.0  0.68037  0.95001  0.81144  1.0000
  H   H1114     1.0  0.64478  0.93253  0.84738  1.0000
  H   H1115     1.0  0.89894  0.95478  0.79605  1.0000
  C   C652      1.0  0.94525  0.97033  0.76632  1.0000
  Fe  Fe95      1.0  0.60481  0.96974  0.95653  1.0000
  H   H1116     1.0  0.86469  0.98149  0.80884  1.0000
  H   H1117     1.0  0.64175  0.93445  0.90763  1.0000
  S   S189      1.0  0.97573  0.98032  0.64231  1.0000
  C   C653      1.0  0.55779  0.92170  0.93705  1.0000
  C   C654      1.0  0.54335  0.92572  0.96036  1.0000
  H   H1118     1.0  0.54919  0.94119  0.97392  1.0000
  H   H1119     1.0  0.62018  0.87532  0.96886  1.0000
  H   H1120     1.0  0.99196  0.78862  0.91450  1.0000
  C   C655      1.0  0.66107  0.94008  0.89892  1.0000
  H   H1121     1.0  0.96677  0.88182  0.72340  1.0000
  C   C656      1.0  0.98520  0.92028  0.72231  1.0000
  H   H1122     1.0  0.98259  0.83820  0.86036  1.0000
  H   H1123     1.0  0.63710  0.95619  0.82404  1.0000
  C   C657      1.0  0.96535  0.75154  0.85961  1.0000
  H   H1124     1.0  0.50957  0.91326  0.98362  1.0000
  H   H1125     1.0  0.68832  0.97337  0.83632  1.0000
  C   C658      1.0  0.59226  0.97443  0.85411  1.0000
  S   S190      1.0  0.91875  0.98814  0.59187  1.0000
  H   H1126     1.0  0.61191  0.94549  0.87729  1.0000
  Fe  Fe96      1.0  0.89589  0.70202  0.96603  1.0000
  H   H1127     1.0  0.86941  0.94321  0.72450  1.0000
  C   C659      1.0  0.51296  0.89034  0.94785  1.0000
  C   C660      1.0  0.95625  0.69350  0.81853  1.0000
  N   N47       1.0  0.64256  0.97214  0.86358  1.0000
  S   S191      1.0  0.98976  0.76692  0.81395  1.0000
  H   H1128     1.0  0.91486  0.95649  0.72593  1.0000
  C   C661      1.0  0.66052  0.96813  0.88699  1.0000
  H   H1129     1.0  0.97048  0.69536  0.85800  1.0000
  H   H1130     1.0  0.97073  0.81633  0.88523  1.0000
  H   H1131     1.0  0.86954  0.97774  0.73071  1.0000
  S   S192      1.0  0.91740  0.98841  0.67015  1.0000
  H   H1132     1.0  0.93840  0.70522  0.82379  1.0000
  C   C662      1.0  0.62761  0.88835  0.98482  1.0000
  C   C663      1.0  0.90443  0.95616  0.74529  1.0000
  C   C664      1.0  0.64962  0.95323  0.84173  1.0000
  C   C665      1.0  0.52096  0.90991  0.96585  1.0000
  C   C666      1.0  0.97701  0.81726  0.94251  1.0000
  H   H1133     1.0  0.59038  0.99622  0.85237  1.0000
  H   H1134     1.0  0.59446  0.96500  0.83449  1.0000
  H   H1135     1.0  0.52123  0.87174  0.91053  1.0000
  H   H1136     1.0  0.68137  0.97346  0.88223  1.0000
  H   H1137     1.0  0.67562  0.93988  0.91529  1.0000
  H   H1138     1.0  0.86258  0.95431  0.75713  1.0000
  H   H1139     1.0  0.96276  0.80209  0.94964  1.0000
  C   C667      1.0  0.52736  0.88668  0.92457  1.0000
  C   C668      1.0  0.67892  0.95383  0.83298  1.0000
  H   H1140     1.0  0.80962  0.75298  0.98230  1.0000
  C   C669      1.0  0.98852  0.73779  0.89912  1.0000
  C   C670      1.0  0.61472  0.96687  0.87295  1.0000
  H   H1141     1.0  0.96604  0.83047  0.92906  1.0000
  H   H1142     1.0  0.98368  0.82855  0.96005  1.0000
  N   N48       1.0  0.91616  0.97661  0.76357  1.0000
  H   H1143     1.0  0.86466  0.80025  0.98733  1.0000
  H   H1144     1.0  0.95027  0.67942  0.80285  1.0000
  H   H1145     1.0  0.99280  0.66842  0.99069  1.0000
  H   H1146     1.0  0.65485  0.98195  0.90323  1.0000
  H   H1147     1.0  0.97373  0.94203  0.78153  1.0000
  H   H1148     1.0  0.95549  0.97184  0.74686  1.0000
  H   H1149     1.0  0.95521  0.98494  0.77937  1.0000
  H   H1150     1.0  0.54480  0.83461  0.98534  1.0000
  H   H1151     1.0  0.58976  0.84759  0.98944  1.0000
  H   H1152     1.0  0.86534  0.99468  0.77654  1.0000
  C   C671      1.0  0.87752  0.99185  0.79435  1.0000
  C   C672      1.0  0.57538  0.86356  0.99429  1.0000
