data_image0
_chemical_formula_structural       FeS2FeH2FeHFeCS2FeS2FeHFeHFeS3C2H2CSC3H2C6H4SH4CH3CH4CHCHC2H3NC2NH5CHCSHC2NC3H2C2H7CHSHCH3C2H4C2SCH3CHC3H2CH3SCH3CSHCH2CH6CH2NC4SHS2H2CHCHCHC2H3CHCH3CH3SC2FeC2H2CHNC2FeHCHSHCHFeHC2H6C3H8CHCSH4NCNHC3H6CH2CH5SH3C2HFeHCHCHCSHC2H2C2HCFeS2FeH2FeHFeHS2FeS2FeHFeCFeCS2CHCSCH3CH2C6H9S2HSCH4C2H4CH2CH3C2H3SHCH3CH4NC8H8C3H6NCH2SCHCH3CHC2HC2H2C3HCS2C2SH3FeCHC2SH7FeH2C2H5CSH2CNHC3HCHCNCH3CH2CHCHCHCH2CH2FeSHSFeHCHCH2C2H2CH2CH3CH2CH2SHCH2CHSC2HFeCH3C2SH3CSHSHFeC2HSHFeH3NH4CHCH4SH3CHCH5SCSHC2HC4H6FeCH2C2SCH6NC2HCHCHSCHC2SCFeHCSHFeS2C2HSCH4CFeH2CHCH4CSH4SH6CHCHNC8H16C2H5CH3C3SFeHCNH4CHCHCSHFeH3SHFeHSCHSH4CH2CHCHSHCHSNHCH3NCSH3CHCFeCHC2HNH3CH4C2HCHC2H3CH3CHC3H3SCH3CH2CSH3SHFeSHCHFeCH4SHC2H4C2H2CH5CH2CH2SH2NHCSC2H2CHC2HCHSCHNSHCHCH2CH2SHFeH3CHCH4C3H3CFeH2CHSCFeCHS2CHSH3CHCHCH3C2SHC2H6FeCHCH2CHCH2CHC3HSNSFeC5HC2H2C2NHCH3CH3CH6CH2CH5FeH3C2H2NH4CHSH2CHCHC2HC2H4CFeSFeS2FeCFeCS2FeSHFeS2FeHFeSNSCH6SHSCHC2HC6H5C2HCH2CH3C2H5CH2CH4C2H2C4HCH6CH4CH3SCH2NHCHSHNHCH5C2H2CH2C2S2CHCHCHCSH5SCSCH3SCHCFeCH3CH2C2SFeH2CH3SNCH5CHCSCHCHCHCHFeCHCHFeHCFeH7C2HCH2CH5CHN2H3C2SCHCHC3HCH2CH6CHC2H3CH2FeCFeS2FeCFeS3FeSHFeS2FeHFeSHSH2CHCH8CHC6H9CH2CH2CHCH4C2SC2HCSC2NHNC2H7C2HCHCHCHC4HCH2CHCHNH2CSCHSH7CHCH2CH2CH3CH3CHCSH2C2H4C2HC
_chemical_formula_sum              "Fe64 S128 H768 C448 N32"
_cell_length_a       41.6422
_cell_length_b       42.2806
_cell_length_c       35.8331
_cell_angle_alpha    90.6041
_cell_angle_beta     90.2506
_cell_angle_gamma    111.519

_space_group_name_H-M_alt    "P 1"
_space_group_IT_number       1

loop_
  _space_group_symop_operation_xyz
  'x, y, z'

loop_
  _atom_site_type_symbol
  _atom_site_label
  _atom_site_symmetry_multiplicity
  _atom_site_fract_x
  _atom_site_fract_y
  _atom_site_fract_z
  _atom_site_occupancy
  Fe  Fe1       1.0  0.16999  0.33608  0.39492  1.0000
  S   S1        1.0  0.14316  0.34849  0.44446  1.0000
  S   S2        1.0  0.15769  0.35160  0.33733  1.0000
  Fe  Fe2       1.0  0.21388  0.30948  0.44469  1.0000
  H   H1        1.0  0.15339  0.42225  0.43278  1.0000
  H   H2        1.0  0.07017  0.20161  0.10603  1.0000
  Fe  Fe3       1.0  0.13980  0.29821  0.46768  1.0000
  H   H3        1.0  0.15510  0.41288  0.38446  1.0000
  Fe  Fe4       1.0  0.19629  0.37050  0.47055  1.0000
  C   C1        1.0  0.18678  0.18813  0.46057  1.0000
  S   S3        1.0  0.16241  0.28399  0.41605  1.0000
  S   S4        1.0  0.22319  0.36088  0.41975  1.0000
  Fe  Fe5       1.0  0.18548  0.31402  0.12405  1.0000
  S   S5        1.0  0.15963  0.35060  0.11082  1.0000
  S   S6        1.0  0.19170  0.29556  0.18226  1.0000
  Fe  Fe6       1.0  0.19744  0.30282  0.04164  1.0000
  H   H4        1.0  0.14176  0.21855  0.49703  1.0000
  Fe  Fe7       1.0  0.20236  0.37309  0.06939  1.0000
  H   H5        1.0  0.13849  0.16728  0.42751  1.0000
  Fe  Fe8       1.0  0.13162  0.31346  0.06522  1.0000
  S   S7        1.0  0.07392  0.30261  0.05795  1.0000
  S   S8        1.0  0.23042  0.33862  0.08566  1.0000
  S   S9        1.0  0.15472  0.27514  0.08109  1.0000
  C   C2        1.0  0.26091  0.10308  0.08961  1.0000
  C   C3        1.0  0.04171  0.26722  0.03583  1.0000
  H   H6        1.0  0.28369  0.23283  0.44136  1.0000
  H   H7        1.0  0.05669  0.20640  0.23970  1.0000
  C   C4        1.0  0.21824  0.44408  0.34201  1.0000
  S   S10       1.0  0.25109  0.28163  0.43850  1.0000
  C   C5        1.0  0.27910  0.23277  0.04017  1.0000
  C   C6        1.0  0.25654  0.25058  0.03643  1.0000
  C   C7        1.0  0.25528  0.04505  0.06829  1.0000
  H   H8        1.0  0.28931  0.23066  0.06744  1.0000
  H   H9        1.0  0.24954  0.26206  0.06066  1.0000
  C   C8        1.0  0.16879  0.33673  0.29457  1.0000
  C   C9        1.0  0.18319  0.31160  0.29344  1.0000
  C   C10       1.0  0.19086  0.29990  0.25886  1.0000
  C   C11       1.0  0.18472  0.31347  0.22509  1.0000
  C   C12       1.0  0.17074  0.33891  0.22624  1.0000
  C   C13       1.0  0.16250  0.35019  0.26078  1.0000
  H   H10       1.0  0.18810  0.30092  0.31919  1.0000
  H   H11       1.0  0.20144  0.28003  0.25827  1.0000
  H   H12       1.0  0.16588  0.34957  0.20050  1.0000
  H   H13       1.0  0.15104  0.36936  0.26124  1.0000
  S   S11       1.0  0.20727  0.42030  0.50330  1.0000
  H   H14       1.0  0.19081  0.16400  0.45459  1.0000
  H   H15       1.0  0.20894  0.06869  0.03541  1.0000
  H   H16       1.0  0.27136  0.13062  0.08259  1.0000
  H   H17       1.0  0.32630  0.49627  0.47380  1.0000
  C   C14       1.0  0.06747  0.22432  0.11943  1.0000
  H   H18       1.0  0.09251  0.22675  0.27086  1.0000
  H   H19       1.0  0.09920  0.20672  0.22910  1.0000
  H   H20       1.0  0.10411  0.34306  0.17061  1.0000
  C   C15       1.0  0.27838  0.45249  0.38922  1.0000
  H   H21       1.0  0.09606  0.32258  0.21452  1.0000
  H   H22       1.0  0.23586  0.13318  0.03494  1.0000
  H   H23       1.0  0.08116  0.28834  0.13692  1.0000
  H   H24       1.0  0.32385  0.06493  0.06644  1.0000
  C   C16       1.0  0.22601  0.09515  0.10924  1.0000
  H   H25       1.0  0.21478  0.41762  0.35007  1.0000
  C   C17       1.0  0.04851  0.23892  0.02315  1.0000
  H   H26       1.0  0.02808  0.24311  0.24881  1.0000
  C   C18       1.0  0.29964  0.01539  0.50772  1.0000
  C   C19       1.0  0.02454  0.25696  0.22399  1.0000
  H   H27       1.0  0.26566  0.43308  0.41025  1.0000
  H   H28       1.0  0.30572  0.46507  0.39835  1.0000
  H   H29       1.0  0.03695  0.28453  0.22965  1.0000
  N   N1        1.0  0.22387  0.46684  0.37625  1.0000
  C   C20       1.0  0.21470  0.49744  0.36791  1.0000
  C   C21       1.0  0.16440  0.43356  0.40567  1.0000
  N   N2        1.0  0.26153  0.08107  0.05645  1.0000
  H   H30       1.0  0.22565  0.11877  0.12281  1.0000
  H   H31       1.0  0.20502  0.01369  0.04332  1.0000
  H   H32       1.0  0.08172  0.24610  0.10159  1.0000
  H   H33       1.0  0.20358  0.08709  0.09003  1.0000
  H   H34       1.0  0.03964  0.22036  0.11895  1.0000
  C   C22       1.0  0.23603  0.08124  0.02644  1.0000
  H   H35       1.0  0.15410  0.21299  0.43361  1.0000
  C   C23       1.0  0.24246  0.45973  0.50092  1.0000
  S   S12       1.0  0.17224  0.33916  0.02275  1.0000
  H   H36       1.0  0.19403  0.46600  0.29985  1.0000
  C   C24       1.0  0.16187  0.19079  0.42972  1.0000
  C   C25       1.0  0.23914  0.11657  0.01229  1.0000
  N   N3        1.0  0.07591  0.25482  0.18397  1.0000
  C   C26       1.0  0.08280  0.22878  0.15937  1.0000
  C   C27       1.0  0.09411  0.25605  0.22076  1.0000
  C   C28       1.0  0.09204  0.28880  0.16535  1.0000
  H   H37       1.0  0.18551  0.24245  0.48699  1.0000
  H   H38       1.0  0.27810  0.43998  0.47577  1.0000
  C   C29       1.0  0.08467  0.22182  0.24101  1.0000
  C   C30       1.0  0.08768  0.31954  0.18492  1.0000
  H   H39       1.0  0.29754  0.08379  0.01192  1.0000
  H   H40       1.0  0.11118  0.23486  0.15683  1.0000
  H   H41       1.0  0.18511  0.42166  0.29426  1.0000
  H   H42       1.0  0.09002  0.27446  0.24069  1.0000
  H   H43       1.0  0.12247  0.26551  0.21662  1.0000
  H   H44       1.0  0.12024  0.29494  0.16157  1.0000
  H   H45       1.0  0.20175  0.02962  0.08976  1.0000
  C   C31       1.0  0.28466  0.24322  0.46926  1.0000
  H   H46       1.0  0.26804  0.04491  0.09564  1.0000
  S   S13       1.0  0.22777  0.43103  0.06968  1.0000
  H   H47       1.0  0.27724  0.49864  0.36569  1.0000
  C   C32       1.0  0.18822  0.44199  0.31539  1.0000
  H   H48       1.0  0.21215  0.20890  0.45593  1.0000
  H   H49       1.0  0.17514  0.19401  0.40240  1.0000
  H   H50       1.0  0.21088  0.46339  0.43476  1.0000
  C   C33       1.0  0.30170  0.49438  0.48534  1.0000
  C   C34       1.0  0.32684  0.09192  0.06305  1.0000
  H   H51       1.0  0.32996  0.10476  0.09064  1.0000
  H   H52       1.0  0.24140  0.45271  0.32377  1.0000
  H   H53       1.0  0.32485  0.45124  0.06850  1.0000
  H   H54       1.0  0.06078  0.31849  0.18208  1.0000
  C   C35       1.0  0.27050  0.26821  0.47599  1.0000
  C   C36       1.0  0.03553  0.26364  0.48050  1.0000
  S   S14       1.0  0.31722  0.19593  0.01506  1.0000
  C   C37       1.0  0.27434  0.46249  0.48608  1.0000
  H   H55       1.0  0.26671  0.49323  0.41387  1.0000
  H   H56       1.0  0.22223  0.07562  0.13101  1.0000
  H   H57       1.0  0.21094  0.42502  0.41503  1.0000
  C   C38       1.0  0.24482  0.45707  0.03059  1.0000
  H   H58       1.0  0.27898  0.10130  0.11170  1.0000
  C   C39       1.0  0.21750  0.02020  0.07127  1.0000
  C   C40       1.0  0.20397  0.44738  0.40905  1.0000
  C   C41       1.0  0.26183  0.47969  0.38639  1.0000
  H   H59       1.0  0.15400  0.45366  0.39995  1.0000
  H   H60       1.0  0.05024  0.28292  0.46115  1.0000
  C   C42       1.0  0.29714  0.09567  0.03968  1.0000
  H   H61       1.0  0.24793  0.50284  0.06003  1.0000
  H   H62       1.0  0.27863  0.43971  0.36210  1.0000
  H   H63       1.0  0.02676  0.25484  0.16389  1.0000
  S   S15       1.0  0.09793  0.25777  0.50094  1.0000
  C   C43       1.0  0.29925  0.23089  0.49853  1.0000
  H   H64       1.0  0.07201  0.20307  0.17184  1.0000
  H   H65       1.0  0.02385  0.21700  0.18668  1.0000
  H   H66       1.0  0.26734  0.03253  0.04825  1.0000
  C   C44       1.0  0.25323  0.49238  0.03413  1.0000
  S   S16       1.0  0.19125  0.32092  0.49750  1.0000
  H   H67       1.0  0.16316  0.43561  0.32951  1.0000
  C   C45       1.0  0.34771  0.47540  0.07016  1.0000
  H   H68       1.0  0.32315  0.49616  0.02929  1.0000
  H   H69       1.0  0.30473  0.12332  0.03432  1.0000
  C   C46       1.0  0.03738  0.24514  0.18794  1.0000
  H   H70       1.0  0.18717  0.48994  0.35965  1.0000
  H   H71       1.0  0.34433  0.48914  0.09541  1.0000
  H   H72       1.0  0.12160  0.15999  0.48727  1.0000
  H   H73       1.0  0.30904  0.21090  0.49323  1.0000
  H   H74       1.0  0.07363  0.23763  0.02804  1.0000
  H   H75       1.0  0.21686  0.01165  0.50349  1.0000
  C   C47       1.0  0.05250  0.24778  0.50310  1.0000
  H   H76       1.0  0.14661  0.13511  0.49786  1.0000
  H   H77       1.0  0.22983  0.15994  0.49462  1.0000
  N   N4        1.0  0.17522  0.18942  0.50026  1.0000
  C   C48       1.0  0.28851  0.21779  0.00894  1.0000
  C   C49       1.0  0.16864  0.22214  0.50553  1.0000
  C   C50       1.0  0.14262  0.15889  0.50589  1.0000
  C   C51       1.0  0.32094  0.04608  0.61819  1.0000
  S   S17       1.0  0.31976  0.23024  0.57203  1.0000
  H   H78       1.0  0.26172  0.09136  0.66695  1.0000
  S   S18       1.0  0.31608  0.13919  0.59766  1.0000
  S   S19       1.0  0.30665  0.12496  0.93362  1.0000
  H   H79       1.0  0.02869  0.19119  0.99269  1.0000
  H   H80       1.0  0.11574  0.29368  0.97708  1.0000
  C   C52       1.0  0.13464  0.28880  0.89969  1.0000
  H   H81       1.0  0.14569  0.15143  0.56663  1.0000
  C   C53       1.0  0.30021  0.49600  0.66214  1.0000
  H   H82       1.0  0.33776  0.50287  0.55901  1.0000
  C   C54       1.0  0.26544  0.04626  0.64086  1.0000
  H   H83       1.0  0.09042  0.25297  0.84356  1.0000
  C   C55       1.0  0.10493  0.33174  0.94633  1.0000
  C   C56       1.0  0.33166  0.48580  0.66890  1.0000
  H   H84       1.0  0.31582  0.05675  0.59151  1.0000
  H   H85       1.0  0.26829  0.04055  0.95436  1.0000
  H   H86       1.0  0.10428  0.13027  0.54583  1.0000
  C   C57       1.0  0.09625  0.23753  0.93288  1.0000
  H   H87       1.0  0.22775  0.43588  0.61169  1.0000
  C   C58       1.0  0.28258  0.46583  0.60039  1.0000
  H   H88       1.0  0.18680  0.29142  0.91430  1.0000
  H   H89       1.0  0.30560  0.45878  0.59784  1.0000
  H   H90       1.0  0.28196  0.20915  0.94961  1.0000
  C   C59       1.0  0.27501  0.22061  0.97388  1.0000
  H   H91       1.0  0.34416  0.02440  0.69786  1.0000
  H   H92       1.0  0.23648  0.48629  0.63761  1.0000
  H   H93       1.0  0.33869  0.16726  0.69199  1.0000
  S   S20       1.0  0.27707  0.06776  0.52750  1.0000
  C   C60       1.0  0.29221  0.00982  0.67283  1.0000
  C   C61       1.0  0.09840  0.29404  0.95388  1.0000
  Fe  Fe9       1.0  0.32517  0.11287  0.54603  1.0000
  C   C62       1.0  0.25354  0.43423  0.61554  1.0000
  C   C63       1.0  0.02299  0.21266  0.00309  1.0000
  H   H94       1.0  0.09705  0.22129  0.90858  1.0000
  H   H95       1.0  0.28826  0.28014  0.56914  1.0000
  C   C64       1.0  0.30087  0.24433  0.53460  1.0000
  H   H96       1.0  0.24196  0.24030  0.94294  1.0000
  N   N5        1.0  0.28734  0.02490  0.63619  1.0000
  C   C65       1.0  0.21624  0.15904  0.52138  1.0000
  C   C66       1.0  0.28718  0.26969  0.54125  1.0000
  Fe  Fe10      1.0  0.34178  0.15063  0.88592  1.0000
  H   H97       1.0  0.25288  0.41153  0.59912  1.0000
  C   C67       1.0  0.30169  0.02016  0.98316  1.0000
  H   H98       1.0  0.26144  0.05647  0.61332  1.0000
  S   S21       1.0  0.21433  0.27531  0.99514  1.0000
  H   H99       1.0  0.24527  0.41669  0.99382  1.0000
  C   C68       1.0  0.23836  0.48910  0.51531  1.0000
  H   H100      1.0  0.16370  0.25883  0.54605  1.0000
  Fe  Fe11      1.0  0.34096  0.18792  0.56672  1.0000
  H   H101      1.0  0.26388  0.12958  0.99795  1.0000
  C   C69       1.0  0.12281  0.23356  0.96075  1.0000
  C   C70       1.0  0.25154  0.44379  0.99687  1.0000
  H   H102      1.0  0.19732  0.18993  0.55566  1.0000
  H   H103      1.0  0.04656  0.26124  0.91004  1.0000
  H   H104      1.0  0.12524  0.24822  0.98706  1.0000
  H   H105      1.0  0.27772  0.06773  0.69779  1.0000
  H   H106      1.0  0.11427  0.20645  0.96887  1.0000
  H   H107      1.0  0.27557  0.46911  0.57108  1.0000
  C   C71       1.0  0.32161  0.03246  0.69899  1.0000
  C   C72       1.0  0.25232  0.23828  0.97017  1.0000
  C   C73       1.0  0.03283  0.22267  0.52803  1.0000
  H   H108      1.0  0.07218  0.28293  0.96609  1.0000
  H   H109      1.0  0.10446  0.34467  0.97341  1.0000
  H   H110      1.0  0.13053  0.34531  0.93387  1.0000
  H   H111      1.0  0.21376  0.48721  0.52685  1.0000
  H   H112      1.0  0.13814  0.26997  0.87975  1.0000
  H   H113      1.0  0.04680  0.25067  0.84141  1.0000
  H   H114      1.0  0.13365  0.30994  0.88197  1.0000
  H   H115      1.0  0.16278  0.22073  0.56749  1.0000
  C   C74       1.0  0.17487  0.23867  0.54493  1.0000
  H   H116      1.0  0.31558  0.17712  0.75305  1.0000
  C   C75       1.0  0.07156  0.27045  0.89472  1.0000
  S   S22       1.0  0.32253  0.15652  0.82764  1.0000
  H   H117      1.0  0.20294  0.25116  0.55091  1.0000
  H   H118      1.0  0.07440  0.29585  0.88382  1.0000
  H   H119      1.0  0.33690  0.01097  0.58383  1.0000
  H   H120      1.0  0.23932  0.03077  0.65108  1.0000
  N   N6        1.0  0.10126  0.27306  0.92060  1.0000
  C   C76       1.0  0.20405  0.18921  0.52585  1.0000
  N   N7        1.0  0.29014  0.49858  0.62216  1.0000
  H   H121      1.0  0.07021  0.22528  0.94530  1.0000
  C   C77       1.0  0.12747  0.15411  0.54540  1.0000
  C   C78       1.0  0.33088  0.16126  0.75159  1.0000
  C   C79       1.0  0.16829  0.30338  0.92323  1.0000
  H   H122      1.0  0.18127  0.33111  0.91857  1.0000
  H   H123      1.0  0.14849  0.23971  0.94780  1.0000
  H   H124      1.0  0.22707  0.21268  0.52180  1.0000
  H   H125      1.0  0.33050  0.06005  0.69417  1.0000
  H   H126      1.0  0.30508  0.09429  0.66213  1.0000
  H   H127      1.0  0.33316  0.46598  0.64945  1.0000
  C   C80       1.0  0.27879  0.07645  0.66858  1.0000
  H   H128      1.0  0.25781  0.42947  0.64516  1.0000
  H   H129      1.0  0.32949  0.47428  0.69696  1.0000
  C   C81       1.0  0.26694  0.46573  0.96723  1.0000
  H   H130      1.0  0.16499  0.29949  0.95351  1.0000
  H   H131      1.0  0.08437  0.33478  0.92866  1.0000
  H   H132      1.0  0.23840  0.06595  0.00181  1.0000
  H   H133      1.0  0.27812  0.47894  0.67857  1.0000
  H   H134      1.0  0.27236  0.45528  0.94139  1.0000
  S   S23       1.0  0.34629  0.16163  0.51383  1.0000
  H   H135      1.0  0.26095  0.30067  0.51763  1.0000
  H   H136      1.0  0.32545  0.03265  0.51477  1.0000
  H   H137      1.0  0.23551  0.16091  0.54372  1.0000
  C   C82       1.0  0.27562  0.50106  0.97092  1.0000
  C   C83       1.0  0.27171  0.28137  0.51215  1.0000
  H   H138      1.0  0.19493  0.13412  0.52443  1.0000
  Fe  Fe12      1.0  0.33659  0.17193  0.96729  1.0000
  H   H139      1.0  0.11859  0.17497  0.55322  1.0000
  C   C84       1.0  0.24301  0.25340  0.00136  1.0000
  H   H140      1.0  0.31263  0.02869  0.72834  1.0000
  C   C85       1.0  0.27193  0.02646  0.51040  1.0000
  H   H141      1.0  0.04563  0.21024  0.54568  1.0000
  C   C86       1.0  0.06653  0.24703  0.86006  1.0000
  S   S24       1.0  0.34108  0.05438  0.97353  1.0000
  H   H142      1.0  0.21844  0.11344  0.99132  1.0000
  C   C87       1.0  0.34389  0.15566  0.71692  1.0000
  C   C88       1.0  0.34564  0.02738  0.60911  1.0000
  H   H143      1.0  0.05627  0.21977  0.86771  1.0000
  H   H144      1.0  0.33580  0.06875  0.63514  1.0000
  C   C89       1.0  0.33801  0.14706  0.78446  1.0000
  C   C90       1.0  0.26954  0.01996  0.97121  1.0000
  H   H145      1.0  0.24749  0.50575  0.59333  1.0000
  C   C91       1.0  0.25736  0.50611  0.62234  1.0000
  Fe  Fe13      1.0  0.16214  0.83053  0.38707  1.0000
  S   S25       1.0  0.15441  0.86360  0.43365  1.0000
  S   S26       1.0  0.13903  0.82403  0.32806  1.0000
  Fe  Fe14      1.0  0.19595  0.79467  0.43951  1.0000
  H   H146      1.0  0.09404  0.85615  0.11900  1.0000
  H   H147      1.0  0.22965  0.51114  0.34343  1.0000
  Fe  Fe15      1.0  0.13720  0.81571  0.46797  1.0000
  H   H148      1.0  0.31557  0.97353  0.49366  1.0000
  Fe  Fe16      1.0  0.20849  0.87034  0.45235  1.0000
  H   H149      1.0  0.23876  0.69523  0.44009  1.0000
  S   S27       1.0  0.14118  0.78259  0.42052  1.0000
  S   S28       1.0  0.21720  0.84052  0.40315  1.0000
  Fe  Fe17      1.0  0.20222  0.84505  0.11338  1.0000
  S   S29       1.0  0.15875  0.85708  0.08736  1.0000
  S   S30       1.0  0.22082  0.85387  0.17418  1.0000
  Fe  Fe18      1.0  0.22405  0.82471  0.03775  1.0000
  H   H150      1.0  0.18596  0.74057  0.34913  1.0000
  Fe  Fe19      1.0  0.19702  0.88273  0.04202  1.0000
  C   C92       1.0  0.15886  0.71109  0.03767  1.0000
  Fe  Fe20      1.0  0.14741  0.80859  0.05369  1.0000
  C   C93       1.0  0.29772  0.52369  0.50010  1.0000
  S   S31       1.0  0.24104  0.87394  0.07026  1.0000
  S   S32       1.0  0.18893  0.79507  0.08277  1.0000
  C   C94       1.0  0.23853  0.00347  0.50125  1.0000
  H   H151      1.0  0.33202  0.77469  0.08668  1.0000
  C   C95       1.0  0.27218  0.96572  0.01408  1.0000
  S   S33       1.0  0.20062  0.93348  0.01671  1.0000
  C   C96       1.0  0.07987  0.79120  0.14499  1.0000
  H   H152      1.0  0.32823  0.56282  0.04689  1.0000
  H   H153      1.0  0.11746  0.85377  0.18051  1.0000
  H   H154      1.0  0.05350  0.74196  0.11527  1.0000
  C   C97       1.0  0.29108  0.81767  0.34402  1.0000
  H   H155      1.0  0.25151  0.70108  0.05760  1.0000
  H   H156      1.0  0.24254  0.75608  0.05686  1.0000
  C   C98       1.0  0.16193  0.83356  0.28542  1.0000
  C   C99       1.0  0.19665  0.85504  0.28404  1.0000
  C   C100      1.0  0.21393  0.86169  0.24958  1.0000
  C   C101      1.0  0.19697  0.84660  0.21624  1.0000
  C   C102      1.0  0.16233  0.82498  0.21763  1.0000
  C   C103      1.0  0.14481  0.81878  0.25199  1.0000
  H   H157      1.0  0.21005  0.86684  0.30945  1.0000
  H   H158      1.0  0.24070  0.87861  0.24875  1.0000
  H   H159      1.0  0.14938  0.81270  0.19229  1.0000
  H   H160      1.0  0.11801  0.80200  0.25284  1.0000
  H   H161      1.0  0.20543  0.51278  0.42499  1.0000
  H   H162      1.0  0.01972  0.77988  0.42895  1.0000
  H   H163      1.0  0.06510  0.74024  0.46395  1.0000
  H   H164      1.0  0.04729  0.74083  0.16560  1.0000
  H   H165      1.0  0.03399  0.84789  0.07900  1.0000
  S   S34       1.0  0.21465  0.75047  0.43487  1.0000
  S   S35       1.0  0.25518  0.91682  0.47152  1.0000
  H   H166      1.0  0.21674  0.70738  0.33179  1.0000
  S   S36       1.0  0.19081  0.82458  0.48972  1.0000
  C   C104      1.0  0.04768  0.73843  0.48681  1.0000
  H   H167      1.0  0.13072  0.66301  0.50074  1.0000
  H   H168      1.0  0.11764  0.72657  0.47560  1.0000
  H   H169      1.0  0.24305  0.74104  0.36281  1.0000
  H   H170      1.0  0.26169  0.71505  0.34069  1.0000
  C   C105      1.0  0.26056  0.95886  0.48633  1.0000
  C   C106      1.0  0.25641  0.74952  0.03449  1.0000
  H   H171      1.0  0.24383  0.73406  0.27747  1.0000
  H   H172      1.0  0.10905  0.68817  0.45004  1.0000
  H   H173      1.0  0.21766  0.78175  0.22368  1.0000
  H   H174      1.0  0.25994  0.80397  0.20706  1.0000
  C   C107      1.0  0.24846  0.71146  0.46433  1.0000
  H   H175      1.0  0.14611  0.72139  0.05926  1.0000
  H   H176      1.0  0.08614  0.68667  0.49218  1.0000
  C   C108      1.0  0.25395  0.76211  0.49992  1.0000
  H   H177      1.0  0.21238  0.54451  0.39044  1.0000
  H   H178      1.0  0.31877  0.52880  0.07997  1.0000
  H   H179      1.0  0.28643  0.80844  0.26799  1.0000
  C   C109      1.0  0.14016  0.69121  0.49956  1.0000
  C   C110      1.0  0.22082  0.52383  0.39993  1.0000
  H   H180      1.0  0.10113  0.88708  0.18118  1.0000
  H   H181      1.0  0.09050  0.79717  0.17379  1.0000
  H   H182      1.0  0.03324  0.70457  0.04385  1.0000
  S   S37       1.0  0.09609  0.76304  0.04851  1.0000
  H   H183      1.0  0.20705  0.95261  0.48215  1.0000
  C   C111      1.0  0.04331  0.80224  0.09668  1.0000
  H   H184      1.0  0.18257  0.78189  0.34734  1.0000
  H   H185      1.0  0.05668  0.86074  0.13774  1.0000
  H   H186      1.0  0.19340  0.74536  0.27650  1.0000
  C   C112      1.0  0.09325  0.85900  0.17893  1.0000
  H   H187      1.0  0.21727  0.99585  0.08295  1.0000
  H   H188      1.0  0.18364  0.71144  0.04955  1.0000
  H   H189      1.0  0.16322  0.69907  0.48113  1.0000
  H   H190      1.0  0.15250  0.74696  0.32249  1.0000
  N   N8        1.0  0.24131  0.78039  0.30089  1.0000
  C   C113      1.0  0.25798  0.80178  0.26764  1.0000
  C   C114      1.0  0.25209  0.80312  0.33503  1.0000
  C   C115      1.0  0.20256  0.76792  0.29560  1.0000
  C   C116      1.0  0.25351  0.75097  0.30228  1.0000
  C   C117      1.0  0.24522  0.78587  0.22873  1.0000
  C   C118      1.0  0.24121  0.74127  0.46851  1.0000
  C   C119      1.0  0.18011  0.75871  0.33093  1.0000
  C   C120      1.0  0.24265  0.72744  0.33625  1.0000
  H   H191      1.0  0.25424  0.82652  0.26864  1.0000
  H   H192      1.0  0.24961  0.76185  0.22403  1.0000
  H   H193      1.0  0.23938  0.79009  0.36066  1.0000
  H   H194      1.0  0.24348  0.82505  0.33217  1.0000
  H   H195      1.0  0.19507  0.78763  0.28172  1.0000
  H   H196      1.0  0.06617  0.81040  0.07799  1.0000
  H   H197      1.0  0.08733  0.74314  0.14613  1.0000
  H   H198      1.0  0.27287  0.67899  0.48834  1.0000
  C   C121      1.0  0.26163  0.71850  0.03488  1.0000
  C   C122      1.0  0.29393  0.98180  0.49579  1.0000
  C   C123      1.0  0.07437  0.84661  0.14129  1.0000
  H   H199      1.0  0.27356  0.94505  0.03071  1.0000
  H   H200      1.0  0.10239  0.80054  0.12590  1.0000
  H   H201      1.0  0.03000  0.77489  0.09013  1.0000
  H   H202      1.0  0.28208  0.75955  0.29966  1.0000
  H   H203      1.0  0.29525  0.83275  0.37043  1.0000
  H   H204      1.0  0.07682  0.84791  0.20329  1.0000
  N   N9        1.0  0.05492  0.80872  0.13693  1.0000
  C   C124      1.0  0.06552  0.75209  0.14263  1.0000
  H   H205      1.0  0.30141  0.79730  0.34870  1.0000
  H   H206      1.0  0.30609  0.83530  0.32227  1.0000
  S   S38       1.0  0.33307  0.56315  0.49870  1.0000
  C   C125      1.0  0.26782  0.70220  0.49158  1.0000
  H   H207      1.0  0.14150  0.68444  0.03341  1.0000
  C   C126      1.0  0.11159  0.69901  0.47877  1.0000
  H   H208      1.0  0.24889  0.78531  0.50333  1.0000
  H   H209      1.0  0.33972  0.57197  0.09481  1.0000
  H   H210      1.0  0.24851  0.53608  0.40768  1.0000
  C   C127      1.0  0.33799  0.55372  0.07167  1.0000
  H   H211      1.0  0.32743  0.99248  0.01360  1.0000
  C   C128      1.0  0.01938  0.82036  0.08314  1.0000
  C   C129      1.0  0.05716  0.75541  0.02277  1.0000
  H   H212      1.0  0.34246  0.78380  0.03911  1.0000
  C   C130      1.0  0.01815  0.70870  0.49131  1.0000
  C   C131      1.0  0.02534  0.79801  0.16412  1.0000
  H   H213      1.0  0.03487  0.79559  0.19266  1.0000
  H   H214      1.0  0.33857  0.72578  0.05124  1.0000
  C   C132      1.0  0.23284  0.96991  0.48923  1.0000
  C   C133      1.0  0.02985  0.72383  0.02635  1.0000
  C   C134      1.0  0.18966  0.70397  0.95669  1.0000
  H   H215      1.0  0.28018  0.56223  0.62772  1.0000
  C   C135      1.0  0.34191  0.62222  0.71997  1.0000
  S   S39       1.0  0.30410  0.61756  0.57628  1.0000
  S   S40       1.0  0.29740  0.62125  0.91478  1.0000
  C   C136      1.0  0.34726  0.51946  0.58403  1.0000
  C   C137      1.0  0.23891  0.99299  0.98112  1.0000
  S   S41       1.0  0.29671  0.52783  0.93367  1.0000
  H   H216      1.0  0.19169  0.78861  0.90885  1.0000
  H   H217      1.0  0.18760  0.70736  0.58064  1.0000
  H   H218      1.0  0.20288  0.70926  0.53431  1.0000
  Fe  Fe21      1.0  0.34236  0.60959  0.53678  1.0000
  C   C138      1.0  0.05475  0.76559  0.51215  1.0000
  H   H219      1.0  0.07062  0.67119  0.96876  1.0000
  C   C139      1.0  0.26836  0.51426  0.00440  1.0000
  C   C140      1.0  0.26584  0.52089  0.51504  1.0000
  S   S42       1.0  0.33660  0.61493  0.99212  1.0000
  H   H220      1.0  0.14082  0.75264  0.94150  1.0000
  H   H221      1.0  0.09877  0.72927  0.58915  1.0000
  H   H222      1.0  0.21340  0.66725  0.96862  1.0000
  H   H223      1.0  0.33023  0.54907  0.62271  1.0000
  H   H224      1.0  0.29815  0.78116  0.95400  1.0000
  H   H225      1.0  0.07290  0.80452  0.99719  1.0000
  H   H226      1.0  0.30714  0.72616  0.95468  1.0000
  Fe  Fe22      1.0  0.31707  0.65286  0.96688  1.0000
  H   H227      1.0  0.18173  0.79211  0.56784  1.0000
  H   H228      1.0  0.28211  0.76856  0.55195  1.0000
  C   C141      1.0  0.29314  0.73261  0.97702  1.0000
  C   C142      1.0  0.31785  0.52753  0.60293  1.0000
  H   H229      1.0  0.23509  0.54389  0.63629  1.0000
  H   H230      1.0  0.23159  0.96201  0.64864  1.0000
  H   H231      1.0  0.26783  0.00167  0.68908  1.0000
  H   H232      1.0  0.06754  0.69175  0.57000  1.0000
  H   H233      1.0  0.01674  0.79261  0.96458  1.0000
  C   C143      1.0  0.27286  0.75261  0.52740  1.0000
  S   S43       1.0  0.30114  0.71056  0.56048  1.0000
  H   H234      1.0  0.26449  0.54078  0.67105  1.0000
  H   H235      1.0  0.10591  0.66576  0.55941  1.0000
  C   C144      1.0  0.05226  0.78005  0.00015  1.0000
  N   N10       1.0  0.15008  0.70693  0.53793  1.0000
  H   H236      1.0  0.26614  0.00666  0.58131  1.0000
  C   C145      1.0  0.24000  0.96576  0.00277  1.0000
  C   C146      1.0  0.12037  0.69338  0.56473  1.0000
  C   C147      1.0  0.19488  0.77191  0.93114  1.0000
  H   H237      1.0  0.18395  0.75364  0.51330  1.0000
  C   C148      1.0  0.26940  0.77212  0.00524  1.0000
  H   H238      1.0  0.20199  0.78773  0.95684  1.0000
  C   C149      1.0  0.18889  0.67091  0.97514  1.0000
  N   N11       1.0  0.16031  0.71585  0.96502  1.0000
  C   C150      1.0  0.02033  0.77321  0.98169  1.0000
  H   H239      1.0  0.19494  0.65563  0.56827  1.0000
  H   H240      1.0  0.21305  0.98458  0.61736  1.0000
  H   H241      1.0  0.15391  0.72878  0.90764  1.0000
  C   C151      1.0  0.03141  0.76300  0.54130  1.0000
  H   H242      1.0  0.34137  0.66954  0.69914  1.0000
  H   H243      1.0  0.16788  0.64820  0.96362  1.0000
  C   C152      1.0  0.17314  0.65909  0.55307  1.0000
  H   H244      1.0  0.26229  0.54327  0.52614  1.0000
  C   C153      1.0  0.27982  0.72260  0.52346  1.0000
  H   H245      1.0  0.21480  0.72388  0.96481  1.0000
  C   C154      1.0  0.12612  0.68658  0.96132  1.0000
  H   H246      1.0  0.28377  0.97968  0.60423  1.0000
  C   C155      1.0  0.28800  0.76370  0.97670  1.0000
  H   H247      1.0  0.30650  0.53831  0.58049  1.0000
  H   H248      1.0  0.21658  0.76421  0.92267  1.0000
  C   C156      1.0  0.23227  0.97223  0.62018  1.0000
  H   H249      1.0  0.21421  0.99320  0.97195  1.0000
  H   H250      1.0  0.02350  0.76678  0.89031  1.0000
  Fe  Fe23      1.0  0.32111  0.58564  0.93853  1.0000
  S   S44       1.0  0.26249  0.81076  0.00284  1.0000
  H   H251      1.0  0.20507  0.76507  0.57689  1.0000
  S   S45       1.0  0.33969  0.60243  0.67565  1.0000
  Fe  Fe24      1.0  0.32886  0.67292  0.56080  1.0000
  H   H252      1.0  0.17285  0.64830  0.52464  1.0000
  C   C157      1.0  0.16061  0.74137  0.93562  1.0000
  H   H253      1.0  0.13043  0.69542  0.59389  1.0000
  C   C158      1.0  0.17883  0.76510  0.57119  1.0000
  H   H254      1.0  0.14910  0.64445  0.56798  1.0000
  H   H255      1.0  0.29768  0.98626  0.66755  1.0000
  C   C159      1.0  0.17966  0.69742  0.55181  1.0000
  C   C160      1.0  0.16353  0.74516  0.53492  1.0000
  H   H256      1.0  0.22378  0.95015  0.60047  1.0000
  H   H257      1.0  0.19130  0.69980  0.92608  1.0000
  C   C161      1.0  0.09372  0.71108  0.56526  1.0000
  H   H258      1.0  0.12260  0.67592  0.93235  1.0000
  H   H259      1.0  0.16206  0.75516  0.59558  1.0000
  C   C162      1.0  0.25995  0.54025  0.64048  1.0000
  H   H260      1.0  0.02315  0.75465  0.82328  1.0000
  H   H261      1.0  0.30686  0.52102  0.67672  1.0000
  H   H262      1.0  0.09179  0.72417  0.53941  1.0000
  C   C163      1.0  0.09393  0.69484  0.97111  1.0000
  H   H263      1.0  0.14362  0.75474  0.52499  1.0000
  H   H264      1.0  0.02349  0.80320  0.86570  1.0000
  C   C164      1.0  0.26875  0.99633  0.60906  1.0000
  H   H265      1.0  0.12485  0.66485  0.97898  1.0000
  H   H266      1.0  0.03663  0.78387  0.56105  1.0000
  S   S46       1.0  0.18191  0.83496  0.00655  1.0000
  H   H267      1.0  0.08987  0.71334  0.95178  1.0000
  C   C165      1.0  0.34321  0.65562  0.72370  1.0000
  H   H268      1.0  0.27440  0.54132  0.00740  1.0000
  H   H269      1.0  0.34440  0.54448  0.99373  1.0000
  C   C166      1.0  0.27989  0.70990  0.00613  1.0000
  H   H270      1.0  0.34232  0.57828  0.74969  1.0000
  S   S47       1.0  0.28599  0.67082  0.00826  1.0000
  C   C167      1.0  0.34354  0.60421  0.75224  1.0000
  C   C168      1.0  0.16522  0.73349  0.00260  1.0000
  H   H271      1.0  0.09497  0.70424  0.00026  1.0000
  Fe  Fe25      1.0  0.34639  0.62925  0.61966  1.0000
  C   C169      1.0  0.30276  0.99274  0.00436  1.0000
  H   H272      1.0  0.14895  0.74925  0.00502  1.0000
  H   H273      1.0  0.18748  0.67176  0.00586  1.0000
  H   H274      1.0  0.19191  0.75256  0.00553  1.0000
  C   C170      1.0  0.34739  0.61969  0.78788  1.0000
  C   C171      1.0  0.34740  0.67122  0.75932  1.0000
  S   S48       1.0  0.09253  0.80287  0.50926  1.0000
  H   H275      1.0  0.35772  0.26399  0.05695  1.0000
  H   H276      1.0  0.61245  0.14818  0.50319  1.0000
  H   H277      1.0  0.41599  0.30920  0.43751  1.0000
  C   C172      1.0  0.37431  0.23448  0.43608  1.0000
  S   S49       1.0  0.64756  0.28368  0.41724  1.0000
  H   H278      1.0  0.60608  0.20822  0.43966  1.0000
  S   S50       1.0  0.65178  0.36201  0.42949  1.0000
  H   H279      1.0  0.46931  0.27980  0.08136  1.0000
  Fe  Fe26      1.0  0.63996  0.31530  0.46470  1.0000
  C   C173      1.0  0.48776  0.31620  0.03847  1.0000
  C   C174      1.0  0.66337  0.33797  0.21296  1.0000
  H   H280      1.0  0.40784  0.18984  0.08934  1.0000
  S   S51       1.0  0.65602  0.35824  0.08712  1.0000
  H   H281      1.0  0.45263  0.24625  0.45400  1.0000
  Fe  Fe27      1.0  0.63868  0.31067  0.05076  1.0000
  H   H282      1.0  0.37180  0.24203  0.49517  1.0000
  H   H283      1.0  0.51534  0.32070  0.04447  1.0000
  H   H284      1.0  0.50056  0.29624  0.42719  1.0000
  N   N12       1.0  0.42336  0.27473  0.47780  1.0000
  H   H285      1.0  0.48139  0.33552  0.05486  1.0000
  H   H286      1.0  0.64913  0.21062  0.42769  1.0000
  H   H287      1.0  0.66744  0.41494  0.35239  1.0000
  H   H288      1.0  0.38970  0.22558  0.41625  1.0000
  C   C175      1.0  0.62857  0.20207  0.44910  1.0000
  H   H289      1.0  0.39875  0.22031  0.48248  1.0000
  C   C176      1.0  0.64771  0.33713  0.24797  1.0000
  H   H290      1.0  0.49964  0.20684  0.44389  1.0000
  H   H291      1.0  0.37070  0.46835  0.07352  1.0000
  H   H292      1.0  0.55857  0.25148  0.44662  1.0000
  H   H293      1.0  0.57599  0.17936  0.49731  1.0000
  S   S52       1.0  0.59642  0.29728  0.50760  1.0000
  H   H294      1.0  0.36943  0.25638  0.42420  1.0000
  H   H295      1.0  0.47812  0.26282  0.03884  1.0000
  H   H296      1.0  0.62259  0.33918  0.24931  1.0000
  C   C177      1.0  0.39186  0.24250  0.47488  1.0000
  H   H297      1.0  0.62073  0.17415  0.44988  1.0000
  C   C178      1.0  0.41597  0.30615  0.46837  1.0000
  H   H298      1.0  0.48522  0.32492  0.45178  1.0000
  H   H299      1.0  0.38172  0.22478  0.05840  1.0000
  H   H300      1.0  0.38514  0.33400  0.49058  1.0000
  H   H301      1.0  0.65036  0.34071  0.18770  1.0000
  H   H302      1.0  0.36206  0.30154  0.45850  1.0000
  S   S53       1.0  0.64462  0.33601  0.32464  1.0000
  C   C179      1.0  0.64301  0.22020  0.48663  1.0000
  S   S54       1.0  0.58224  0.27338  0.05163  1.0000
  H   H303      1.0  0.66908  0.05520  0.07041  1.0000
  C   C180      1.0  0.50882  0.22112  0.46954  1.0000
  C   C181      1.0  0.40922  0.23793  0.06686  1.0000
  H   H304      1.0  0.51830  0.21630  0.05164  1.0000
  C   C182      1.0  0.38113  0.30753  0.48182  1.0000
  C   C183      1.0  0.54224  0.24650  0.47096  1.0000
  C   C184      1.0  0.46561  0.27982  0.05050  1.0000
  C   C185      1.0  0.42435  0.20970  0.07034  1.0000
  H   H305      1.0  0.42453  0.19690  0.04332  1.0000
  H   H306      1.0  0.67551  0.17509  0.48469  1.0000
  H   H307      1.0  0.40872  0.24804  0.09563  1.0000
  H   H308      1.0  0.44013  0.27069  0.42118  1.0000
  H   H309      1.0  0.45075  0.21929  0.08261  1.0000
  H   H310      1.0  0.41705  0.30307  0.07612  1.0000
  Fe  Fe28      1.0  0.66405  0.33151  0.38341  1.0000
  C   C186      1.0  0.48584  0.29896  0.45204  1.0000
  H   H311      1.0  0.67908  0.40732  0.29292  1.0000
  H   H312      1.0  0.63881  0.24468  0.48584  1.0000
  C   C187      1.0  0.55046  0.25596  0.01604  1.0000
  C   C188      1.0  0.66441  0.33408  0.28121  1.0000
  S   S55       1.0  0.44445  0.18326  0.49654  1.0000
  C   C189      1.0  0.44937  0.27106  0.45042  1.0000
  H   H313      1.0  0.42633  0.31676  0.02989  1.0000
  H   H314      1.0  0.43700  0.32931  0.47937  1.0000
  H   H315      1.0  0.68071  0.08868  0.10320  1.0000
  H   H316      1.0  0.67158  0.22833  0.48662  1.0000
  H   H317      1.0  0.35238  0.47902  0.01083  1.0000
  H   H318      1.0  0.50070  0.29595  0.47668  1.0000
  N   N13       1.0  0.42759  0.26650  0.04052  1.0000
  C   C190      1.0  0.52064  0.22766  0.02438  1.0000
  C   C191      1.0  0.55434  0.26541  0.50379  1.0000
  H   H319      1.0  0.36925  0.29133  0.50577  1.0000
  C   C192      1.0  0.48703  0.21433  0.50079  1.0000
  H   H320      1.0  0.35147  0.10404  0.04796  1.0000
  C   C193      1.0  0.37404  0.28357  0.03764  1.0000
  H   H321      1.0  0.36660  0.30609  0.04130  1.0000
  S   S56       1.0  0.67775  0.29104  0.07554  1.0000
  C   C194      1.0  0.41287  0.29386  0.04657  1.0000
  H   H322      1.0  0.34896  0.21327  0.43862  1.0000
  C   C195      1.0  0.34920  0.49532  0.03396  1.0000
  C   C196      1.0  0.43494  0.27733  0.96906  1.0000
  S   S57       1.0  0.37785  0.11591  0.56500  1.0000
  C   C197      1.0  0.53272  0.25835  0.53518  1.0000
  Fe  Fe29      1.0  0.39880  0.16706  0.53699  1.0000
  H   H323      1.0  0.42377  0.22065  0.71166  1.0000
  C   C198      1.0  0.56963  0.17934  0.55665  1.0000
  S   S58       1.0  0.39452  0.19625  0.58829  1.0000
  H   H324      1.0  0.37155  0.04645  0.60269  1.0000
  Fe  Fe30      1.0  0.40688  0.17647  0.93533  1.0000
  S   S59       1.0  0.36788  0.19915  0.91873  1.0000
  S   S60       1.0  0.46289  0.21292  0.92839  1.0000
  C   C199      1.0  0.49932  0.23297  0.53376  1.0000
  C   C200      1.0  0.52636  0.25656  0.95406  1.0000
  H   H325      1.0  0.38574  0.10474  0.74596  1.0000
  S   S61       1.0  0.38239  0.12925  0.89965  1.0000
  C   C201      1.0  0.37040  0.12055  0.74742  1.0000
  H   H326      1.0  0.38353  0.23677  0.84570  1.0000
  H   H327      1.0  0.54192  0.27264  0.56081  1.0000
  H   H328      1.0  0.65616  0.26805  0.58724  1.0000
  H   H329      1.0  0.45935  0.25412  0.73244  1.0000
  C   C202      1.0  0.49639  0.22849  0.96257  1.0000
  Fe  Fe31      1.0  0.36970  0.14503  0.61503  1.0000
  H   H330      1.0  0.39137  0.26095  0.55061  1.0000
  H   H331      1.0  0.63812  0.20667  0.58096  1.0000
  C   C203      1.0  0.41683  0.28183  0.54914  1.0000
  H   H332      1.0  0.41386  0.30682  0.54841  1.0000
  C   C204      1.0  0.55326  0.27022  0.98057  1.0000
  H   H333      1.0  0.41593  0.24409  0.74971  1.0000
  H   H334      1.0  0.44495  0.25450  0.52229  1.0000
  H   H335      1.0  0.43289  0.30231  0.97405  1.0000
  H   H336      1.0  0.66727  0.14078  0.51627  1.0000
  C   C205      1.0  0.43874  0.27744  0.51646  1.0000
  S   S62       1.0  0.37729  0.15226  0.98620  1.0000
  H   H337      1.0  0.67429  0.22748  0.55286  1.0000
  H   H338      1.0  0.62444  0.15539  0.55048  1.0000
  H   H339      1.0  0.56958  0.15339  0.56089  1.0000
  H   H340      1.0  0.41354  0.26102  0.81315  1.0000
  S   S63       1.0  0.38302  0.12972  0.67228  1.0000
  H   H341      1.0  0.41881  0.26698  0.94380  1.0000
  H   H342      1.0  0.43043  0.28128  0.57573  1.0000
  H   H343      1.0  0.46202  0.28077  0.96230  1.0000
  H   H344      1.0  0.48304  0.22791  0.55813  1.0000
  H   H345      1.0  0.57598  0.29202  0.97377  1.0000
  H   H346      1.0  0.48590  0.32045  0.00835  1.0000
  C   C206      1.0  0.36406  0.13557  0.71474  1.0000
  H   H347      1.0  0.43378  0.23309  0.99742  1.0000
  C   C207      1.0  0.64604  0.22154  0.55491  1.0000
  H   H348      1.0  0.57964  0.19521  0.58201  1.0000
  N   N14       1.0  0.44998  0.21720  0.80489  1.0000
  C   C208      1.0  0.46785  0.19461  0.82001  1.0000
  C   C209      1.0  0.47553  0.25332  0.80715  1.0000
  C   C210      1.0  0.44002  0.20684  0.76469  1.0000
  C   C211      1.0  0.41848  0.21194  0.82831  1.0000
  C   C212      1.0  0.44835  0.15590  0.81491  1.0000
  C   C213      1.0  0.48805  0.26717  0.84677  1.0000
  C   C214      1.0  0.43452  0.23333  0.73874  1.0000
  C   C215      1.0  0.39757  0.23458  0.82013  1.0000
  H   H349      1.0  0.49362  0.20074  0.80688  1.0000
  H   H350      1.0  0.47290  0.19889  0.85051  1.0000
  H   H351      1.0  0.46518  0.27148  0.79458  1.0000
  H   H352      1.0  0.49881  0.25589  0.79035  1.0000
  H   H353      1.0  0.46007  0.19931  0.75072  1.0000
  H   H354      1.0  0.41591  0.18400  0.76328  1.0000
  H   H355      1.0  0.39978  0.18546  0.82509  1.0000
  H   H356      1.0  0.42465  0.21377  0.85868  1.0000
  H   H357      1.0  0.46406  0.14238  0.82749  1.0000
  H   H358      1.0  0.42336  0.14690  0.82959  1.0000
  H   H359      1.0  0.44422  0.14793  0.78513  1.0000
  H   H360      1.0  0.50338  0.25366  0.86000  1.0000
  H   H361      1.0  0.50536  0.29428  0.84497  1.0000
  H   H362      1.0  0.46638  0.26622  0.86519  1.0000
  H   H363      1.0  0.61453  0.25309  0.56576  1.0000
  H   H364      1.0  0.52878  0.26802  0.92689  1.0000
  C   C216      1.0  0.35752  0.12631  0.78214  1.0000
  C   C217      1.0  0.64178  0.25591  0.56149  1.0000
  H   H365      1.0  0.37815  0.22313  0.79769  1.0000
  H   H366      1.0  0.36263  0.11470  0.80709  1.0000
  H   H367      1.0  0.36609  0.50496  0.95677  1.0000
  H   H368      1.0  0.65292  0.27391  0.53855  1.0000
  H   H369      1.0  0.54226  0.17692  0.55315  1.0000
  C   C218      1.0  0.63116  0.16688  0.52239  1.0000
  H   H370      1.0  0.46344  0.29959  0.51899  1.0000
  H   H371      1.0  0.39367  0.23692  0.99589  1.0000
  H   H372      1.0  0.58590  0.22015  0.51704  1.0000
  C   C219      1.0  0.49384  0.21389  0.99781  1.0000
  C   C220      1.0  0.42147  0.25213  0.00130  1.0000
  C   C221      1.0  0.58963  0.19575  0.52139  1.0000
  S   S64       1.0  0.67321  0.33629  0.00302  1.0000
  Fe  Fe32      1.0  0.34902  0.10663  0.94964  1.0000
  H   H373      1.0  0.47135  0.19187  0.00452  1.0000
  C   C222      1.0  0.66749  0.16701  0.51364  1.0000
  N   N15       1.0  0.62742  0.20104  0.52133  1.0000
  H   H374      1.0  0.34884  0.01205  0.63267  1.0000
  H   H375      1.0  0.36059  0.50791  0.60317  1.0000
  H   H376      1.0  0.36765  0.27460  0.00836  1.0000
  H   H377      1.0  0.45042  0.57358  0.05928  1.0000
  C   C223      1.0  0.58733  0.79656  0.34394  1.0000
  H   H378      1.0  0.41602  0.71254  0.02214  1.0000
  C   C224      1.0  0.53577  0.74064  0.01449  1.0000
  H   H379      1.0  0.66836  0.51919  0.02051  1.0000
  C   C225      1.0  0.42489  0.77358  0.06255  1.0000
  S   S65       1.0  0.65127  0.85284  0.41980  1.0000
  H   H380      1.0  0.55941  0.76930  0.27757  1.0000
  Fe  Fe33      1.0  0.62934  0.80455  0.45284  1.0000
  H   H381      1.0  0.46785  0.75756  0.07847  1.0000
  H   H382      1.0  0.61107  0.73466  0.26381  1.0000
  H   H383      1.0  0.56356  0.74193  0.24034  1.0000
  S   S66       1.0  0.63400  0.84595  0.08234  1.0000
  H   H384      1.0  0.59025  0.78539  0.24186  1.0000
  Fe  Fe34      1.0  0.62341  0.79511  0.05473  1.0000
  H   H385      1.0  0.48745  0.66781  0.05875  1.0000
  S   S67       1.0  0.64336  0.77473  0.10421  1.0000
  C   C226      1.0  0.41159  0.52757  0.03402  1.0000
  H   H386      1.0  0.67009  0.75729  0.30258  1.0000
  S   S68       1.0  0.66971  0.78472  0.43308  1.0000
  H   H387      1.0  0.59589  0.81654  0.36606  1.0000
  H   H388      1.0  0.56123  0.66852  0.31714  1.0000
  H   H389      1.0  0.59168  0.81013  0.31705  1.0000
  H   H390      1.0  0.55949  0.78258  0.34885  1.0000
  C   C227      1.0  0.49439  0.68755  0.03805  1.0000
  H   H391      1.0  0.67549  0.72613  0.33255  1.0000
  H   H392      1.0  0.67092  0.76267  0.35287  1.0000
  C   C228      1.0  0.66444  0.83869  0.23164  1.0000
  H   H393      1.0  0.43866  0.57998  0.01248  1.0000
  C   C229      1.0  0.56291  0.72054  0.32773  1.0000
  H   H394      1.0  0.63004  0.85628  0.26299  1.0000
  S   S69       1.0  0.67478  0.81316  0.02552  1.0000
  H   H395      1.0  0.54365  0.71648  0.06434  1.0000
  C   C230      1.0  0.57789  0.76299  0.25989  1.0000
  H   H396      1.0  0.41577  0.71251  0.09546  1.0000
  S   S70       1.0  0.57362  0.76732  0.44562  1.0000
  N   N16       1.0  0.39379  0.74900  0.04209  1.0000
  H   H397      1.0  0.63076  0.77743  0.27882  1.0000
  C   C231      1.0  0.50935  0.72754  0.47126  1.0000
  H   H398      1.0  0.55676  0.69046  0.27538  1.0000
  H   H399      1.0  0.37082  0.69650  0.02364  1.0000
  H   H400      1.0  0.65695  0.92762  0.39391  1.0000
  N   N17       1.0  0.59974  0.74373  0.32094  1.0000
  C   C232      1.0  0.62250  0.72422  0.33108  1.0000
  S   S71       1.0  0.64250  0.83793  0.18884  1.0000
  H   H401      1.0  0.61667  0.71379  0.35980  1.0000
  H   H402      1.0  0.63613  0.79128  0.34338  1.0000
  H   H403      1.0  0.64069  0.69561  0.47032  1.0000
  C   C233      1.0  0.39540  0.69612  0.07630  1.0000
  H   H404      1.0  0.59377  0.67986  0.47179  1.0000
  C   C234      1.0  0.61773  0.70274  0.47349  1.0000
  Fe  Fe35      1.0  0.65762  0.82720  0.12993  1.0000
  C   C235      1.0  0.60648  0.75479  0.28083  1.0000
  H   H405      1.0  0.61750  0.70191  0.31208  1.0000
  C   C236      1.0  0.46021  0.77032  0.05498  1.0000
  C   C237      1.0  0.67369  0.54679  0.02458  1.0000
  H   H406      1.0  0.39211  0.57909  0.06146  1.0000
  N   N18       1.0  0.37665  0.53051  0.03253  1.0000
  H   H407      1.0  0.50374  0.71945  0.44244  1.0000
  H   H408      1.0  0.45898  0.69486  0.49066  1.0000
  H   H409      1.0  0.36339  0.73857  0.09278  1.0000
  C   C238      1.0  0.48387  0.71356  0.49855  1.0000
  H   H410      1.0  0.52188  0.67460  0.30757  1.0000
  H   H411      1.0  0.60728  0.76546  0.37662  1.0000
  H   H412      1.0  0.55909  0.71417  0.35795  1.0000
  H   H413      1.0  0.42776  0.80029  0.05655  1.0000
  C   C239      1.0  0.36163  0.74621  0.06345  1.0000
  C   C240      1.0  0.54195  0.75178  0.48096  1.0000
  H   H414      1.0  0.42104  0.77075  0.09327  1.0000
  C   C241      1.0  0.55041  0.68673  0.30540  1.0000
  H   H415      1.0  0.54429  0.73296  0.32170  1.0000
  C   C242      1.0  0.60896  0.77396  0.34715  1.0000
  C   C243      1.0  0.65201  0.84847  0.26456  1.0000
  H   H416      1.0  0.67536  0.95219  0.35405  1.0000
  H   H417      1.0  0.48060  0.79614  0.05380  1.0000
  H   H418      1.0  0.40107  0.67282  0.07061  1.0000
  C   C244      1.0  0.44299  0.56135  0.03133  1.0000
  H   H419      1.0  0.46519  0.55629  0.01925  1.0000
  H   H420      1.0  0.36999  0.68773  0.09035  1.0000
  H   H421      1.0  0.61702  0.71827  0.44894  1.0000
  C   C245      1.0  0.66183  0.74413  0.32945  1.0000
  H   H422      1.0  0.38244  0.54398  0.09151  1.0000
  C   C246      1.0  0.39424  0.71353  0.03898  1.0000
  C   C247      1.0  0.37403  0.55230  0.06507  1.0000
  C   C248      1.0  0.52628  0.71511  0.04132  1.0000
  H   H423      1.0  0.65735  0.85501  0.32453  1.0000
  H   H424      1.0  0.37525  0.80126  0.07519  1.0000
  H   H425      1.0  0.46199  0.75737  0.02865  1.0000
  S   S72       1.0  0.65870  0.82854  0.50484  1.0000
  C   C249      1.0  0.66743  0.84775  0.29949  1.0000
  H   H426      1.0  0.67524  0.90926  0.35911  1.0000
  H   H427      1.0  0.67483  0.00145  0.07838  1.0000
  H   H428      1.0  0.41512  0.51625  0.06087  1.0000
  C   C250      1.0  0.35289  0.77865  0.06597  1.0000
  H   H429      1.0  0.66198  0.54947  0.05157  1.0000
  H   H430      1.0  0.41402  0.50924  0.01270  1.0000
  C   C251      1.0  0.67850  0.93343  0.37372  1.0000
  S   S73       1.0  0.57577  0.77573  0.01626  1.0000
  H   H431      1.0  0.64447  0.74668  0.50746  1.0000
  H   H432      1.0  0.59931  0.73478  0.50732  1.0000
  H   H433      1.0  0.49442  0.73131  0.67815  1.0000
  S   S74       1.0  0.38321  0.61794  0.58106  1.0000
  H   H434      1.0  0.36651  0.74391  0.98951  1.0000
  Fe  Fe36      1.0  0.40279  0.67305  0.56552  1.0000
  S   S75       1.0  0.46057  0.70507  0.57196  1.0000
  H   H435      1.0  0.43941  0.68735  0.80456  1.0000
  C   C252      1.0  0.55218  0.67645  0.53988  1.0000
  H   H436      1.0  0.49439  0.74138  0.72630  1.0000
  Fe  Fe37      1.0  0.38718  0.64416  0.96503  1.0000
  C   C253      1.0  0.61524  0.72926  0.57686  1.0000
  H   H437      1.0  0.44406  0.78867  0.98602  1.0000
  H   H438      1.0  0.36689  0.54344  0.57382  1.0000
  H   H439      1.0  0.45398  0.68371  0.65041  1.0000
  H   H440      1.0  0.58584  0.66131  0.57473  1.0000
  S   S76       1.0  0.37326  0.61212  0.91242  1.0000
  H   H441      1.0  0.57352  0.78095  0.52623  1.0000
  C   C254      1.0  0.37171  0.54689  0.99688  1.0000
  C   C255      1.0  0.43630  0.63757  0.68226  1.0000
  H   H442      1.0  0.37466  0.54529  0.93641  1.0000
  H   H443      1.0  0.43772  0.74333  0.72652  1.0000
  H   H444      1.0  0.55045  0.68706  0.51211  1.0000
  H   H445      1.0  0.46050  0.63667  0.69396  1.0000
  C   C256      1.0  0.43759  0.67404  0.67535  1.0000
  C   C257      1.0  0.58752  0.67337  0.54696  1.0000
  H   H446      1.0  0.42719  0.71796  0.78130  1.0000
  H   H447      1.0  0.41084  0.67033  0.66607  1.0000
  C   C258      1.0  0.43707  0.74437  0.66713  1.0000
  H   H448      1.0  0.46314  0.76465  0.66719  1.0000
  H   H449      1.0  0.50767  0.68881  0.74160  1.0000
  H   H450      1.0  0.41812  0.75715  0.66468  1.0000
  H   H451      1.0  0.40203  0.71027  0.70599  1.0000
  H   H452      1.0  0.65196  0.68069  0.52685  1.0000
  C   C259      1.0  0.52339  0.74781  0.54571  1.0000
  H   H453      1.0  0.43404  0.72826  0.64183  1.0000
  H   H454      1.0  0.67433  0.72101  0.54547  1.0000
  C   C260      1.0  0.48717  0.71966  0.70610  1.0000
  H   H455      1.0  0.45148  0.66300  0.74903  1.0000
  H   H456      1.0  0.60670  0.71518  0.60327  1.0000
  S   S77       1.0  0.43208  0.64981  0.00482  1.0000
  H   H457      1.0  0.41463  0.62362  0.70095  1.0000
  H   H458      1.0  0.41057  0.66554  0.74366  1.0000
  N   N19       1.0  0.44894  0.69937  0.70757  1.0000
  H   H459      1.0  0.53840  0.71827  0.71224  1.0000
  C   C261      1.0  0.51123  0.70014  0.71346  1.0000
  S   S78       1.0  0.36835  0.68480  0.60735  1.0000
  C   C262      1.0  0.43041  0.72392  0.70368  1.0000
  C   C263      1.0  0.43853  0.68133  0.74425  1.0000
  H   H460      1.0  0.47222  0.72173  0.78229  1.0000
  H   H461      1.0  0.46397  0.70937  0.95806  1.0000
  C   C264      1.0  0.64802  0.76051  0.58573  1.0000
  H   H462      1.0  0.52898  0.75581  0.57455  1.0000
  C   C265      1.0  0.54874  0.76206  0.51836  1.0000
  C   C266      1.0  0.44508  0.70395  0.77967  1.0000
  H   H463      1.0  0.50829  0.68056  0.69163  1.0000
  C   C267      1.0  0.49081  0.72349  0.53601  1.0000
  H   H464      1.0  0.43116  0.62330  0.65528  1.0000
  S   S79       1.0  0.35867  0.67529  0.83520  1.0000
  C   C268      1.0  0.51284  0.73842  0.98470  1.0000
  H   H465      1.0  0.42701  0.74393  0.97261  1.0000
  N   N20       1.0  0.61833  0.70621  0.54574  1.0000
  S   S80       1.0  0.36856  0.68406  0.94298  1.0000
  H   H466      1.0  0.40920  0.53763  0.95898  1.0000
  C   C269      1.0  0.38116  0.53249  0.96058  1.0000
  H   H467      1.0  0.53160  0.65075  0.54064  1.0000
  C   C270      1.0  0.65057  0.69818  0.54965  1.0000
  H   H468      1.0  0.51998  0.75799  0.96375  1.0000
  H   H469      1.0  0.59463  0.73934  0.57029  1.0000
  C   C271      1.0  0.48099  0.71095  0.98147  1.0000
  H   H470      1.0  0.64219  0.77613  0.60788  1.0000
  H   H471      1.0  0.38627  0.57482  0.99736  1.0000
  S   S81       1.0  0.36472  0.66451  0.51794  1.0000
  H   H472      1.0  0.41353  0.77361  0.94887  1.0000
  Fe  Fe38      1.0  0.35051  0.64970  0.89205  1.0000
  H   H473      1.0  0.65682  0.77698  0.56116  1.0000
  H   H474      1.0  0.64284  0.68873  0.61066  1.0000
  H   H475      1.0  0.34921  0.60574  0.81244  1.0000
  C   C272      1.0  0.42076  0.76697  0.97678  1.0000
  H   H476      1.0  0.54600  0.69194  0.56185  1.0000
  C   C273      1.0  0.34980  0.65346  0.79156  1.0000
  H   H477      1.0  0.34906  0.69730  0.76192  1.0000
  H   H478      1.0  0.66943  0.75331  0.59636  1.0000
  H   H479      1.0  0.66064  0.55452  0.00135  1.0000
  H   H480      1.0  0.59028  0.65431  0.52684  1.0000
  C   C274      1.0  0.61999  0.72418  0.50925  1.0000
  C   C275      1.0  0.65446  0.68092  0.58628  1.0000
  C   C276      1.0  0.39041  0.76156  0.00355  1.0000
  H   H481      1.0  0.64289  0.65279  0.58326  1.0000
  H   H482      1.0  0.38762  0.78670  0.00492  1.0000
  H   H483      1.0  0.35603  0.50844  0.66798  1.0000
  C   C277      1.0  0.47165  0.68528  0.00807  1.0000
  Fe  Fe39      1.0  0.70279  0.30197  0.43758  1.0000
  H   H484      1.0  0.79525  0.43835  0.33471  1.0000
  H   H485      1.0  0.80387  0.36589  0.08164  1.0000
  C   C278      1.0  0.69682  0.33131  0.27902  1.0000
  H   H486      1.0  0.85860  0.26698  0.44980  1.0000
  S   S82       1.0  0.71962  0.34728  0.39989  1.0000
  C   C279      1.0  0.75182  0.50293  0.28156  1.0000
  Fe  Fe40      1.0  0.71339  0.32001  0.03057  1.0000
  C   C280      1.0  0.71556  0.05379  0.01847  1.0000
  H   H487      1.0  0.80359  0.01586  0.43434  1.0000
  S   S83       1.0  0.70111  0.43496  0.01586  1.0000
  S   S84       1.0  0.73548  0.36786  0.06533  1.0000
  C   C281      1.0  0.75870  0.46439  0.48427  1.0000
  H   H488      1.0  0.78540  0.33060  0.17684  1.0000
  S   S85       1.0  0.74423  0.43200  0.44909  1.0000
  H   H489      1.0  0.71806  0.40406  0.24008  1.0000
  H   H490      1.0  0.78325  0.18991  0.49256  1.0000
  H   H491      1.0  0.70986  0.32865  0.30430  1.0000
  C   C282      1.0  0.77325  0.07657  0.04568  1.0000
  H   H492      1.0  0.79927  0.05254  0.08407  1.0000
  C   C283      1.0  0.83131  0.30421  0.50483  1.0000
  H   H493      1.0  0.83455  0.24537  0.12968  1.0000
  C   C284      1.0  0.69926  0.43115  0.28287  1.0000
  H   H494      1.0  0.76837  0.23855  0.14778  1.0000
  H   H495      1.0  0.99637  0.25122  0.22120  1.0000
  H   H496      1.0  0.82055  0.28521  0.48212  1.0000
  C   C285      1.0  0.73957  0.47203  0.01374  1.0000
  C   C286      1.0  0.79940  0.07808  0.07704  1.0000
  S   S86       1.0  0.69493  0.33167  0.48676  1.0000
  H   H497      1.0  0.75058  0.24281  0.10362  1.0000
  C   C287      1.0  0.99936  0.25425  0.48268  1.0000
  C   C288      1.0  0.81420  0.34679  0.09193  1.0000
  H   H498      1.0  0.73805  0.33114  0.24276  1.0000
  H   H499      1.0  0.84049  0.29680  0.08924  1.0000
  H   H500      1.0  0.83167  0.35875  0.11573  1.0000
  H   H501      1.0  0.77837  0.10341  0.03811  1.0000
  H   H502      1.0  0.79550  0.09130  0.10246  1.0000
  H   H503      1.0  0.76702  0.32324  0.12137  1.0000
  Fe  Fe41      1.0  0.69357  0.38278  0.04083  1.0000
  C   C289      1.0  0.75972  0.47140  0.29302  1.0000
  H   H504      1.0  0.74227  0.46674  0.36396  1.0000
  C   C290      1.0  0.73181  0.26327  0.14940  1.0000
  H   H505      1.0  0.71738  0.24014  0.03455  1.0000
  H   H506      1.0  0.76406  0.42544  0.37206  1.0000
  C   C291      1.0  0.68702  0.06649  0.09391  1.0000
  H   H507      1.0  0.75021  0.40507  0.28887  1.0000
  C   C292      1.0  0.75024  0.21108  0.02621  1.0000
  H   H508      1.0  0.76772  0.30412  0.07811  1.0000
  H   H509      1.0  0.78141  0.48086  0.31350  1.0000
  C   C293      1.0  0.74485  0.24732  0.47468  1.0000
  H   H510      1.0  0.74953  0.01333  0.05567  1.0000
  C   C294      1.0  0.76039  0.22338  0.46812  1.0000
  C   C295      1.0  0.80282  0.31809  0.18676  1.0000
  C   C296      1.0  0.81474  0.27646  0.09341  1.0000
  H   H511      1.0  0.82584  0.09278  0.06702  1.0000
  S   S87       1.0  0.71857  0.34044  0.16799  1.0000
  N   N21       1.0  0.79379  0.28738  0.12161  1.0000
  S   S88       1.0  0.73122  0.26506  0.43600  1.0000
  Fe  Fe42      1.0  0.69687  0.33991  0.10897  1.0000
  C   C297      1.0  0.69618  0.33616  0.21086  1.0000
  C   C298      1.0  0.76183  0.25681  0.13000  1.0000
  C   C299      1.0  0.74120  0.41288  0.31531  1.0000
  C   C300      1.0  0.71271  0.33263  0.24406  1.0000
  C   C301      1.0  0.81596  0.29999  0.15608  1.0000
  H   H512      1.0  0.80199  0.27221  0.06556  1.0000
  C   C302      1.0  0.78147  0.49700  0.47419  1.0000
  C   C303      1.0  0.72543  0.07885  0.08316  1.0000
  H   H513      1.0  0.77035  0.46255  0.26826  1.0000
  H   H514      1.0  0.83907  0.24010  0.08066  1.0000
  C   C304      1.0  0.77070  0.41879  0.34392  1.0000
  C   C305      1.0  0.78384  0.31458  0.10351  1.0000
  N   N22       1.0  0.73557  0.05789  0.05457  1.0000
  H   H515      1.0  0.78079  0.06503  0.02078  1.0000
  C   C306      1.0  0.76741  0.47763  0.03829  1.0000
  H   H516      1.0  0.76376  0.21626  0.43973  1.0000
  H   H517      1.0  0.84252  0.31731  0.14872  1.0000
  H   H518      1.0  0.88768  0.24446  0.45672  1.0000
  C   C307      1.0  0.00866  0.26814  0.02970  1.0000
  H   H519      1.0  0.73903  0.27667  0.17651  1.0000
  H   H520      1.0  0.70852  0.47433  0.34020  1.0000
  H   H521      1.0  0.78968  0.30014  0.20921  1.0000
  C   C308      1.0  0.73166  0.02349  0.06997  1.0000
  H   H522      1.0  0.71907  0.39006  0.32413  1.0000
  H   H523      1.0  0.73969  0.08019  0.10980  1.0000
  H   H524      1.0  0.82888  0.34155  0.06845  1.0000
  H   H525      1.0  0.84234  0.22280  0.46186  1.0000
  H   H526      1.0  0.71099  0.23844  0.15511  1.0000
  H   H527      1.0  0.82510  0.33890  0.19956  1.0000
  C   C309      1.0  0.82164  0.24382  0.10227  1.0000
  H   H528      1.0  0.73146  0.49699  0.25974  1.0000
  H   H529      1.0  0.73381  0.10603  0.07490  1.0000
  C   C310      1.0  0.86378  0.24758  0.46674  1.0000
  H   H530      1.0  0.68792  0.03780  0.02164  1.0000
  H   H531      1.0  0.76640  0.45848  0.05851  1.0000
  H   H532      1.0  0.82029  0.27853  0.17009  1.0000
  H   H533      1.0  0.92019  0.30090  0.47015  1.0000
  H   H534      1.0  0.77554  0.39478  0.34682  1.0000
  Fe  Fe43      1.0  0.70724  0.37613  0.44761  1.0000
  H   H535      1.0  0.72009  0.27714  0.13119  1.0000
  H   H536      1.0  0.79763  0.22085  0.10075  1.0000
  H   H537      1.0  0.72330  0.44686  0.22750  1.0000
  C   C311      1.0  0.74103  0.23982  0.02242  1.0000
  C   C312      1.0  0.77156  0.20849  0.49798  1.0000
  H   H538      1.0  0.78964  0.50171  0.44551  1.0000
  H   H539      1.0  0.78004  0.02521  0.39717  1.0000
  N   N23       1.0  0.72995  0.44252  0.30911  1.0000
  H   H540      1.0  0.87944  0.32602  0.47712  1.0000
  H   H541      1.0  0.70496  0.10139  0.01900  1.0000
  H   H542      1.0  0.73354  0.18934  0.04141  1.0000
  H   H543      1.0  0.00310  0.28987  0.03948  1.0000
  C   C313      1.0  0.71951  0.45443  0.34529  1.0000
  H   H544      1.0  0.82292  0.32574  0.49875  1.0000
  S   S89       1.0  0.79148  0.17382  0.01644  1.0000
  H   H545      1.0  0.98653  0.26646  0.46481  1.0000
  H   H546      1.0  0.73930  0.02568  0.09999  1.0000
  C   C314      1.0  0.70657  0.42380  0.24211  1.0000
  H   H547      1.0  0.70159  0.40706  0.37734  1.0000
  C   C315      1.0  0.97969  0.22905  0.50754  1.0000
  H   H548      1.0  0.68173  0.41385  0.22637  1.0000
  C   C316      1.0  0.69209  0.42690  0.36795  1.0000
  C   C317      1.0  0.78075  0.21025  0.01032  1.0000
  H   H549      1.0  0.97160  0.34321  0.49162  1.0000
  C   C318      1.0  0.98303  0.24170  0.00989  1.0000
  C   C319      1.0  0.92257  0.30199  0.50112  1.0000
  H   H550      1.0  0.68634  0.43875  0.39363  1.0000
  H   H551      1.0  0.68145  0.04806  0.11710  1.0000
  H   H552      1.0  0.68644  0.45007  0.28223  1.0000
  H   H553      1.0  0.93875  0.35797  0.50739  1.0000
  C   C320      1.0  0.87115  0.31727  0.50597  1.0000
  Fe  Fe44      1.0  0.81943  0.17283  0.57027  1.0000
  S   S90       1.0  0.83710  0.04333  0.00047  1.0000
  Fe  Fe45      1.0  0.86619  0.15332  0.62413  1.0000
  S   S91       1.0  0.89092  0.13520  0.57673  1.0000
  S   S92       1.0  0.88739  0.15124  0.68279  1.0000
  Fe  Fe46      1.0  0.89262  0.18166  0.54593  1.0000
  C   C321      1.0  0.77462  0.05555  0.66544  1.0000
  Fe  Fe47      1.0  0.83673  0.10974  0.55390  1.0000
  C   C322      1.0  0.88624  0.06517  0.64730  1.0000
  S   S93       1.0  0.87199  0.20195  0.59489  1.0000
  S   S94       1.0  0.81211  0.12529  0.60309  1.0000
  Fe  Fe48      1.0  0.84388  0.09319  0.97117  1.0000
  S   S95       1.0  0.80403  0.11121  0.94692  1.0000
  H   H554      1.0  0.75299  0.48059  0.57699  1.0000
  Fe  Fe49      1.0  0.90217  0.16266  0.96008  1.0000
  S   S96       1.0  0.86618  0.18630  0.93519  1.0000
  S   S97       1.0  0.96115  0.18262  0.96603  1.0000
  Fe  Fe50      1.0  0.82929  0.15915  0.98065  1.0000
  H   H555      1.0  0.95811  0.24327  0.00437  1.0000
  Fe  Fe51      1.0  0.84291  0.13698  0.90250  1.0000
  S   S98       1.0  0.81844  0.13432  0.84444  1.0000
  N   N24       1.0  0.76414  0.20311  0.87892  1.0000
  S   S99       1.0  0.88098  0.11495  0.92424  1.0000
  C   C323      1.0  0.82729  0.24671  0.88744  1.0000
  H   H556      1.0  0.81532  0.03395  0.74542  1.0000
  H   H557      1.0  0.85307  0.24518  0.88286  1.0000
  H   H558      1.0  0.72005  0.16015  0.93718  1.0000
  H   H559      1.0  0.76819  0.04479  0.69375  1.0000
  H   H560      1.0  0.82905  0.26262  0.91277  1.0000
  H   H561      1.0  0.84163  0.26091  0.57892  1.0000
  S   S100      1.0  0.82578  0.05515  0.53352  1.0000
  H   H562      1.0  0.80820  0.20243  0.81771  1.0000
  S   S101      1.0  0.84000  0.15522  0.51942  1.0000
  C   C324      1.0  0.82155  0.01777  0.68870  1.0000
  H   H563      1.0  0.80981  0.28916  0.97217  1.0000
  C   C325      1.0  0.76712  0.21732  0.53476  1.0000
  C   C326      1.0  0.79298  0.26725  0.98705  1.0000
  H   H564      1.0  0.84002  0.24824  0.51969  1.0000
  C   C327      1.0  0.86749  0.14650  0.72733  1.0000
  C   C328      1.0  0.83241  0.14077  0.73157  1.0000
  C   C329      1.0  0.81782  0.13675  0.76754  1.0000
  C   C330      1.0  0.83810  0.13877  0.79973  1.0000
  C   C331      1.0  0.87311  0.14436  0.79544  1.0000
  C   C332      1.0  0.88762  0.14804  0.75946  1.0000
  H   H565      1.0  0.81657  0.13948  0.70718  1.0000
  H   H566      1.0  0.79065  0.13211  0.77041  1.0000
  H   H567      1.0  0.88905  0.14587  0.81982  1.0000
  H   H568      1.0  0.91475  0.15237  0.75652  1.0000
  H   H569      1.0  0.84636  0.08439  0.65955  1.0000
  C   C333      1.0  0.74142  0.49744  0.98779  1.0000
  C   C334      1.0  0.76237  0.26803  0.00274  1.0000
  H   H570      1.0  0.73100  0.43383  0.52976  1.0000
  C   C335      1.0  0.78057  0.19629  0.81069  1.0000
  H   H571      1.0  0.73546  0.20548  0.82925  1.0000
  H   H572      1.0  0.75851  0.15073  0.86705  1.0000
  C   C336      1.0  0.78706  0.02004  0.52347  1.0000
  H   H573      1.0  0.78110  0.27456  0.89788  1.0000
  H   H574      1.0  0.77072  0.01836  0.96077  1.0000
  H   H575      1.0  0.90984  0.32179  0.56947  1.0000
  C   C337      1.0  0.80229  0.23862  0.99107  1.0000
  C   C338      1.0  0.75342  0.25860  0.89609  1.0000
  H   H576      1.0  0.76181  0.15599  0.93766  1.0000
  H   H577      1.0  0.74047  0.26832  0.91804  1.0000
  H   H578      1.0  0.77451  0.24030  0.83438  1.0000
  H   H579      1.0  0.74244  0.26248  0.86901  1.0000
  H   H580      1.0  0.80060  0.20534  0.92291  1.0000
  C   C339      1.0  0.74456  0.16520  0.88159  1.0000
  H   H581      1.0  0.98198  0.19401  0.54960  1.0000
  H   H582      1.0  0.72885  0.27488  0.51688  1.0000
  C   C340      1.0  0.76101  0.48533  0.54828  1.0000
  H   H583      1.0  0.68725  0.18321  0.53357  1.0000
  H   H584      1.0  0.90417  0.09219  0.64753  1.0000
  H   H585      1.0  0.72014  0.49336  0.96856  1.0000
  H   H586      1.0  0.75158  0.21845  0.93317  1.0000
  C   C341      1.0  0.89345  0.29547  0.56081  1.0000
  C   C342      1.0  0.74590  0.22064  0.90315  1.0000
  H   H587      1.0  0.90780  0.27901  0.56955  1.0000
  H   H588      1.0  0.71735  0.20782  0.90003  1.0000
  C   C343      1.0  0.78639  0.03230  0.64004  1.0000
  C   C344      1.0  0.76281  0.21251  0.83860  1.0000
  C   C345      1.0  0.86114  0.28635  0.58536  1.0000
  C   C346      1.0  0.73768  0.15070  0.92143  1.0000
  H   H589      1.0  0.82953  0.01439  0.59342  1.0000
  C   C347      1.0  0.84896  0.06382  0.64208  1.0000
  H   H590      1.0  0.86893  0.28565  0.61495  1.0000
  H   H591      1.0  0.77966  0.20647  0.78241  1.0000
  H   H592      1.0  0.84955  0.30609  0.58392  1.0000
  H   H593      1.0  0.74791  0.24810  0.56979  1.0000
  H   H594      1.0  0.71896  0.15770  0.86730  1.0000
  H   H595      1.0  0.84684  0.07187  0.61299  1.0000
  C   C348      1.0  0.75139  0.24112  0.54138  1.0000
  H   H596      1.0  0.76716  0.16833  0.80852  1.0000
  H   H597      1.0  0.81140  0.19241  0.88014  1.0000
  H   H598      1.0  0.72522  0.03987  0.99743  1.0000
  H   H599      1.0  0.79362  0.08188  0.66745  1.0000
  C   C349      1.0  0.99031  0.21409  0.99585  1.0000
  H   H600      1.0  0.75239  0.04664  0.53183  1.0000
  H   H601      1.0  0.82279  0.25999  0.86280  1.0000
  H   H602      1.0  0.75061  0.05720  0.65353  1.0000
  S   S102      1.0  0.78026  0.19888  0.57319  1.0000
  C   C350      1.0  0.80049  0.21046  0.89262  1.0000
  H   H603      1.0  0.72490  0.12261  0.91936  1.0000
  H   H604      1.0  0.78618  0.04079  0.61066  1.0000
  N   N25       1.0  0.82082  0.02991  0.64930  1.0000
  H   H605      1.0  0.81926  0.29316  0.53140  1.0000
  C   C351      1.0  0.99668  0.21341  0.53036  1.0000
  H   H606      1.0  0.74256  0.10365  0.99234  1.0000
  S   S103      1.0  0.75230  0.30486  0.99718  1.0000
  H   H607      1.0  0.82633  0.23867  0.97969  1.0000
  N   N26       1.0  0.88761  0.29281  0.51910  1.0000
  H   H608      1.0  0.95990  0.33856  0.53944  1.0000
  C   C352      1.0  0.83088  0.04504  0.72039  1.0000
  H   H609      1.0  0.70036  0.08063  0.97457  1.0000
  H   H610      1.0  0.85821  0.05208  0.72939  1.0000
  H   H611      1.0  0.89005  0.05394  0.67392  1.0000
  H   H612      1.0  0.89400  0.05253  0.62358  1.0000
  H   H613      1.0  0.82607  0.06845  0.71427  1.0000
  C   C353      1.0  0.74052  0.25628  0.51149  1.0000
  C   C354      1.0  0.74847  0.45871  0.52154  1.0000
  H   H614      1.0  0.87761  0.23894  0.52245  1.0000
  H   H615      1.0  0.88009  0.34084  0.52355  1.0000
  C   C355      1.0  0.75455  0.02263  0.52438  1.0000
  H   H616      1.0  0.76356  0.50737  0.69836  1.0000
  H   H617      1.0  0.70878  0.50671  0.68559  1.0000
  C   C356      1.0  0.71623  0.08704  0.00053  1.0000
  C   C357      1.0  0.94932  0.33762  0.51079  1.0000
  S   S104      1.0  0.86700  0.13956  0.00792  1.0000
  S   S105      1.0  0.93407  0.21797  0.50846  1.0000
  C   C358      1.0  0.86663  0.25630  0.50885  1.0000
  H   H618      1.0  0.93458  0.28333  0.50860  1.0000
  C   C359      1.0  0.71313  0.56602  0.02481  1.0000
  H   H619      1.0  0.78098  0.62824  0.08352  1.0000
  C   C360      1.0  0.99452  0.76464  0.15497  1.0000
  H   H620      1.0  0.78314  0.84957  0.07589  1.0000
  C   C361      1.0  0.77961  0.84056  0.01620  1.0000
  S   S106      1.0  0.72826  0.86024  0.45239  1.0000
  H   H621      1.0  0.77558  0.99400  0.33523  1.0000
  H   H622      1.0  0.70772  0.66367  0.05978  1.0000
  H   H623      1.0  0.89577  0.76651  0.49867  1.0000
  H   H624      1.0  0.74464  0.90485  0.38359  1.0000
  H   H625      1.0  0.95185  0.69519  0.44830  1.0000
  S   S107      1.0  0.71082  0.84845  0.10525  1.0000
  C   C362      1.0  0.77705  0.74211  0.04524  1.0000
  S   S108      1.0  0.71524  0.83481  0.34526  1.0000
  C   C363      1.0  0.78426  0.61354  0.05902  1.0000
  H   H626      1.0  0.89482  0.71447  0.48085  1.0000
  H   H627      1.0  0.74430  0.51514  0.30577  1.0000
  H   H628      1.0  0.76782  0.93606  0.06004  1.0000
  S   S109      1.0  0.70124  0.91113  0.02008  1.0000
  C   C364      1.0  0.74769  0.75078  0.04122  1.0000
  H   H629      1.0  0.80191  0.92844  0.35840  1.0000
  C   C365      1.0  0.79392  0.52361  0.50087  1.0000
  Fe  Fe52      1.0  0.69344  0.83451  0.40362  1.0000
  C   C366      1.0  0.72939  0.96511  0.30509  1.0000
  H   H630      1.0  0.77712  0.58640  0.06626  1.0000
  H   H631      1.0  0.98519  0.75069  0.18129  1.0000
  H   H632      1.0  0.78788  0.94521  0.31776  1.0000
  C   C367      1.0  0.73947  0.94752  0.01524  1.0000
  H   H633      1.0  0.75204  0.66733  0.06184  1.0000
  H   H634      1.0  0.77451  0.64566  0.01741  1.0000
  C   C368      1.0  0.92244  0.72405  0.47257  1.0000
  C   C369      1.0  0.76433  0.61816  0.02437  1.0000
  S   S110      1.0  0.82332  0.70590  0.49502  1.0000
  Fe  Fe53      1.0  0.70064  0.81159  0.48301  1.0000
  H   H635      1.0  0.68531  0.60469  0.06530  1.0000
  H   H636      1.0  0.97717  0.69261  0.01104  1.0000
  C   C370      1.0  0.76845  0.95367  0.03815  1.0000
  H   H637      1.0  0.81742  0.51263  0.05679  1.0000
  H   H638      1.0  0.75445  0.77315  0.45776  1.0000
  H   H639      1.0  0.81603  0.88128  0.05110  1.0000
  S   S111      1.0  0.73623  0.77246  0.07838  1.0000
  N   N27       1.0  0.74548  0.95555  0.37347  1.0000
  C   C371      1.0  0.69292  0.82874  0.23398  1.0000
  H   H640      1.0  0.72352  0.55561  0.04837  1.0000
  H   H641      1.0  0.90590  0.67338  0.44783  1.0000
  H   H642      1.0  0.81228  0.62334  0.05285  1.0000
  H   H643      1.0  0.97233  0.77028  0.14372  1.0000
  H   H644      1.0  0.86816  0.76450  0.44425  1.0000
  C   C372      1.0  0.77898  0.00582  0.41817  1.0000
  H   H645      1.0  0.79218  0.74895  0.07073  1.0000
  C   C373      1.0  0.71398  0.61420  0.06410  1.0000
  S   S112      1.0  0.83456  0.57288  0.01250  1.0000
  C   C374      1.0  0.99128  0.76990  0.42432  1.0000
  H   H646      1.0  0.93565  0.72086  0.49839  1.0000
  C   C375      1.0  0.79831  0.98288  0.03284  1.0000
  H   H647      1.0  0.80046  0.97601  0.38603  1.0000
  C   C376      1.0  0.76209  0.76097  0.48072  1.0000
  H   H648      1.0  0.86889  0.72421  0.42728  1.0000
  C   C377      1.0  0.91950  0.76646  0.42560  1.0000
  H   H649      1.0  0.77439  0.95346  0.42341  1.0000
  Fe  Fe54      1.0  0.68622  0.86317  0.05562  1.0000
  C   C378      1.0  0.74796  0.98019  0.34243  1.0000
  H   H650      1.0  0.71204  0.97151  0.40939  1.0000
  C   C379      1.0  0.78702  0.72464  0.01656  1.0000
  H   H651      1.0  0.00009  0.74669  0.13586  1.0000
  Fe  Fe55      1.0  0.69558  0.79692  0.07670  1.0000
  H   H652      1.0  0.98336  0.80435  0.46351  1.0000
  C   C380      1.0  0.78016  0.92478  0.33869  1.0000
  Fe  Fe56      1.0  0.68438  0.87551  0.47072  1.0000
  H   H653      1.0  0.77183  0.88037  0.05158  1.0000
  H   H654      1.0  0.77554  0.90034  0.32363  1.0000
  H   H655      1.0  0.72503  0.90812  0.34131  1.0000
  H   H656      1.0  0.92599  0.80564  0.48253  1.0000
  H   H657      1.0  0.82067  0.98744  0.05063  1.0000
  H   H658      1.0  0.72743  0.65747  0.10286  1.0000
  H   H659      1.0  0.81144  0.54847  0.49262  1.0000
  C   C381      1.0  0.71281  0.94821  0.39550  1.0000
  C   C382      1.0  0.78827  0.86496  0.05008  1.0000
  H   H660      1.0  0.92444  0.70488  0.41456  1.0000
  C   C383      1.0  0.79474  0.72739  0.50416  1.0000
  H   H661      1.0  0.79372  0.74172  0.44672  1.0000
  H   H662      1.0  0.76166  0.93615  0.49685  1.0000
  C   C384      1.0  0.74709  0.92230  0.35976  1.0000
  H   H663      1.0  0.74815  0.96311  0.28412  1.0000
  H   H664      1.0  0.69647  0.97216  0.08185  1.0000
  H   H665      1.0  0.98557  0.76703  0.48377  1.0000
  H   H666      1.0  0.73033  0.82023  0.27042  1.0000
  H   H667      1.0  0.01322  0.68760  0.47194  1.0000
  C   C385      1.0  0.92688  0.69851  0.44393  1.0000
  H   H668      1.0  0.70782  0.94036  0.30694  1.0000
  N   N28       1.0  0.93502  0.76102  0.46193  1.0000
  N   N29       1.0  0.72547  0.60426  0.02748  1.0000
  H   H669      1.0  0.92850  0.79415  0.41948  1.0000
  H   H670      1.0  0.71835  0.98308  0.29309  1.0000
  H   H671      1.0  0.98374  0.74275  0.41690  1.0000
  C   C386      1.0  0.72588  0.65282  0.07222  1.0000
  C   C387      1.0  0.87971  0.75216  0.42360  1.0000
  S   S113      1.0  0.68882  0.92834  0.49141  1.0000
  C   C388      1.0  0.92362  0.77987  0.49208  1.0000
  H   H672      1.0  0.87129  0.75724  0.39558  1.0000
  C   C389      1.0  0.72702  0.96285  0.50470  1.0000
  H   H673      1.0  0.71177  0.93019  0.41830  1.0000
  C   C390      1.0  0.97399  0.77614  0.46017  1.0000
  C   C391      1.0  0.69589  0.99466  0.06649  1.0000
  C   C392      1.0  0.78439  0.74319  0.47456  1.0000
  H   H674      1.0  0.92828  0.75525  0.40150  1.0000
  C   C393      1.0  0.69552  0.83723  0.30188  1.0000
  H   H675      1.0  0.72116  0.60157  0.08813  1.0000
  H   H676      1.0  0.77553  0.52210  0.26975  1.0000
  C   C394      1.0  0.70844  0.82819  0.26892  1.0000
  H   H677      1.0  0.01412  0.81817  0.16657  1.0000
  H   H678      1.0  0.70278  0.82118  0.20891  1.0000
  H   H679      1.0  0.80969  0.71818  0.02002  1.0000
  H   H680      1.0  0.75286  0.82192  0.02014  1.0000
  H   H681      1.0  0.73809  0.00007  0.35206  1.0000
  H   H682      1.0  0.98643  0.78406  0.40040  1.0000
  C   C395      1.0  0.75948  0.96011  0.50443  1.0000
  H   H683      1.0  0.68970  0.98608  0.03701  1.0000
  C   C396      1.0  0.77546  0.97125  0.40024  1.0000
  C   C397      1.0  0.79814  0.53385  0.01138  1.0000
  H   H684      1.0  0.75832  0.00347  0.43852  1.0000
  H   H685      1.0  0.99759  0.81693  0.10227  1.0000
  H   H686      1.0  0.79688  0.82601  0.01927  1.0000
  C   C398      1.0  0.79632  0.50845  0.03729  1.0000
  H   H687      1.0  0.00824  0.80954  0.05548  1.0000
  H   H688      1.0  0.81459  0.92079  0.00905  1.0000
  Fe  Fe57      1.0  0.84182  0.67731  0.53843  1.0000
  C   C399      1.0  0.77936  0.61500  0.68278  1.0000
  Fe  Fe58      1.0  0.86318  0.66847  0.61852  1.0000
  S   S114      1.0  0.88327  0.62785  0.60164  1.0000
  S   S115      1.0  0.86054  0.68944  0.67699  1.0000
  Fe  Fe59      1.0  0.90668  0.66133  0.55244  1.0000
  C   C400      1.0  0.93759  0.72015  0.85130  1.0000
  Fe  Fe60      1.0  0.83463  0.60626  0.56644  1.0000
  S   S116      1.0  0.79897  0.55045  0.57312  1.0000
  S   S117      1.0  0.89022  0.70368  0.57195  1.0000
  S   S118      1.0  0.81335  0.64546  0.58607  1.0000
  Fe  Fe61      1.0  0.84698  0.61821  0.97333  1.0000
  S   S119      1.0  0.81243  0.62048  0.92614  1.0000
  H   H689      1.0  0.78382  0.63418  0.66055  1.0000
  Fe  Fe62      1.0  0.90137  0.68958  0.95686  1.0000
  S   S120      1.0  0.86872  0.69649  0.90934  1.0000
  S   S121      1.0  0.95307  0.73498  0.96189  1.0000
  Fe  Fe63      1.0  0.82323  0.67403  0.94706  1.0000
  H   H690      1.0  0.76107  0.89353  0.99571  1.0000
  Fe  Fe64      1.0  0.86094  0.64298  0.89251  1.0000
  S   S122      1.0  0.87050  0.62500  0.83462  1.0000
  H   H691      1.0  0.76882  0.52614  0.65456  1.0000
  S   S123      1.0  0.89524  0.63670  0.93843  1.0000
  H   H692      1.0  0.93684  0.65744  0.87171  1.0000
  H   H693      1.0  0.74571  0.80954  0.95439  1.0000
  C   C401      1.0  0.78438  0.54305  0.76786  1.0000
  H   H694      1.0  0.72327  0.54542  0.71043  1.0000
  C   C402      1.0  0.71584  0.60750  0.95663  1.0000
  H   H695      1.0  0.96983  0.80465  0.52759  1.0000
  H   H696      1.0  0.79623  0.99779  0.69561  1.0000
  H   H697      1.0  0.81139  0.59374  0.74804  1.0000
  H   H698      1.0  0.84843  0.57428  0.71147  1.0000
  H   H699      1.0  0.72328  0.55790  0.99932  1.0000
  H   H700      1.0  0.80761  0.95128  0.60543  1.0000
  H   H701      1.0  0.92840  0.76780  0.85877  1.0000
  H   H702      1.0  0.97370  0.65309  0.89312  1.0000
  C   C403      1.0  0.96752  0.70228  0.80005  1.0000
  H   H703      1.0  0.79005  0.95810  0.64894  1.0000
  C   C404      1.0  0.86462  0.67190  0.72068  1.0000
  C   C405      1.0  0.87931  0.64715  0.72411  1.0000
  C   C406      1.0  0.88141  0.63348  0.75934  1.0000
  C   C407      1.0  0.86887  0.64438  0.79144  1.0000
  C   C408      1.0  0.85486  0.66962  0.78817  1.0000
  C   C409      1.0  0.85284  0.68335  0.75295  1.0000
  H   H704      1.0  0.88907  0.63860  0.69961  1.0000
  H   H705      1.0  0.89256  0.61415  0.76171  1.0000
  H   H706      1.0  0.84507  0.67819  0.81264  1.0000
  H   H707      1.0  0.84164  0.70266  0.75060  1.0000
  H   H708      1.0  0.76301  0.51896  0.76040  1.0000
  H   H709      1.0  0.96855  0.64844  0.84364  1.0000
  H   H710      1.0  0.94506  0.76150  0.54047  1.0000
  H   H711      1.0  0.68236  0.68854  0.59323  1.0000
  H   H712      1.0  0.86356  0.54272  0.66271  1.0000
  C   C410      1.0  0.99484  0.70610  0.52051  1.0000
  H   H713      1.0  0.74029  0.90612  0.93940  1.0000
  H   H714      1.0  0.76648  0.57862  0.74160  1.0000
  C   C411      1.0  0.78247  0.72938  0.54003  1.0000
  H   H715      1.0  0.78114  0.90501  0.92583  1.0000
  H   H716      1.0  0.79034  0.71742  0.56304  1.0000
  C   C412      1.0  0.82640  0.55331  0.69832  1.0000
  H   H717      1.0  0.78680  0.78694  0.92531  1.0000
  C   C413      1.0  0.76749  0.71545  0.98364  1.0000
  H   H718      1.0  0.80863  0.53846  0.77273  1.0000
  H   H719      1.0  0.83802  0.86904  0.98223  1.0000
  H   H720      1.0  0.73040  0.85495  0.98024  1.0000
  H   H721      1.0  0.70166  0.57996  0.95151  1.0000
  C   C414      1.0  0.73815  0.72415  0.97958  1.0000
  C   C415      1.0  0.76463  0.53113  0.68440  1.0000
  S   S124      1.0  0.95842  0.66781  0.52537  1.0000
  C   C416      1.0  0.94336  0.78524  0.52970  1.0000
  C   C417      1.0  0.71051  0.61858  0.99650  1.0000
  H   H722      1.0  0.81430  0.98623  0.51308  1.0000
  C   C418      1.0  0.72837  0.53297  0.68512  1.0000
  S   S125      1.0  0.85586  0.67107  0.99603  1.0000
  C   C419      1.0  0.00772  0.77623  0.87165  1.0000
  C   C420      1.0  0.00151  0.73355  0.54535  1.0000
  N   N30       1.0  0.79417  0.56180  0.69886  1.0000
  H   H723      1.0  0.99221  0.69966  0.79176  1.0000
  N   N31       1.0  0.97179  0.72036  0.83735  1.0000
  C   C421      1.0  0.75689  0.87330  0.97452  1.0000
  C   C422      1.0  0.79982  0.59193  0.67375  1.0000
  H   H724      1.0  0.92842  0.71659  0.77073  1.0000
  H   H725      1.0  0.75123  0.60087  0.68413  1.0000
  H   H726      1.0  0.78874  0.62965  0.70911  1.0000
  H   H727      1.0  0.71826  0.96645  0.96944  1.0000
  H   H728      1.0  0.82298  0.53026  0.71496  1.0000
  H   H729      1.0  0.79413  0.58357  0.64408  1.0000
  H   H730      1.0  0.93849  0.72286  0.88224  1.0000
  C   C423      1.0  0.81939  0.87991  0.97084  1.0000
  C   C424      1.0  0.75533  0.88927  0.93637  1.0000
  H   H731      1.0  0.75118  0.74894  0.57412  1.0000
  C   C425      1.0  0.78905  0.57091  0.73869  1.0000
  H   H732      1.0  0.72191  0.64687  0.99720  1.0000
  C   C426      1.0  0.83023  0.91690  0.98597  1.0000
  H   H733      1.0  0.83075  0.93465  0.96313  1.0000
  C   C427      1.0  0.98555  0.70135  0.86480  1.0000
  H   H734      1.0  0.82325  0.82146  0.94308  1.0000
  C   C428      1.0  0.74054  0.97107  0.98736  1.0000
  C   C429      1.0  0.96470  0.66291  0.86812  1.0000
  C   C430      1.0  0.79780  0.96879  0.62085  1.0000
  C   C431      1.0  0.92507  0.74810  0.83677  1.0000
  H   H735      1.0  0.74143  0.86955  0.91526  1.0000
  C   C432      1.0  0.79583  0.80587  0.94853  1.0000
  H   H736      1.0  0.77489  0.96886  0.60488  1.0000
  H   H737      1.0  0.84277  0.56739  0.64021  1.0000
  C   C433      1.0  0.77020  0.00051  0.98239  1.0000
  H   H738      1.0  0.98403  0.73179  0.56817  1.0000
  C   C434      1.0  0.77278  0.82738  0.94979  1.0000
  H   H739      1.0  0.94802  0.67596  0.80170  1.0000
  N   N32       1.0  0.78281  0.85622  0.97810  1.0000
  H   H740      1.0  0.97275  0.74460  0.76139  1.0000
  H   H741      1.0  0.85721  0.92543  0.99666  1.0000
  C   C435      1.0  0.76025  0.74724  0.54621  1.0000
  S   S126      1.0  0.77828  0.69263  0.94714  1.0000
  C   C436      1.0  0.95537  0.71818  0.76701  1.0000
  H   H742      1.0  0.82741  0.60925  0.67409  1.0000
  S   S127      1.0  0.72238  0.78558  0.52610  1.0000
  H   H743      1.0  0.77783  0.55191  0.79509  1.0000
  H   H744      1.0  0.69973  0.99657  0.51536  1.0000
  H   H745      1.0  0.70581  0.62140  0.93636  1.0000
  H   H746      1.0  0.72286  0.71709  0.95421  1.0000
  H   H747      1.0  0.79390  0.79090  0.97414  1.0000
  H   H748      1.0  0.77328  0.83707  0.92100  1.0000
  H   H749      1.0  0.98677  0.71204  0.89358  1.0000
  C   C437      1.0  0.72473  0.99419  0.51499  1.0000
  H   H750      1.0  0.82400  0.88210  0.94018  1.0000
  C   C438      1.0  0.77067  0.52794  0.98625  1.0000
  H   H751      1.0  0.92955  0.79470  0.55092  1.0000
  H   H752      1.0  0.91681  0.69516  0.84519  1.0000
  C   C439      1.0  0.99290  0.74169  0.98546  1.0000
  H   H753      1.0  0.95504  0.70307  0.74134  1.0000
  H   H754      1.0  0.77183  0.54694  0.96581  1.0000
  C   C440      1.0  0.78928  0.98855  0.51374  1.0000
  H   H755      1.0  0.89682  0.73662  0.83128  1.0000
  H   H756      1.0  0.93687  0.76049  0.81068  1.0000
  H   H757      1.0  0.74351  0.61415  0.95037  1.0000
  C   C441      1.0  0.83847  0.54610  0.65959  1.0000
  H   H758      1.0  0.70564  0.74832  0.00473  1.0000
  H   H759      1.0  0.82017  0.52233  0.64667  1.0000
  H   H760      1.0  0.85073  0.00067  0.62910  1.0000
  C   C442      1.0  0.78380  0.51793  0.53815  1.0000
  H   H761      1.0  0.76517  0.00705  0.64167  1.0000
  C   C443      1.0  0.75008  0.76321  0.51666  1.0000
  S   S128      1.0  0.85952  0.63644  0.51611  1.0000
  H   H762      1.0  0.84089  0.00535  0.69104  1.0000
  H   H763      1.0  0.72384  0.54584  0.65985  1.0000
  C   C444      1.0  0.79926  0.00655  0.00514  1.0000
  C   C445      1.0  0.99867  0.75574  0.83459  1.0000
  H   H764      1.0  0.01253  0.70420  0.85783  1.0000
  H   H765      1.0  0.98447  0.77588  0.88686  1.0000
  H   H766      1.0  0.99125  0.77154  0.81445  1.0000
  H   H767      1.0  0.77267  0.60582  0.00066  1.0000
  C   C446      1.0  0.82633  0.00458  0.62242  1.0000
  C   C447      1.0  0.99795  0.71695  0.00779  1.0000
  H   H768      1.0  0.68235  0.61231  0.00034  1.0000
  C   C448      1.0  0.72836  0.74190  0.00813  1.0000
