data_image0
_chemical_formula_structural       HC3H2CHCH5SHCHCNH3CH5FeSH6CHC2HCH6CHC2H2C3H4NSNC2H4CSH4CH3CH3CHCHSHNH2CSHC2H2C2HCH8CH4CHC4HFeCH2CH2CH3FeHC3SHSH2NH2CH2CH2CSC4H7CH2CFeCH4SC2HC3FeCH2C2HSC2HCHCHFeNHC2H2CHCH2NH9CFeH7CSHCHC2HCS3CH4CSHSFeHSHCFeSCFeS2FeSFeS3HC2H6C2HCH3NC2HCHC2HSFeHCH2SNH2C6H3CHCH2CH2C2HNH2CHC2SHCH2SHC3H4SHCH2CH3CHSCH3FeH5CHC3SHCH2C3HCSCHCHCH9CSH2S2H2CHCH4S2FeSCH2CHSH2SHFeSHSH2C2SHC2H3C2H4CHC6H4CH2SFeHSHC2HC4NSHC2H2C2H8SH2CHCH2FeHC2FeHFeNC6H14C2H2C2H3CH5CH2FeHFeNH2FeCSHCHCSCHCFeH2CH4C2FeC4HFeCH7NH6SC2SHCFeSCHCSCSH2CFeCH4CH4CH10CHCHC2H2CHCH5CFeS2FeHFeSCSFeS2FeS2FeSFeS3FeS4HFeSFeSHS2FeS2FeNFeSHSC6H4CHC6H10C6H4C6H2CHC6H4C6H4FeHCHC4SH3CH3C2HNHC3HC2H14NCHC2H2CH3CH4CH3C2H7S2CNC8H15C2SHC3H3CHCH2CHCH12NH2CHCHNCH2C2HC2H3SCH2SH5CHFeH4CH4Fe2SHCHS2FeSHFeSCFeS2FeS2FeSFeS3HSC6H4C6H6SHC6H4SC6H3SH4NC5HCH18FeH6S2CH2CHCH4CHCH2CHCH2C2FeHCH2SH2CNHC2SCH2NFe3SCHC2H3CH2CH2CH2FeHCFe2HCHCHFeSC4H2CH2SCHC4HC3SH6CNH2SCH3C3HCHCH3CH3C6SH2C2HCH5C2H4CH3CHCH5NH2CSH5SHNHCH2CH7CSCSH2CH3CH5C2SCH2CH2NSCH3NH3CHC2H7CHCNSHC3H2CHCH8C2HC3H3CFeHC2H3C2H2SCFeHSHC2H5C2H3CH2C3SHC2HC2HCHCH2SHCNCHFeH7CHNCH2CSC3HSH6CH3CH4C4H2SH2C3H3CH2FeSHNC2H3CHCH6CHSCH8
_chemical_formula_sum              "H768 C448 S128 N32 Fe64"
_cell_length_a       40.0637
_cell_length_b       39.8151
_cell_length_c       62.6805
_cell_angle_alpha    87.5063
_cell_angle_beta     87.508
_cell_angle_gamma    105.28

_space_group_name_H-M_alt    "P 1"
_space_group_IT_number       1

loop_
  _space_group_symop_operation_xyz
  'x, y, z'

loop_
  _atom_site_type_symbol
  _atom_site_label
  _atom_site_symmetry_multiplicity
  _atom_site_fract_x
  _atom_site_fract_y
  _atom_site_fract_z
  _atom_site_occupancy
  H   H1        1.0  0.36960  0.46816  0.02212  1.0000
  C   C1        1.0  0.29847  0.44061  0.03886  1.0000
  C   C2        1.0  0.31726  0.49243  0.01473  1.0000
  C   C3        1.0  0.28081  0.39545  0.00264  1.0000
  H   H2        1.0  0.30587  0.44272  0.07305  1.0000
  H   H3        1.0  0.29551  0.41213  0.04134  1.0000
  C   C4        1.0  0.35013  0.44716  0.01489  1.0000
  H   H4        1.0  0.34576  0.45552  0.05729  1.0000
  C   C5        1.0  0.29059  0.43567  0.00069  1.0000
  H   H5        1.0  0.27175  0.44393  0.04060  1.0000
  H   H6        1.0  0.20918  0.47871  0.13643  1.0000
  H   H7        1.0  0.35041  0.42278  0.02422  1.0000
  H   H8        1.0  0.39165  0.44116  0.99341  1.0000
  H   H9        1.0  0.38731  0.44888  0.30251  1.0000
  S   S1        1.0  0.21280  0.47020  0.02982  1.0000
  H   H10       1.0  0.05854  0.35080  0.98845  1.0000
  C   C6        1.0  0.31853  0.45715  0.05801  1.0000
  H   H11       1.0  0.26579  0.44339  0.00176  1.0000
  C   C7        1.0  0.43836  0.49213  0.04364  1.0000
  N   N1        1.0  0.31478  0.45391  0.01687  1.0000
  H   H12       1.0  0.09477  0.41212  0.98443  1.0000
  H   H13       1.0  0.27025  0.38517  0.98740  1.0000
  H   H14       1.0  0.24605  0.47393  0.06923  1.0000
  C   C8        1.0  0.36475  0.44329  0.99222  1.0000
  H   H15       1.0  0.26007  0.38528  0.01543  1.0000
  H   H16       1.0  0.35012  0.41914  0.98513  1.0000
  H   H17       1.0  0.22057  0.49021  0.17956  1.0000
  H   H18       1.0  0.30139  0.44362  0.98413  1.0000
  H   H19       1.0  0.30327  0.38503  0.00585  1.0000
  Fe  Fe1       1.0  0.20459  0.48240  0.99545  1.0000
  S   S2        1.0  0.17362  0.43886  0.97717  1.0000
  H   H20       1.0  0.31797  0.48460  0.05959  1.0000
  H   H21       1.0  0.26459  0.49007  0.18268  1.0000
  H   H22       1.0  0.00127  0.40716  0.97944  1.0000
  H   H23       1.0  0.02605  0.46552  0.98717  1.0000
  H   H24       1.0  0.45131  0.47423  0.05089  1.0000
  H   H25       1.0  0.36603  0.46577  0.98101  1.0000
  C   C9        1.0  0.24523  0.49093  0.17061  1.0000
  H   H26       1.0  0.24251  0.46713  0.16156  1.0000
  C   C10       1.0  0.07592  0.40230  0.97282  1.0000
  C   C11       1.0  0.05529  0.36764  0.97512  1.0000
  H   H27       1.0  0.46242  0.49224  0.01210  1.0000
  C   C12       1.0  0.00988  0.48088  0.97955  1.0000
  H   H28       1.0  0.24623  0.49670  0.11885  1.0000
  H   H29       1.0  0.19438  0.48253  0.09932  1.0000
  H   H30       1.0  0.29108  0.49682  0.01715  1.0000
  H   H31       1.0  0.46469  0.37716  0.97265  1.0000
  H   H32       1.0  0.99493  0.49071  0.99195  1.0000
  H   H33       1.0  0.09186  0.41680  0.37957  1.0000
  C   C13       1.0  0.07927  0.38688  0.40980  1.0000
  H   H34       1.0  0.41300  0.41000  0.46444  1.0000
  C   C14       1.0  0.31860  0.39878  0.44934  1.0000
  C   C15       1.0  0.34704  0.39836  0.43561  1.0000
  H   H35       1.0  0.30202  0.37454  0.45647  1.0000
  H   H36       1.0  0.35235  0.37383  0.43218  1.0000
  C   C16       1.0  0.06187  0.36793  0.47107  1.0000
  C   C17       1.0  0.36237  0.46142  0.43158  1.0000
  C   C18       1.0  0.09813  0.37598  0.46878  1.0000
  H   H37       1.0  0.11055  0.35645  0.46353  1.0000
  H   H38       1.0  0.09030  0.44234  0.43739  1.0000
  H   H39       1.0  0.44053  0.46705  0.37045  1.0000
  H   H40       1.0  0.12657  0.36411  0.53391  1.0000
  N   N2        1.0  0.47656  0.36627  0.45092  1.0000
  S   S3        1.0  0.40652  0.42906  0.41151  1.0000
  N   N3        1.0  0.04975  0.35163  0.54202  1.0000
  C   C19       1.0  0.07806  0.37995  0.53024  1.0000
  C   C20       1.0  0.01663  0.35071  0.53118  1.0000
  H   H41       1.0  0.46648  0.41616  0.44210  1.0000
  H   H42       1.0  0.00714  0.28021  0.54658  1.0000
  H   H43       1.0  0.46162  0.48610  0.31017  1.0000
  H   H44       1.0  0.13982  0.42584  0.42419  1.0000
  C   C21       1.0  0.11850  0.40860  0.47416  1.0000
  S   S4        1.0  0.45393  0.49363  0.45154  1.0000
  H   H45       1.0  0.07973  0.37465  0.51306  1.0000
  H   H46       1.0  0.07236  0.40577  0.53089  1.0000
  H   H47       1.0  0.32803  0.48617  0.44833  1.0000
  H   H48       1.0  0.36270  0.46963  0.36230  1.0000
  C   C22       1.0  0.04806  0.35956  0.56530  1.0000
  H   H49       1.0  0.03623  0.28559  0.56839  1.0000
  H   H50       1.0  0.06016  0.31242  0.52176  1.0000
  H   H51       1.0  0.05279  0.38824  0.56674  1.0000
  C   C23       1.0  0.05873  0.31753  0.53912  1.0000
  H   H52       1.0  0.01946  0.34540  0.51396  1.0000
  H   H53       1.0  0.06966  0.38878  0.42642  1.0000
  H   H54       1.0  0.47171  0.36261  0.48578  1.0000
  C   C24       1.0  0.11867  0.48178  0.38725  1.0000
  H   H55       1.0  0.44660  0.32751  0.43104  1.0000
  C   C25       1.0  0.33307  0.46171  0.44464  1.0000
  H   H56       1.0  0.41871  0.28297  0.45890  1.0000
  S   S5        1.0  0.27721  0.43023  0.47230  1.0000
  H   H57       1.0  0.06935  0.35223  0.57363  1.0000
  N   N4        1.0  0.43021  0.48685  0.33920  1.0000
  H   H58       1.0  0.04277  0.26156  0.54600  1.0000
  H   H59       1.0  0.05409  0.44541  0.48875  1.0000
  C   C26       1.0  0.04601  0.39330  0.47783  1.0000
  S   S6        1.0  0.03760  0.32548  0.46631  1.0000
  H   H60       1.0  0.14619  0.41587  0.38029  1.0000
  C   C27       1.0  0.45840  0.32907  0.44684  1.0000
  C   C28       1.0  0.14345  0.44441  0.40992  1.0000
  H   H61       1.0  0.35716  0.42605  0.32389  1.0000
  H   H62       1.0  0.05860  0.42624  0.39549  1.0000
  C   C29       1.0  0.01370  0.34237  0.57856  1.0000
  C   C30       1.0  0.08469  0.42146  0.39632  1.0000
  H   H63       1.0  0.10313  0.37774  0.40996  1.0000
  C   C31       1.0  0.11505  0.38558  0.53808  1.0000
  H   H64       1.0  0.26074  0.48824  0.39923  1.0000
  H   H65       1.0  0.13199  0.40957  0.52960  1.0000
  H   H66       1.0  0.06713  0.47601  0.37438  1.0000
  H   H67       1.0  0.01978  0.40540  0.52121  1.0000
  H   H68       1.0  0.41870  0.37214  0.47854  1.0000
  H   H69       1.0  0.00309  0.39323  0.54851  1.0000
  H   H70       1.0  0.99597  0.32011  0.57147  1.0000
  H   H71       1.0  0.08472  0.31846  0.54492  1.0000
  C   C32       1.0  0.40840  0.45123  0.33440  1.0000
  H   H72       1.0  0.12914  0.47311  0.37233  1.0000
  H   H73       1.0  0.11627  0.38969  0.55543  1.0000
  H   H74       1.0  0.36644  0.47160  0.32093  1.0000
  H   H75       1.0  0.39750  0.43523  0.34938  1.0000
  C   C33       1.0  0.37404  0.48423  0.49414  1.0000
  H   H76       1.0  0.41662  0.48178  0.51508  1.0000
  C   C34       1.0  0.39711  0.46453  0.50563  1.0000
  C   C35       1.0  0.03442  0.28478  0.55081  1.0000
  C   C36       1.0  0.31144  0.43039  0.45379  1.0000
  C   C37       1.0  0.42891  0.31043  0.46320  1.0000
  H   H77       1.0  0.14638  0.41379  0.47336  1.0000
  Fe  Fe2       1.0  0.44789  0.47647  0.41820  1.0000
  C   C38       1.0  0.36919  0.42969  0.42696  1.0000
  H   H78       1.0  0.38149  0.44206  0.51594  1.0000
  H   H79       1.0  0.40698  0.32251  0.46283  1.0000
  C   C39       1.0  0.10271  0.43357  0.48164  1.0000
  H   H80       1.0  0.47258  0.01869  0.48131  1.0000
  H   H81       1.0  0.42473  0.43600  0.32670  1.0000
  C   C40       1.0  0.06642  0.42604  0.48317  1.0000
  H   H82       1.0  0.01807  0.38754  0.47927  1.0000
  H   H83       1.0  0.31340  0.45818  0.51397  1.0000
  H   H84       1.0  0.99935  0.36206  0.58203  1.0000
  Fe  Fe3       1.0  0.25093  0.47294  0.46684  1.0000
  H   H85       1.0  0.41160  0.45368  0.49341  1.0000
  C   C41       1.0  0.08814  0.49624  0.38095  1.0000
  C   C42       1.0  0.43262  0.39624  0.46912  1.0000
  C   C43       1.0  0.30662  0.49323  0.53795  1.0000
  S   S7        1.0  0.20147  0.46409  0.45001  1.0000
  H   H86       1.0  0.05920  0.36623  0.40269  1.0000
  S   S8        1.0  0.12759  0.47353  0.49015  1.0000
  H   H87       1.0  0.43249  0.37939  0.43691  1.0000
  H   H88       1.0  0.01977  0.33249  0.59438  1.0000
  N   N5        1.0  0.11019  0.45267  0.40443  1.0000
  H   H89       1.0  0.47085  0.43620  0.34512  1.0000
  H   H90       1.0  0.06749  0.46569  0.42178  1.0000
  C   C44       1.0  0.45480  0.48212  0.35599  1.0000
  H   H91       1.0  0.16209  0.46823  0.41492  1.0000
  H   H92       1.0  0.45064  0.41369  0.47941  1.0000
  C   C45       1.0  0.00388  0.38402  0.53215  1.0000
  H   H93       1.0  0.37961  0.48574  0.42508  1.0000
  H   H94       1.0  0.18167  0.45402  0.38255  1.0000
  C   C46       1.0  0.09402  0.46312  0.42441  1.0000
  S   S9        1.0  0.23093  0.49557  0.49522  1.0000
  C   C47       1.0  0.37851  0.44982  0.31947  1.0000
  C   C48       1.0  0.38280  0.49250  0.36715  1.0000
  C   C49       1.0  0.48250  0.46344  0.34920  1.0000
  C   C50       1.0  0.16326  0.43159  0.39164  1.0000
  H   H95       1.0  0.39546  0.48486  0.38119  1.0000
  H   H96       1.0  0.17817  0.41426  0.39856  1.0000
  H   H97       1.0  0.99488  0.32886  0.53760  1.0000
  H   H98       1.0  0.35449  0.46453  0.48594  1.0000
  H   H99       1.0  0.43780  0.30954  0.47966  1.0000
  H   H100      1.0  0.34429  0.46446  0.53398  1.0000
  H   H101      1.0  0.29202  0.47208  0.54961  1.0000
  C   C51       1.0  0.45223  0.38951  0.44868  1.0000
  H   H102      1.0  0.47734  0.31306  0.44590  1.0000
  H   H103      1.0  0.30369  0.48314  0.37053  1.0000
  C   C52       1.0  0.33062  0.47858  0.52318  1.0000
  Fe  Fe4       1.0  0.18320  0.49121  0.47687  1.0000
  C   C53       1.0  0.49202  0.36923  0.47254  1.0000
  H   H104      1.0  0.13966  0.49484  0.43965  1.0000
  H   H105      1.0  0.48594  0.35398  0.40489  1.0000
  H   H106      1.0  0.47626  0.39549  0.40831  1.0000
  H   H107      1.0  0.40594  0.33585  0.92615  1.0000
  S   S10       1.0  0.38461  0.39820  0.93629  1.0000
  C   C54       1.0  0.31520  0.37527  0.93218  1.0000
  C   C55       1.0  0.41163  0.31172  0.93234  1.0000
  H   H108      1.0  0.48447  0.33951  0.88912  1.0000
  C   C56       1.0  0.30164  0.43925  0.93992  1.0000
  C   C57       1.0  0.33579  0.43603  0.93992  1.0000
  C   C58       1.0  0.34257  0.40394  0.93609  1.0000
  Fe  Fe5       1.0  0.42871  0.44584  0.93901  1.0000
  C   C59       1.0  0.27442  0.41047  0.93582  1.0000
  H   H109      1.0  0.39252  0.28983  0.92558  1.0000
  H   H110      1.0  0.44741  0.29350  0.91191  1.0000
  C   C60       1.0  0.04680  0.41139  0.94095  1.0000
  C   C61       1.0  0.47297  0.36915  0.93892  1.0000
  H   H111      1.0  0.04368  0.42816  0.92755  1.0000
  S   S11       1.0  0.23153  0.41324  0.93506  1.0000
  C   C62       1.0  0.10941  0.32269  0.91150  1.0000
  C   C63       1.0  0.16372  0.36805  0.90121  1.0000
  H   H112      1.0  0.44848  0.37660  0.93725  1.0000
  C   C64       1.0  0.02634  0.37674  0.94320  1.0000
  H   H113      1.0  0.32025  0.35045  0.92921  1.0000
  C   C65       1.0  0.07429  0.31034  0.92448  1.0000
  H   H114      1.0  0.19349  0.34044  0.92120  1.0000
  Fe  Fe6       1.0  0.15179  0.47954  0.96183  1.0000
  N   N6        1.0  0.12967  0.35985  0.91421  1.0000
  H   H115      1.0  0.43889  0.38642  0.90376  1.0000
  C   C66       1.0  0.13516  0.36799  0.93729  1.0000
  C   C67       1.0  0.18674  0.34294  0.90442  1.0000
  H   H116      1.0  0.08356  0.37872  0.91419  1.0000
  H   H117      1.0  0.10222  0.37654  0.88832  1.0000
  C   C68       1.0  0.44862  0.30864  0.92652  1.0000
  H   H118      1.0  0.26039  0.35632  0.92863  1.0000
  C   C69       1.0  0.10878  0.38303  0.90503  1.0000
  H   H119      1.0  0.10426  0.31867  0.89433  1.0000
  H   H120      1.0  0.21175  0.35392  0.89504  1.0000
  N   N7        1.0  0.47708  0.34224  0.92350  1.0000
  H   H121      1.0  0.05488  0.32331  0.91855  1.0000
  H   H122      1.0  0.10691  0.43668  0.89876  1.0000
  H   H123      1.0  0.14909  0.43092  0.89356  1.0000
  H   H124      1.0  0.18005  0.39439  0.90446  1.0000
  H   H125      1.0  0.06327  0.28198  0.92273  1.0000
  H   H126      1.0  0.15927  0.36907  0.88378  1.0000
  H   H127      1.0  0.07695  0.31395  0.94182  1.0000
  H   H128      1.0  0.12417  0.30372  0.91574  1.0000
  H   H129      1.0  0.15411  0.39382  0.93836  1.0000
  C   C70       1.0  0.28132  0.37860  0.93185  1.0000
  Fe  Fe7       1.0  0.21698  0.45616  0.95210  1.0000
  H   H130      1.0  0.40590  0.30845  0.94992  1.0000
  H   H131      1.0  0.42561  0.34489  0.89130  1.0000
  H   H132      1.0  0.14589  0.31628  0.94546  1.0000
  H   H133      1.0  0.35668  0.45827  0.94293  1.0000
  H   H134      1.0  0.11100  0.37132  0.94521  1.0000
  H   H135      1.0  0.17521  0.31697  0.89830  1.0000
  H   H136      1.0  0.13203  0.43188  0.92076  1.0000
  C   C71       1.0  0.12568  0.42273  0.90461  1.0000
  S   S12       1.0  0.09593  0.46817  0.95283  1.0000
  H   H137      1.0  0.29642  0.46399  0.94281  1.0000
  C   C72       1.0  0.14772  0.34198  0.95188  1.0000
  H   H138      1.0  0.45395  0.38205  0.87726  1.0000
  C   C73       1.0  0.07165  0.42427  0.95572  1.0000
  C   C74       1.0  0.03025  0.35485  0.96041  1.0000
  H   H139      1.0  0.45457  0.29186  0.93974  1.0000
  C   C75       1.0  0.44735  0.36821  0.89329  1.0000
  S   S13       1.0  0.47660  0.45672  0.91717  1.0000
  S   S14       1.0  0.45702  0.45281  0.96919  1.0000
  S   S15       1.0  0.19306  0.49376  0.93513  1.0000
  C   C76       1.0  0.47461  0.35896  0.96280  1.0000
  H   H140      1.0  0.13189  0.33691  0.96727  1.0000
  H   H141      1.0  0.00427  0.45274  0.95097  1.0000
  H   H142      1.0  0.17507  0.35343  0.95571  1.0000
  H   H143      1.0  0.45875  0.33216  0.96737  1.0000
  C   C77       1.0  0.47946  0.35788  0.90093  1.0000
  S   S16       1.0  0.00437  0.31151  0.96392  1.0000
  H   H144      1.0  0.00792  0.36690  0.93144  1.0000
  S   S17       1.0  0.25012  0.49625  0.97160  1.0000
  Fe  Fe8       1.0  0.36091  0.62731  0.27567  1.0000
  H   H145      1.0  0.35038  0.66941  0.04202  1.0000
  S   S18       1.0  0.34530  0.64474  0.24386  1.0000
  H   H146      1.0  0.23196  0.54475  0.01890  1.0000
  C   C78       1.0  0.24268  0.54007  0.03394  1.0000
  Fe  Fe9       1.0  0.39349  0.54038  0.09882  1.0000
  S   S19       1.0  0.39523  0.59128  0.08130  1.0000
  C   C79       1.0  0.37098  0.74123  0.03538  1.0000
  Fe  Fe10      1.0  0.36227  0.56053  0.13957  1.0000
  S   S20       1.0  0.36107  0.61298  0.12556  1.0000
  S   S21       1.0  0.34266  0.53758  0.17256  1.0000
  Fe  Fe11      1.0  0.34215  0.58399  0.09664  1.0000
  S   S22       1.0  0.30063  0.59751  0.07768  1.0000
  Fe  Fe12      1.0  0.41415  0.61545  0.11141  1.0000
  S   S23       1.0  0.45912  0.66318  0.11135  1.0000
  S   S24       1.0  0.33887  0.53115  0.11184  1.0000
  S   S25       1.0  0.41708  0.56523  0.12794  1.0000
  H   H147      1.0  0.39436  0.55903  0.01845  1.0000
  C   C80       1.0  0.37378  0.68804  0.08787  1.0000
  C   C81       1.0  0.43392  0.63143  0.17085  1.0000
  H   H148      1.0  0.47675  0.57227  0.04638  1.0000
  H   H149      1.0  0.29248  0.65600  0.03059  1.0000
  H   H150      1.0  0.28215  0.69162  0.04285  1.0000
  H   H151      1.0  0.33807  0.57035  0.24645  1.0000
  H   H152      1.0  0.40930  0.61038  0.17193  1.0000
  H   H153      1.0  0.28902  0.59640  0.14933  1.0000
  C   C82       1.0  0.45835  0.67406  0.06752  1.0000
  C   C83       1.0  0.39508  0.77752  0.03897  1.0000
  H   H154      1.0  0.41997  0.77545  0.04527  1.0000
  C   C84       1.0  0.47875  0.60034  0.04328  1.0000
  H   H155      1.0  0.41933  0.55981  0.20809  1.0000
  H   H156      1.0  0.43100  0.66141  0.06920  1.0000
  H   H157      1.0  0.45851  0.68334  0.03328  1.0000
  N   N8        1.0  0.45446  0.62925  0.19021  1.0000
  C   C85       1.0  0.43217  0.63060  0.21000  1.0000
  C   C86       1.0  0.27680  0.56228  0.06396  1.0000
  H   H158      1.0  0.27922  0.62036  0.12695  1.0000
  C   C87       1.0  0.47396  0.68665  0.04716  1.0000
  H   H159      1.0  0.23972  0.57170  0.11367  1.0000
  C   C88       1.0  0.41611  0.50606  0.05624  1.0000
  C   C89       1.0  0.26224  0.56824  0.04470  1.0000
  H   H160      1.0  0.27736  0.55924  0.11869  1.0000
  S   S26       1.0  0.40399  0.66552  0.29054  1.0000
  Fe  Fe13      1.0  0.42275  0.61867  0.29911  1.0000
  H   H161      1.0  0.26642  0.59453  0.03791  1.0000
  C   C90       1.0  0.27126  0.52817  0.07255  1.0000
  H   H162      1.0  0.33295  0.50675  0.02725  1.0000
  H   H163      1.0  0.37982  0.53728  0.05601  1.0000
  S   S27       1.0  0.43894  0.54329  0.98646  1.0000
  N   N9        1.0  0.35468  0.71959  0.05536  1.0000
  H   H164      1.0  0.20896  0.52863  0.09750  1.0000
  H   H165      1.0  0.49170  0.64116  0.01828  1.0000
  C   C91       1.0  0.34081  0.61399  0.22433  1.0000
  C   C92       1.0  0.34096  0.62496  0.20278  1.0000
  C   C93       1.0  0.34097  0.60151  0.18673  1.0000
  C   C94       1.0  0.34035  0.56694  0.19224  1.0000
  C   C95       1.0  0.33863  0.55561  0.21380  1.0000
  C   C96       1.0  0.33905  0.57915  0.22985  1.0000
  H   H166      1.0  0.34208  0.65188  0.19851  1.0000
  H   H167      1.0  0.34196  0.61037  0.17017  1.0000
  H   H168      1.0  0.40657  0.61136  0.20965  1.0000
  C   C97       1.0  0.30354  0.68342  0.03469  1.0000
  H   H169      1.0  0.47992  0.68418  0.19270  1.0000
  C   C98       1.0  0.43538  0.56176  0.19300  1.0000
  H   H170      1.0  0.39695  0.68968  0.09731  1.0000
  H   H171      1.0  0.44800  0.62677  0.15604  1.0000
  C   C99       1.0  0.38409  0.71377  0.06807  1.0000
  H   H172      1.0  0.40244  0.70409  0.05766  1.0000
  H   H173      1.0  0.35167  0.74537  0.02420  1.0000
  C   C100      1.0  0.47812  0.67814  0.08560  1.0000
  C   C101      1.0  0.33339  0.68429  0.04950  1.0000
  H   H174      1.0  0.35363  0.69400  0.09858  1.0000
  N   N10       1.0  0.23421  0.53322  0.14056  1.0000
  H   H175      1.0  0.32026  0.60861  0.00652  1.0000
  H   H176      1.0  0.40953  0.66450  0.15207  1.0000
  C   C102      1.0  0.26791  0.59839  0.13890  1.0000
  H   H177      1.0  0.31201  0.69834  0.01921  1.0000
  C   C103      1.0  0.39902  0.52869  0.04681  1.0000
  C   C104      1.0  0.31666  0.61794  0.99052  1.0000
  S   S28       1.0  0.46076  0.67853  0.97690  1.0000
  H   H178      1.0  0.26780  0.54577  0.16709  1.0000
  C   C105      1.0  0.42938  0.52710  0.01289  1.0000
  H   H179      1.0  0.45017  0.59742  0.23378  1.0000
  H   H180      1.0  0.39971  0.73866  0.07401  1.0000
  S   S29       1.0  0.45410  0.74879  0.00163  1.0000
  H   H181      1.0  0.41853  0.55861  0.17927  1.0000
  C   C106      1.0  0.43465  0.52512  0.30368  1.0000
  C   C107      1.0  0.18128  0.55996  0.14151  1.0000
  C   C108      1.0  0.22307  0.50267  0.12665  1.0000
  H   H182      1.0  0.38277  0.79275  0.04967  1.0000
  H   H183      1.0  0.38666  0.72710  0.02607  1.0000
  H   H184      1.0  0.28405  0.75045  0.06598  1.0000
  H   H185      1.0  0.30537  0.75032  0.04059  1.0000
  S   S30       1.0  0.38247  0.58127  0.28180  1.0000
  H   H186      1.0  0.31622  0.71798  0.08100  1.0000
  C   C109      1.0  0.30996  0.75671  0.05735  1.0000
  H   H187      1.0  0.36507  0.66069  0.08313  1.0000
  H   H188      1.0  0.48353  0.59472  0.20297  1.0000
  C   C110      1.0  0.33323  0.73723  0.06908  1.0000
  H   H189      1.0  0.32082  0.66834  0.06407  1.0000
  H   H190      1.0  0.35041  0.75683  0.07872  1.0000
  H   H191      1.0  0.32072  0.78537  0.05788  1.0000
  C   C111      1.0  0.25901  0.52447  0.15604  1.0000
  H   H192      1.0  0.47342  0.59922  0.00955  1.0000
  S   S31       1.0  0.41095  0.49711  0.08390  1.0000
  C   C112      1.0  0.44727  0.62426  0.23159  1.0000
  H   H193      1.0  0.44664  0.53907  0.19348  1.0000
  H   H194      1.0  0.27386  0.57361  0.98540  1.0000
  H   H195      1.0  0.42638  0.65638  0.21069  1.0000
  Fe  Fe14      1.0  0.42046  0.70736  0.98279  1.0000
  H   H196      1.0  0.42895  0.62737  0.24472  1.0000
  H   H197      1.0  0.36188  0.51595  0.99247  1.0000
  H   H198      1.0  0.45210  0.60344  0.04549  1.0000
  H   H199      1.0  0.24711  0.60543  0.14844  1.0000
  H   H200      1.0  0.40594  0.67013  0.18002  1.0000
  C   C113      1.0  0.33825  0.64974  0.98186  1.0000
  H   H201      1.0  0.33776  0.52876  0.21813  1.0000
  C   C114      1.0  0.23667  0.50605  0.04286  1.0000
  C   C115      1.0  0.25444  0.56484  0.12694  1.0000
  C   C116      1.0  0.19841  0.50594  0.10895  1.0000
  S   S32       1.0  0.36943  0.67488  0.99776  1.0000
  H   H202      1.0  0.21260  0.55382  0.16765  1.0000
  C   C117      1.0  0.40653  0.54016  0.02538  1.0000
  H   H203      1.0  0.28209  0.52327  0.08737  1.0000
  H   H204      1.0  0.40175  0.79259  0.02331  1.0000
  C   C118      1.0  0.33348  0.51206  0.99353  1.0000
  C   C119      1.0  0.20367  0.53938  0.15320  1.0000
  C   C120      1.0  0.42369  0.66587  0.16698  1.0000
  H   H205      1.0  0.18596  0.51407  0.15952  1.0000
  C   C121      1.0  0.29035  0.59811  0.97861  1.0000
  S   S33       1.0  0.17908  0.52229  0.98238  1.0000
  C   C122      1.0  0.25073  0.50020  0.06226  1.0000
  H   H206      1.0  0.18674  0.56463  0.12407  1.0000
  C   C123      1.0  0.46514  0.59565  0.19027  1.0000
  H   H207      1.0  0.44647  0.68881  0.16457  1.0000
  C   C124      1.0  0.44473  0.50240  0.02179  1.0000
  H   H208      1.0  0.45255  0.53430  0.28932  1.0000
  H   H209      1.0  0.47954  0.59383  0.17497  1.0000
  H   H210      1.0  0.28293  0.52189  0.14728  1.0000
  H   H211      1.0  0.32208  0.49951  0.97920  1.0000
  H   H212      1.0  0.32920  0.53855  0.99315  1.0000
  H   H213      1.0  0.17245  0.50613  0.11571  1.0000
  H   H214      1.0  0.15347  0.54553  0.14400  1.0000
  H   H215      1.0  0.18385  0.58555  0.14862  1.0000
  H   H216      1.0  0.47233  0.64340  0.23383  1.0000
  C   C125      1.0  0.48663  0.65930  0.18971  1.0000
  S   S34       1.0  0.47896  0.61953  0.29440  1.0000
  H   H217      1.0  0.40999  0.50920  0.29811  1.0000
  H   H218      1.0  0.49033  0.61562  0.97590  1.0000
  S   S35       1.0  0.32518  0.61645  0.30525  1.0000
  S   S36       1.0  0.39257  0.60703  0.33049  1.0000
  H   H219      1.0  0.11881  0.52019  0.42263  1.0000
  H   H220      1.0  0.39644  0.81815  0.39403  1.0000
  C   C126      1.0  0.29544  0.62496  0.38410  1.0000
  H   H221      1.0  0.30745  0.71216  0.40386  1.0000
  C   C127      1.0  0.45179  0.50500  0.31953  1.0000
  H   H222      1.0  0.27505  0.60075  0.38896  1.0000
  H   H223      1.0  0.37337  0.71379  0.38637  1.0000
  H   H224      1.0  0.34893  0.83039  0.34109  1.0000
  H   H225      1.0  0.37447  0.57238  0.48405  1.0000
  S   S37       1.0  0.20288  0.54513  0.46119  1.0000
  S   S38       1.0  0.21406  0.53306  0.40162  1.0000
  Fe  Fe15      1.0  0.25270  0.54701  0.47671  1.0000
  S   S39       1.0  0.28866  0.58994  0.49359  1.0000
  C   C128      1.0  0.36250  0.83587  0.41572  1.0000
  H   H226      1.0  0.36767  0.54904  0.52815  1.0000
  H   H227      1.0  0.44678  0.69286  0.48254  1.0000
  C   C129      1.0  0.31326  0.81179  0.37978  1.0000
  H   H228      1.0  0.47257  0.64686  0.41915  1.0000
  S   S40       1.0  0.44096  0.81170  0.43063  1.0000
  H   H229      1.0  0.28326  0.73700  0.39035  1.0000
  H   H230      1.0  0.37987  0.80973  0.33024  1.0000
  S   S41       1.0  0.44926  0.78083  0.47915  1.0000
  H   H231      1.0  0.30754  0.62238  0.36824  1.0000
  Fe  Fe16      1.0  0.41769  0.76235  0.45095  1.0000
  S   S42       1.0  0.36034  0.73841  0.44790  1.0000
  H   H232      1.0  0.47133  0.61093  0.40274  1.0000
  S   S43       1.0  0.45466  0.73396  0.43791  1.0000
  H   H233      1.0  0.32355  0.77211  0.41386  1.0000
  H   H234      1.0  0.34490  0.76712  0.35513  1.0000
  C   C130      1.0  0.33560  0.52342  0.49474  1.0000
  C   C131      1.0  0.33545  0.76648  0.39851  1.0000
  S   S44       1.0  0.43412  0.58207  0.45022  1.0000
  H   H235      1.0  0.32186  0.53827  0.50489  1.0000
  C   C132      1.0  0.28690  0.79272  0.36399  1.0000
  C   C133      1.0  0.32181  0.63426  0.40157  1.0000
  H   H236      1.0  0.37844  0.85080  0.38294  1.0000
  H   H237      1.0  0.26060  0.78423  0.37213  1.0000
  H   H238      1.0  0.43772  0.54699  0.51863  1.0000
  C   C134      1.0  0.44109  0.64179  0.47080  1.0000
  C   C135      1.0  0.45822  0.61833  0.46273  1.0000
  H   H239      1.0  0.38295  0.85896  0.42008  1.0000
  H   H240      1.0  0.31904  0.56698  0.38772  1.0000
  H   H241      1.0  0.46369  0.97276  0.48297  1.0000
  H   H242      1.0  0.41311  0.63566  0.47122  1.0000
  C   C136      1.0  0.28839  0.50156  0.36831  1.0000
  H   H243      1.0  0.27632  0.56258  0.33196  1.0000
  C   C137      1.0  0.30949  0.62984  0.47954  1.0000
  C   C138      1.0  0.29354  0.64350  0.46312  1.0000
  C   C139      1.0  0.30936  0.67687  0.45355  1.0000
  C   C140      1.0  0.34162  0.69631  0.45990  1.0000
  C   C141      1.0  0.35816  0.68207  0.47575  1.0000
  C   C142      1.0  0.34192  0.64912  0.48572  1.0000
  H   H244      1.0  0.26838  0.62896  0.45842  1.0000
  H   H245      1.0  0.29630  0.68782  0.44142  1.0000
  H   H246      1.0  0.38302  0.69684  0.48074  1.0000
  H   H247      1.0  0.35437  0.63872  0.49844  1.0000
  C   C143      1.0  0.26403  0.50434  0.38452  1.0000
  H   H248      1.0  0.36219  0.81477  0.42799  1.0000
  H   H249      1.0  0.30201  0.57042  0.41382  1.0000
  S   S45       1.0  0.27540  0.52428  0.44940  1.0000
  Fe  Fe17      1.0  0.46398  0.54739  0.43641  1.0000
  H   H250      1.0  0.31813  0.72376  0.37633  1.0000
  S   S46       1.0  0.36105  0.68635  0.34574  1.0000
  H   H251      1.0  0.28214  0.64600  0.38214  1.0000
  C   C144      1.0  0.24391  0.52786  0.38156  1.0000
  C   C145      1.0  0.37178  0.82605  0.39306  1.0000
  H   H252      1.0  0.41954  0.54710  0.49318  1.0000
  C   C146      1.0  0.29346  0.52316  0.34949  1.0000
  C   C147      1.0  0.27313  0.54642  0.34658  1.0000
  C   C148      1.0  0.24793  0.54823  0.36238  1.0000
  C   C149      1.0  0.35597  0.55023  0.47730  1.0000
  N   N11       1.0  0.34451  0.79820  0.38315  1.0000
  S   S47       1.0  0.32543  0.52124  0.32982  1.0000
  H   H253      1.0  0.23220  0.56623  0.35995  1.0000
  C   C150      1.0  0.39924  0.71076  0.35614  1.0000
  C   C151      1.0  0.43090  0.72018  0.34411  1.0000
  H   H254      1.0  0.47533  0.52462  0.32419  1.0000
  H   H255      1.0  0.33770  0.56198  0.46886  1.0000
  C   C152      1.0  0.42659  0.74300  0.38547  1.0000
  C   C153      1.0  0.39746  0.72163  0.37691  1.0000
  H   H256      1.0  0.43248  0.71172  0.32802  1.0000
  H   H257      1.0  0.35943  0.75930  0.40282  1.0000
  H   H258      1.0  0.42427  0.75214  0.40126  1.0000
  H   H259      1.0  0.38524  0.78246  0.36583  1.0000
  H   H260      1.0  0.43044  0.54895  0.31062  1.0000
  H   H261      1.0  0.39311  0.84136  0.34951  1.0000
  H   H262      1.0  0.29857  0.81153  0.39531  1.0000
  H   H263      1.0  0.31518  0.50419  0.48679  1.0000
  S   S48       1.0  0.45249  0.52968  0.40348  1.0000
  H   H264      1.0  0.29225  0.76934  0.35734  1.0000
  H   H265      1.0  0.45800  0.60665  0.33980  1.0000
  C   C154      1.0  0.45807  0.75328  0.37342  1.0000
  H   H266      1.0  0.42588  0.53410  0.35362  1.0000
  C   C155      1.0  0.37105  0.81994  0.34509  1.0000
  H   H267      1.0  0.28523  0.81089  0.35035  1.0000
  H   H268      1.0  0.36879  0.53816  0.46497  1.0000
  Fe  Fe18      1.0  0.22390  0.51798  0.43527  1.0000
  H   H269      1.0  0.32155  0.83978  0.37398  1.0000
  C   C156      1.0  0.41548  0.55181  0.51017  1.0000
  C   C157      1.0  0.36107  0.79003  0.36259  1.0000
  Fe  Fe19      1.0  0.37020  0.65071  0.32067  1.0000
  H   H270      1.0  0.30624  0.63301  0.41690  1.0000
  Fe  Fe20      1.0  0.35029  0.57353  0.31282  1.0000
  N   N12       1.0  0.34713  0.61217  0.40357  1.0000
  C   C158      1.0  0.36465  0.62068  0.42423  1.0000
  C   C159      1.0  0.32676  0.57440  0.40407  1.0000
  C   C160      1.0  0.37241  0.62110  0.38440  1.0000
  C   C161      1.0  0.38835  0.65810  0.42471  1.0000
  C   C162      1.0  0.34414  0.54682  0.41292  1.0000
  C   C163      1.0  0.40336  0.60486  0.38421  1.0000
  H   H271      1.0  0.33558  0.66214  0.39822  1.0000
  H   H272      1.0  0.38096  0.60317  0.42836  1.0000
  H   H273      1.0  0.34501  0.61636  0.43792  1.0000
  H   H274      1.0  0.35882  0.61344  0.36962  1.0000
  H   H275      1.0  0.38307  0.64969  0.38173  1.0000
  H   H276      1.0  0.37446  0.67832  0.42178  1.0000
  H   H277      1.0  0.39841  0.66206  0.44082  1.0000
  H   H278      1.0  0.41118  0.66266  0.41325  1.0000
  H   H279      1.0  0.34794  0.54894  0.43023  1.0000
  H   H280      1.0  0.36889  0.54730  0.40442  1.0000
  H   H281      1.0  0.32666  0.52050  0.41105  1.0000
  H   H282      1.0  0.39751  0.58050  0.37547  1.0000
  H   H283      1.0  0.41153  0.59935  0.40026  1.0000
  H   H284      1.0  0.42627  0.62357  0.37589  1.0000
  C   C164      1.0  0.30964  0.73342  0.39138  1.0000
  C   C165      1.0  0.46035  0.74170  0.35273  1.0000
  H   H285      1.0  0.33755  0.84295  0.41673  1.0000
  H   H286      1.0  0.41745  0.58012  0.51093  1.0000
  C   C166      1.0  0.38076  0.53006  0.52140  1.0000
  C   C167      1.0  0.46011  0.67402  0.47735  1.0000
  H   H287      1.0  0.36898  0.51175  0.37241  1.0000
  H   H288      1.0  0.09760  0.51728  0.36817  1.0000
  H   H289      1.0  0.39316  0.51802  0.33622  1.0000
  C   C168      1.0  0.40878  0.50939  0.34834  1.0000
  H   H290      1.0  0.38758  0.51604  0.53564  1.0000
  H   H291      1.0  0.32116  0.51476  0.54730  1.0000
  H   H292      1.0  0.13996  0.50405  0.39184  1.0000
  H   H293      1.0  0.48467  0.74966  0.34329  1.0000
  H   H294      1.0  0.46924  0.50785  0.36147  1.0000
  C   C169      1.0  0.48109  0.59835  0.33675  1.0000
  H   H295      1.0  0.48136  0.67315  0.38397  1.0000
  H   H296      1.0  0.07758  0.50805  0.39449  1.0000
  Fe  Fe21      1.0  0.47615  0.82766  0.45745  1.0000
  H   H297      1.0  0.48243  0.57933  0.36931  1.0000
  Fe  Fe22      1.0  0.47969  0.78398  0.41923  1.0000
  N   N13       1.0  0.35620  0.50483  0.50822  1.0000
  H   H298      1.0  0.39030  0.50044  0.48083  1.0000
  H   H299      1.0  0.28688  0.50187  0.52890  1.0000
  Fe  Fe23      1.0  0.48851  0.75696  0.46388  1.0000
  C   C170      1.0  0.48835  0.63551  0.40797  1.0000
  S   S49       1.0  0.49072  0.88094  0.47101  1.0000
  H   H300      1.0  0.09947  0.50208  0.44817  1.0000
  C   C171      1.0  0.11453  0.49706  0.43391  1.0000
  H   H301      1.0  0.46561  0.99553  0.45715  1.0000
  C   C172      1.0  0.47743  0.99646  0.47290  1.0000
  S   S50       1.0  0.25199  0.58636  0.94294  1.0000
  C   C173      1.0  0.28493  0.61048  0.95818  1.0000
  H   H302      1.0  0.30195  0.65228  0.93389  1.0000
  C   C174      1.0  0.30629  0.64248  0.94960  1.0000
  Fe  Fe24      1.0  0.22254  0.53298  0.95693  1.0000
  H   H303      1.0  0.32000  0.59781  0.91651  1.0000
  H   H304      1.0  0.28411  0.53811  0.92011  1.0000
  C   C175      1.0  0.31190  0.54337  0.92365  1.0000
  H   H305      1.0  0.31305  0.54588  0.94114  1.0000
  H   H306      1.0  0.35751  0.54080  0.87976  1.0000
  H   H307      1.0  0.34941  0.68668  0.95468  1.0000
  H   H308      1.0  0.32643  0.57438  0.89410  1.0000
  C   C176      1.0  0.37886  0.59879  0.93621  1.0000
  C   C177      1.0  0.38415  0.57064  0.95235  1.0000
  Fe  Fe25      1.0  0.47564  0.71439  0.94743  1.0000
  C   C178      1.0  0.33220  0.57732  0.91122  1.0000
  C   C179      1.0  0.38751  0.55992  0.90769  1.0000
  C   C180      1.0  0.48280  0.82336  0.90362  1.0000
  C   C181      1.0  0.38471  0.54902  0.88440  1.0000
  H   H309      1.0  0.38227  0.66215  0.91975  1.0000
  Fe  Fe26      1.0  0.45706  0.50877  0.96435  1.0000
  C   C182      1.0  0.37553  0.65326  0.90358  1.0000
  H   H310      1.0  0.34751  0.65015  0.90169  1.0000
  H   H311      1.0  0.40973  0.56562  0.94893  1.0000
  H   H312      1.0  0.40052  0.56984  0.87301  1.0000
  H   H313      1.0  0.38985  0.67468  0.89201  1.0000
  H   H314      1.0  0.40340  0.62006  0.93628  1.0000
  H   H315      1.0  0.41513  0.62635  0.89826  1.0000
  H   H316      1.0  0.47620  0.63916  0.93984  1.0000
  N   N14       1.0  0.37080  0.58828  0.91365  1.0000
  H   H317      1.0  0.35846  0.60967  0.94341  1.0000
  H   H318      1.0  0.41550  0.56798  0.91060  1.0000
  H   H319      1.0  0.37916  0.61429  0.88189  1.0000
  H   H320      1.0  0.38449  0.58045  0.96870  1.0000
  H   H321      1.0  0.37690  0.53576  0.91794  1.0000
  H   H322      1.0  0.47572  0.57922  0.93025  1.0000
  S   S51       1.0  0.43267  0.74024  0.95207  1.0000
  C   C183      1.0  0.48516  0.59283  0.89641  1.0000
  C   C184      1.0  0.38626  0.61973  0.89859  1.0000
  S   S52       1.0  0.48672  0.70341  0.91340  1.0000
  H   H323      1.0  0.32030  0.52034  0.91878  1.0000
  C   C185      1.0  0.33321  0.66190  0.96130  1.0000
  Fe  Fe27      1.0  0.47547  0.51274  0.91737  1.0000
  S   S53       1.0  0.42475  0.50049  0.93600  1.0000
  C   C186      1.0  0.48044  0.59996  0.91790  1.0000
  H   H324      1.0  0.36375  0.54582  0.95257  1.0000
  C   C187      1.0  0.48063  0.63387  0.92336  1.0000
  S   S54       1.0  0.48248  0.55026  0.88890  1.0000
  C   C188      1.0  0.48637  0.66075  0.90741  1.0000
  S   S55       1.0  0.47841  0.83688  0.96394  1.0000
  H   H325      1.0  0.46733  0.82767  0.91789  1.0000
  H   H326      1.0  0.39566  0.52626  0.88282  1.0000
  C   C189      1.0  0.49137  0.65365  0.88603  1.0000
  Fe  Fe28      1.0  0.47115  0.77880  0.97011  1.0000
  C   C190      1.0  0.49054  0.61974  0.88053  1.0000
  H   H327      1.0  0.46448  0.80552  0.89373  1.0000
  H   H328      1.0  0.02836  0.50397  0.97114  1.0000
  H   H329      1.0  0.62524  0.03264  0.97998  1.0000
  H   H330      1.0  0.73311  0.21801  0.98359  1.0000
  C   C191      1.0  0.89829  0.41345  0.99247  1.0000
  H   H331      1.0  0.73985  0.28944  0.97945  1.0000
  H   H332      1.0  0.65544  0.04002  0.02437  1.0000
  H   H333      1.0  0.65983  0.07372  0.00392  1.0000
  H   H334      1.0  0.95654  0.35331  0.97537  1.0000
  C   C192      1.0  0.93145  0.44110  0.98394  1.0000
  H   H335      1.0  0.90132  0.40332  0.00887  1.0000
  H   H336      1.0  0.97025  0.35581  0.00189  1.0000
  H   H337      1.0  0.78175  0.25971  0.99534  1.0000
  H   H338      1.0  0.78907  0.13558  0.97292  1.0000
  H   H339      1.0  0.87620  0.42545  0.99303  1.0000
  H   H340      1.0  0.60124  0.04049  0.00273  1.0000
  H   H341      1.0  0.59342  0.14071  0.98257  1.0000
  H   H342      1.0  0.60263  0.20447  0.97721  1.0000
  H   H343      1.0  0.80321  0.22957  0.98360  1.0000
  H   H344      1.0  0.89009  0.39135  0.98214  1.0000
  C   C193      1.0  0.71763  0.26626  0.97867  1.0000
  H   H345      1.0  0.97891  0.41793  0.00204  1.0000
  C   C194      1.0  0.80016  0.25642  0.98238  1.0000
  H   H346      1.0  0.60824  0.01504  0.04801  1.0000
  C   C195      1.0  0.97494  0.40670  0.98609  1.0000
  C   C196      1.0  0.95610  0.36765  0.99011  1.0000
  H   H347      1.0  0.67745  0.03813  0.99872  1.0000
  H   H348      1.0  0.82578  0.27433  0.98522  1.0000
  C   C197      1.0  0.62071  0.02661  0.99751  1.0000
  H   H349      1.0  0.56304  0.01928  0.97617  1.0000
  C   C198      1.0  0.65527  0.04509  0.00693  1.0000
  H   H350      1.0  0.70657  0.25983  0.99536  1.0000
  H   H351      1.0  0.92345  0.46176  0.97452  1.0000
  H   H352      1.0  0.94254  0.45459  0.99820  1.0000
  H   H353      1.0  0.92915  0.36283  0.99668  1.0000
  H   H354      1.0  0.67066  0.38333  0.56286  1.0000
  C   C199      1.0  0.53853  0.05498  0.48596  1.0000
  Fe  Fe29      1.0  0.73229  0.06955  0.47328  1.0000
  S   S56       1.0  0.71837  0.08518  0.50562  1.0000
  S   S57       1.0  0.77295  0.10753  0.45190  1.0000
  Fe  Fe30      1.0  0.71345  0.02955  0.51619  1.0000
  H   H355      1.0  0.69463  0.39534  0.42320  1.0000
  Fe  Fe31      1.0  0.66339  0.06523  0.49677  1.0000
  S   S58       1.0  0.62415  0.09421  0.50553  1.0000
  C   C200      1.0  0.66993  0.31455  0.58577  1.0000
  S   S59       1.0  0.67743  0.05414  0.46336  1.0000
  Fe  Fe32      1.0  0.69210  0.33181  0.47960  1.0000
  S   S60       1.0  0.67691  0.32280  0.44600  1.0000
  S   S61       1.0  0.74484  0.35822  0.49042  1.0000
  Fe  Fe33      1.0  0.61825  0.30497  0.49831  1.0000
  S   S62       1.0  0.59590  0.29423  0.46626  1.0000
  S   S63       1.0  0.58500  0.30102  0.52862  1.0000
  Fe  Fe34      1.0  0.64135  0.27254  0.45992  1.0000
  S   S64       1.0  0.63622  0.22423  0.44201  1.0000
  Fe  Fe35      1.0  0.63292  0.34519  0.45501  1.0000
  S   S65       1.0  0.62124  0.38335  0.43101  1.0000
  S   S66       1.0  0.66106  0.27914  0.49290  1.0000
  S   S67       1.0  0.65093  0.35841  0.48760  1.0000
  Fe  Fe36      1.0  0.92490  0.23837  0.49031  1.0000
  S   S68       1.0  0.88618  0.26730  0.49932  1.0000
  S   S69       1.0  0.90826  0.18037  0.49809  1.0000
  S   S70       1.0  0.96726  0.27175  0.50821  1.0000
  S   S71       1.0  0.94666  0.34031  0.48639  1.0000
  H   H356      1.0  0.56024  0.07912  0.48505  1.0000
  Fe  Fe37      1.0  0.92970  0.30306  0.51519  1.0000
  S   S72       1.0  0.92090  0.31524  0.54940  1.0000
  Fe  Fe38      1.0  0.90660  0.30118  0.46971  1.0000
  S   S73       1.0  0.87022  0.31434  0.44635  1.0000
  H   H357      1.0  0.91312  0.31188  0.60906  1.0000
  S   S74       1.0  0.94235  0.26932  0.45915  1.0000
  S   S75       1.0  0.75807  0.19460  0.61318  1.0000
  Fe  Fe39      1.0  0.66499  0.20480  0.60987  1.0000
  S   S76       1.0  0.68592  0.17204  0.58737  1.0000
  S   S77       1.0  0.61230  0.21451  0.61005  1.0000
  Fe  Fe40      1.0  0.70771  0.15327  0.61662  1.0000
  N   N15       1.0  0.85360  0.32469  0.63073  1.0000
  Fe  Fe41      1.0  0.73430  0.21610  0.58616  1.0000
  S   S78       1.0  0.76317  0.23698  0.55514  1.0000
  H   H358      1.0  0.73685  0.39667  0.55643  1.0000
  S   S79       1.0  0.71166  0.25065  0.60617  1.0000
  C   C201      1.0  0.87613  0.29830  0.55380  1.0000
  C   C202      1.0  0.85445  0.30538  0.53839  1.0000
  C   C203      1.0  0.81941  0.28721  0.53942  1.0000
  C   C204      1.0  0.80573  0.26255  0.55621  1.0000
  C   C205      1.0  0.82686  0.25694  0.57248  1.0000
  C   C206      1.0  0.86233  0.27447  0.57107  1.0000
  H   H359      1.0  0.86515  0.32373  0.52504  1.0000
  H   H360      1.0  0.80320  0.29147  0.52675  1.0000
  H   H361      1.0  0.81643  0.23771  0.58539  1.0000
  H   H362      1.0  0.87937  0.26821  0.58260  1.0000
  C   C207      1.0  0.56690  0.45872  0.46005  1.0000
  H   H363      1.0  0.68974  0.34437  0.52444  1.0000
  C   C208      1.0  0.59066  0.27392  0.55039  1.0000
  C   C209      1.0  0.57659  0.27822  0.57058  1.0000
  C   C210      1.0  0.58241  0.25890  0.58860  1.0000
  C   C211      1.0  0.60287  0.23552  0.58667  1.0000
  C   C212      1.0  0.61621  0.23033  0.56638  1.0000
  C   C213      1.0  0.60964  0.24919  0.54819  1.0000
  H   H364      1.0  0.56149  0.29691  0.57236  1.0000
  H   H365      1.0  0.57177  0.26278  0.60418  1.0000
  H   H366      1.0  0.63142  0.21172  0.56472  1.0000
  H   H367      1.0  0.61929  0.24463  0.53252  1.0000
  H   H368      1.0  0.50650  0.39679  0.47466  1.0000
  H   H369      1.0  0.88549  0.21711  0.54022  1.0000
  H   H370      1.0  0.86454  0.16036  0.59130  1.0000
  H   H371      1.0  0.74173  0.15841  0.42467  1.0000
  H   H372      1.0  0.80602  0.06396  0.55852  1.0000
  H   H373      1.0  0.59958  0.39115  0.47468  1.0000
  C   C214      1.0  0.77926  0.34538  0.47818  1.0000
  C   C215      1.0  0.80874  0.34603  0.48952  1.0000
  C   C216      1.0  0.83671  0.33624  0.47983  1.0000
  C   C217      1.0  0.83561  0.32680  0.45862  1.0000
  C   C218      1.0  0.80651  0.32712  0.44709  1.0000
  C   C219      1.0  0.77807  0.33581  0.45700  1.0000
  H   H374      1.0  0.80989  0.35374  0.50586  1.0000
  H   H375      1.0  0.85940  0.33647  0.48858  1.0000
  H   H376      1.0  0.80574  0.31990  0.43064  1.0000
  H   H377      1.0  0.75542  0.33537  0.44819  1.0000
  C   C220      1.0  0.72609  0.03684  0.56868  1.0000
  C   C221      1.0  0.70748  0.06195  0.56675  1.0000
  C   C222      1.0  0.70312  0.08151  0.58428  1.0000
  C   C223      1.0  0.71649  0.07524  0.60388  1.0000
  C   C224      1.0  0.73411  0.04937  0.60596  1.0000
  C   C225      1.0  0.73915  0.03042  0.58834  1.0000
  H   H378      1.0  0.69683  0.06663  0.55170  1.0000
  H   H379      1.0  0.68882  0.10088  0.58269  1.0000
  C   C226      1.0  0.79833  0.42134  0.43779  1.0000
  H   H380      1.0  0.64604  0.37493  0.53953  1.0000
  C   C227      1.0  0.81167  0.12626  0.46409  1.0000
  C   C228      1.0  0.83428  0.15715  0.45498  1.0000
  C   C229      1.0  0.86367  0.17425  0.46551  1.0000
  C   C230      1.0  0.87194  0.15914  0.48440  1.0000
  C   C231      1.0  0.85068  0.12696  0.49267  1.0000
  C   C232      1.0  0.81995  0.11111  0.48298  1.0000
  H   H381      1.0  0.82885  0.16830  0.43993  1.0000
  H   H382      1.0  0.88034  0.19871  0.45876  1.0000
  H   H383      1.0  0.85798  0.11429  0.50654  1.0000
  H   H384      1.0  0.80314  0.08674  0.48978  1.0000
  C   C233      1.0  0.62485  0.12929  0.48748  1.0000
  C   C234      1.0  0.61489  0.15822  0.49466  1.0000
  C   C235      1.0  0.61752  0.18736  0.48063  1.0000
  C   C236      1.0  0.62890  0.18697  0.45925  1.0000
  C   C237      1.0  0.63667  0.15719  0.45179  1.0000
  C   C238      1.0  0.63559  0.12879  0.46601  1.0000
  H   H385      1.0  0.60637  0.15864  0.51125  1.0000
  H   H386      1.0  0.61083  0.21010  0.48638  1.0000
  H   H387      1.0  0.64529  0.15679  0.43522  1.0000
  H   H388      1.0  0.64320  0.10667  0.46027  1.0000
  Fe  Fe42      1.0  0.73113  0.22511  0.63367  1.0000
  H   H389      1.0  0.75342  0.01092  0.58988  1.0000
  C   C239      1.0  0.53265  0.05159  0.44730  1.0000
  H   H390      1.0  0.52674  0.35148  0.49338  1.0000
  C   C240      1.0  0.68400  0.34487  0.54193  1.0000
  C   C241      1.0  0.77753  0.49348  0.44544  1.0000
  C   C242      1.0  0.72679  0.42507  0.45569  1.0000
  C   C243      1.0  0.70782  0.42347  0.41945  1.0000
  S   S80       1.0  0.53904  0.48193  0.47038  1.0000
  H   H391      1.0  0.81436  0.21487  0.50363  1.0000
  H   H392      1.0  0.82584  0.27075  0.63777  1.0000
  H   H393      1.0  0.68895  0.42280  0.38750  1.0000
  C   C244      1.0  0.77907  0.37324  0.55789  1.0000
  H   H394      1.0  0.56860  0.43127  0.49019  1.0000
  H   H395      1.0  0.76751  0.26467  0.46925  1.0000
  H   H396      1.0  0.66865  0.31009  0.60344  1.0000
  C   C245      1.0  0.67228  0.37815  0.54567  1.0000
  C   C246      1.0  0.49564  0.38048  0.41075  1.0000
  H   H397      1.0  0.79779  0.20210  0.46690  1.0000
  N   N16       1.0  0.74613  0.20904  0.46947  1.0000
  H   H398      1.0  0.79111  0.35564  0.54884  1.0000
  C   C247      1.0  0.73157  0.18077  0.45453  1.0000
  C   C248      1.0  0.71828  0.21017  0.48616  1.0000
  C   C249      1.0  0.75791  0.24428  0.45778  1.0000
  H   H399      1.0  0.89355  0.17826  0.55095  1.0000
  C   C250      1.0  0.70610  0.17765  0.50159  1.0000
  C   C251      1.0  0.72981  0.25619  0.44575  1.0000
  H   H400      1.0  0.81071  0.08163  0.58466  1.0000
  H   H401      1.0  0.70463  0.18014  0.45092  1.0000
  H   H402      1.0  0.72950  0.15449  0.46221  1.0000
  H   H403      1.0  0.72650  0.23332  0.49594  1.0000
  H   H404      1.0  0.69480  0.21360  0.47844  1.0000
  H   H405      1.0  0.74888  0.20466  0.42212  1.0000
  H   H406      1.0  0.75393  0.15698  0.56097  1.0000
  H   H407      1.0  0.87367  0.20519  0.56764  1.0000
  H   H408      1.0  0.72672  0.17494  0.51210  1.0000
  H   H409      1.0  0.69700  0.15350  0.49299  1.0000
  H   H410      1.0  0.68403  0.18028  0.51214  1.0000
  H   H411      1.0  0.71584  0.27002  0.45647  1.0000
  H   H412      1.0  0.71050  0.23452  0.43918  1.0000
  H   H413      1.0  0.74203  0.27374  0.43170  1.0000
  N   N17       1.0  0.71461  0.34099  0.55408  1.0000
  C   C252      1.0  0.69916  0.44225  0.46461  1.0000
  H   H414      1.0  0.58448  0.08670  0.43758  1.0000
  C   C253      1.0  0.72723  0.31117  0.54574  1.0000
  C   C254      1.0  0.70660  0.33619  0.57798  1.0000
  H   H415      1.0  0.80689  0.25189  0.48967  1.0000
  H   H416      1.0  0.74820  0.43058  0.46666  1.0000
  C   C255      1.0  0.70032  0.27582  0.54461  1.0000
  H   H417      1.0  0.64984  0.32813  0.58201  1.0000
  H   H418      1.0  0.56209  0.02688  0.50975  1.0000
  H   H419      1.0  0.84451  0.06618  0.57216  1.0000
  C   C256      1.0  0.50600  0.37907  0.43418  1.0000
  H   H420      1.0  0.83167  0.12918  0.60798  1.0000
  H   H421      1.0  0.73933  0.31816  0.52926  1.0000
  H   H422      1.0  0.74797  0.30587  0.55553  1.0000
  H   H423      1.0  0.72520  0.32391  0.58579  1.0000
  C   C257      1.0  0.59479  0.43970  0.42950  1.0000
  H   H424      1.0  0.59706  0.05472  0.46609  1.0000
  H   H425      1.0  0.77710  0.36576  0.57522  1.0000
  H   H426      1.0  0.77536  0.22677  0.50987  1.0000
  C   C258      1.0  0.83401  0.32937  0.61123  1.0000
  C   C259      1.0  0.71441  0.42826  0.39492  1.0000
  H   H427      1.0  0.71144  0.25900  0.53433  1.0000
  H   H428      1.0  0.67674  0.27776  0.53696  1.0000
  H   H429      1.0  0.69403  0.26178  0.56051  1.0000
  H   H430      1.0  0.51910  0.39380  0.40046  1.0000
  H   H431      1.0  0.71006  0.36179  0.58531  1.0000
  H   H432      1.0  0.66309  0.28873  0.57908  1.0000
  H   H433      1.0  0.81509  0.44810  0.43406  1.0000
  S   S81       1.0  0.50362  0.47822  0.41222  1.0000
  S   S82       1.0  0.71203  0.09965  0.62595  1.0000
  C   C260      1.0  0.57710  0.46235  0.43827  1.0000
  N   N18       1.0  0.82001  0.14217  0.55830  1.0000
  C   C261      1.0  0.78736  0.12592  0.54725  1.0000
  C   C262      1.0  0.84180  0.11651  0.55826  1.0000
  C   C263      1.0  0.83869  0.17490  0.54509  1.0000
  C   C264      1.0  0.80994  0.15048  0.58056  1.0000
  C   C265      1.0  0.76137  0.14826  0.54535  1.0000
  C   C266      1.0  0.82444  0.08019  0.56915  1.0000
  C   C267      1.0  0.87486  0.19437  0.55176  1.0000
  C   C268      1.0  0.83730  0.15354  0.59757  1.0000
  H   H434      1.0  0.79362  0.11865  0.53083  1.0000
  H   H435      1.0  0.77264  0.10124  0.55588  1.0000
  H   H436      1.0  0.86665  0.12651  0.56580  1.0000
  H   H437      1.0  0.84964  0.11231  0.54160  1.0000
  H   H438      1.0  0.84178  0.16900  0.52800  1.0000
  H   H439      1.0  0.82337  0.19448  0.54519  1.0000
  H   H440      1.0  0.80192  0.17518  0.57993  1.0000
  H   H441      1.0  0.78669  0.12990  0.58722  1.0000
  H   H442      1.0  0.77141  0.17100  0.53388  1.0000
  H   H443      1.0  0.73704  0.13232  0.53921  1.0000
  H   H444      1.0  0.60170  0.44182  0.41252  1.0000
  H   H445      1.0  0.53930  0.35101  0.46595  1.0000
  H   H446      1.0  0.83490  0.17428  0.60838  1.0000
  H   H447      1.0  0.77019  0.17361  0.48648  1.0000
  H   H448      1.0  0.68985  0.40112  0.53664  1.0000
  C   C269      1.0  0.79524  0.30939  0.61224  1.0000
  C   C270      1.0  0.59394  0.41131  0.46453  1.0000
  S   S83       1.0  0.73534  0.01477  0.54650  1.0000
  H   H449      1.0  0.68820  0.43785  0.42339  1.0000
  C   C271      1.0  0.75197  0.18293  0.43285  1.0000
  C   C272      1.0  0.74358  0.37390  0.54946  1.0000
  C   C273      1.0  0.57755  0.02928  0.46505  1.0000
  H   H450      1.0  0.58243  0.01287  0.47874  1.0000
  H   H451      1.0  0.66081  0.32267  0.54566  1.0000
  H   H452      1.0  0.79706  0.39978  0.55546  1.0000
  C   C274      1.0  0.51623  0.99766  0.47007  1.0000
  H   H453      1.0  0.61396  0.01018  0.44542  1.0000
  C   C275      1.0  0.53895  0.03693  0.50819  1.0000
  H   H454      1.0  0.84558  0.32082  0.59674  1.0000
  H   H455      1.0  0.74774  0.38052  0.53195  1.0000
  C   C276      1.0  0.60244  0.41365  0.44256  1.0000
  H   H456      1.0  0.74435  0.04432  0.62109  1.0000
  C   C277      1.0  0.77691  0.20087  0.47938  1.0000
  H   H457      1.0  0.72771  0.40926  0.38864  1.0000
  H   H458      1.0  0.54896  0.09841  0.42605  1.0000
  H   H459      1.0  0.52126  0.40578  0.43749  1.0000
  H   H460      1.0  0.79136  0.28074  0.61336  1.0000
  H   H461      1.0  0.81334  0.40337  0.43200  1.0000
  H   H462      1.0  0.93847  0.35611  0.60781  1.0000
  H   H463      1.0  0.71563  0.39632  0.45792  1.0000
  H   H464      1.0  0.77981  0.18579  0.43476  1.0000
  H   H465      1.0  0.78091  0.24649  0.44660  1.0000
  H   H466      1.0  0.52451  0.36262  0.43448  1.0000
  H   H467      1.0  0.51502  0.06482  0.48582  1.0000
  H   H468      1.0  0.55695  0.10682  0.45333  1.0000
  N   N19       1.0  0.54119  0.03339  0.46707  1.0000
  H   H469      1.0  0.90164  0.34491  0.59221  1.0000
  H   H470      1.0  0.54017  0.05640  0.52053  1.0000
  C   C278      1.0  0.57635  0.43400  0.47330  1.0000
  H   H471      1.0  0.72892  0.45523  0.38954  1.0000
  C   C279      1.0  0.79390  0.22528  0.49659  1.0000
  H   H472      1.0  0.67338  0.43024  0.45854  1.0000
  N   N20       1.0  0.73912  0.43502  0.43262  1.0000
  C   C280      1.0  0.75452  0.47375  0.42828  1.0000
  H   H473      1.0  0.78777  0.47714  0.45673  1.0000
  H   H474      1.0  0.69630  0.43767  0.48228  1.0000
  C   C281      1.0  0.55743  0.08783  0.44095  1.0000
  C   C282      1.0  0.91151  0.33926  0.60785  1.0000
  H   H475      1.0  0.51504  0.01561  0.51204  1.0000
  C   C283      1.0  0.51644  0.34590  0.47735  1.0000
  C   C284      1.0  0.85272  0.28666  0.63360  1.0000
  H   H476      1.0  0.83568  0.35748  0.60775  1.0000
  H   H477      1.0  0.50624  0.05560  0.44932  1.0000
  H   H478      1.0  0.85929  0.27603  0.61834  1.0000
  S   S84       1.0  0.73199  0.01517  0.48440  1.0000
  C   C285      1.0  0.76448  0.41480  0.42598  1.0000
  H   H479      1.0  0.75173  0.38626  0.42771  1.0000
  H   H480      1.0  0.78391  0.31526  0.59714  1.0000
  S   S85       1.0  0.65696  0.01067  0.51028  1.0000
  H   H481      1.0  0.58723  0.02965  0.42991  1.0000
  H   H482      1.0  0.70603  0.47077  0.46098  1.0000
  H   H483      1.0  0.77305  0.42063  0.40880  1.0000
  H   H484      1.0  0.53150  0.03509  0.43332  1.0000
  H   H485      1.0  0.57078  0.48215  0.42810  1.0000
  C   C286      1.0  0.58719  0.01296  0.44452  1.0000
  H   H486      1.0  0.79390  0.41567  0.45529  1.0000
  Fe  Fe43      1.0  0.98123  0.30605  0.47800  1.0000
  H   H487      1.0  0.78023  0.31714  0.62556  1.0000
  H   H488      1.0  0.77013  0.47899  0.41276  1.0000
  H   H489      1.0  0.73341  0.48696  0.42632  1.0000
  H   H490      1.0  0.50264  0.31777  0.47801  1.0000
  C   C287      1.0  0.88996  0.34796  0.62684  1.0000
  H   H491      1.0  0.97705  0.37830  0.52668  1.0000
  H   H492      1.0  0.88927  0.37564  0.62414  1.0000
  H   H493      1.0  0.50026  0.47797  0.33585  1.0000
  H   H494      1.0  0.49890  0.46220  0.36291  1.0000
  Fe  Fe44      1.0  0.67549  0.00088  0.47747  1.0000
  Fe  Fe45      1.0  0.63811  0.03272  0.89131  1.0000
  S   S86       1.0  0.66959  0.08212  0.90421  1.0000
  H   H495      1.0  0.91614  0.40937  0.92395  1.0000
  C   C288      1.0  0.85712  0.34744  0.66925  1.0000
  H   H496      1.0  0.75244  0.11195  0.66270  1.0000
  S   S87       1.0  0.94049  0.33075  0.92132  1.0000
  S   S88       1.0  0.86754  0.26941  0.91817  1.0000
  Fe  Fe46      1.0  0.92229  0.28126  0.90431  1.0000
  S   S89       1.0  0.93664  0.28243  0.86920  1.0000
  H   H497      1.0  0.85012  0.30306  0.78908  1.0000
  Fe  Fe47      1.0  0.64129  0.27128  0.86403  1.0000
  S   S90       1.0  0.62467  0.23090  0.83984  1.0000
  C   C289      1.0  0.98655  0.46013  0.96296  1.0000
  Fe  Fe48      1.0  0.81662  0.16394  0.79636  1.0000
  S   S91       1.0  0.83109  0.21010  0.77272  1.0000
  S   S92       1.0  0.84518  0.15337  0.82472  1.0000
  Fe  Fe49      1.0  0.74908  0.13056  0.77658  1.0000
  S   S93       1.0  0.75763  0.17309  0.75092  1.0000
  S   S94       1.0  0.70047  0.08729  0.77453  1.0000
  Fe  Fe50      1.0  0.81258  0.17027  0.74865  1.0000
  S   S95       1.0  0.83671  0.17237  0.71559  1.0000
  Fe  Fe51      1.0  0.77495  0.20905  0.77687  1.0000
  S   S96       1.0  0.75649  0.25730  0.77705  1.0000
  S   S97       1.0  0.80264  0.12379  0.77181  1.0000
  S   S98       1.0  0.76213  0.16690  0.80307  1.0000
  H   H498      1.0  0.65209  0.03639  0.67290  1.0000
  S   S99       1.0  0.75534  0.25655  0.66057  1.0000
  C   C290      1.0  0.81885  0.19947  0.69957  1.0000
  C   C291      1.0  0.80540  0.22492  0.70874  1.0000
  C   C292      1.0  0.78723  0.24356  0.69638  1.0000
  C   C293      1.0  0.78160  0.23604  0.67506  1.0000
  C   C294      1.0  0.79648  0.21179  0.66568  1.0000
  C   C295      1.0  0.81555  0.19391  0.67781  1.0000
  H   H499      1.0  0.80874  0.23004  0.72543  1.0000
  H   H500      1.0  0.77660  0.26296  0.70355  1.0000
  H   H501      1.0  0.79331  0.20658  0.64913  1.0000
  H   H502      1.0  0.82664  0.17490  0.67052  1.0000
  C   C296      1.0  0.65821  0.23778  0.82000  1.0000
  C   C297      1.0  0.66888  0.20948  0.81250  1.0000
  C   C298      1.0  0.69855  0.21533  0.79870  1.0000
  C   C299      1.0  0.71714  0.24939  0.79212  1.0000
  C   C300      1.0  0.70482  0.27744  0.79822  1.0000
  C   C301      1.0  0.67566  0.27167  0.81242  1.0000
  H   H503      1.0  0.65508  0.18317  0.81797  1.0000
  H   H504      1.0  0.70700  0.19345  0.79328  1.0000
  H   H505      1.0  0.71841  0.30375  0.79258  1.0000
  H   H506      1.0  0.66676  0.29353  0.81753  1.0000
  H   H507      1.0  0.61990  0.26738  0.76452  1.0000
  H   H508      1.0  0.94355  0.45103  0.92898  1.0000
  S   S100      1.0  0.60474  0.01475  0.92154  1.0000
  H   H509      1.0  0.87844  0.31325  0.87219  1.0000
  C   C302      1.0  0.91078  0.24681  0.85685  1.0000
  C   C303      1.0  0.91169  0.24653  0.83448  1.0000
  C   C304      1.0  0.89079  0.21831  0.82444  1.0000
  C   C305      1.0  0.86942  0.19012  0.83680  1.0000
  C   C306      1.0  0.86854  0.19042  0.85914  1.0000
  C   C307      1.0  0.88888  0.21891  0.86917  1.0000
  H   H510      1.0  0.92870  0.26809  0.82494  1.0000
  H   H511      1.0  0.89196  0.21786  0.80718  1.0000
  H   H512      1.0  0.85216  0.16859  0.86874  1.0000
  H   H513      1.0  0.88821  0.21893  0.88643  1.0000
  S   S101      1.0  0.67549  0.00150  0.89913  1.0000
  C   C308      1.0  0.63607  0.04615  0.83684  1.0000
  C   C309      1.0  0.66678  0.07274  0.83732  1.0000
  C   C310      1.0  0.68647  0.08611  0.81819  1.0000
  C   C311      1.0  0.67563  0.07262  0.79864  1.0000
  C   C312      1.0  0.64454  0.04650  0.79819  1.0000
  C   C313      1.0  0.83713  0.06144  0.84086  1.0000
  H   H514      1.0  0.67523  0.08297  0.85243  1.0000
  H   H515      1.0  0.71021  0.10648  0.81863  1.0000
  H   H516      1.0  0.72515  0.19266  0.92263  1.0000
  S   S102      1.0  0.67701  0.03255  0.94684  1.0000
  H   H517      1.0  0.56062  0.21017  0.90995  1.0000
  H   H518      1.0  0.85919  0.06394  0.87285  1.0000
  H   H519      1.0  0.79577  0.31683  0.79633  1.0000
  H   H520      1.0  0.65141  0.25317  0.71059  1.0000
  N   N21       1.0  0.57660  0.14392  0.87889  1.0000
  C   C314      1.0  0.56259  0.17407  0.88511  1.0000
  C   C315      1.0  0.56598  0.13556  0.85651  1.0000
  C   C316      1.0  0.61566  0.15553  0.87920  1.0000
  C   C317      1.0  0.56174  0.11393  0.89510  1.0000
  C   C318      1.0  0.57499  0.19063  0.90616  1.0000
  H   H521      1.0  0.74726  0.06653  0.66449  1.0000
  C   C319      1.0  0.63645  0.13595  0.86551  1.0000
  H   H522      1.0  0.56942  0.19553  0.87232  1.0000
  H   H523      1.0  0.69818  0.27373  0.96875  1.0000
  H   H524      1.0  0.57700  0.11503  0.85008  1.0000
  H   H525      1.0  0.57685  0.15879  0.84528  1.0000
  H   H526      1.0  0.62572  0.18347  0.87367  1.0000
  H   H527      1.0  0.62390  0.15405  0.89576  1.0000
  H   H528      1.0  0.57270  0.11994  0.91094  1.0000
  H   H529      1.0  0.73009  0.04975  0.84189  1.0000
  H   H530      1.0  0.85041  0.10412  0.86310  1.0000
  H   H531      1.0  0.82533  0.35860  0.64503  1.0000
  H   H532      1.0  0.75584  0.01113  0.83216  1.0000
  H   H533      1.0  0.60079  0.01315  0.81673  1.0000
  H   H534      1.0  0.78782  0.29353  0.96015  1.0000
  H   H535      1.0  0.80081  0.03741  0.88115  1.0000
  H   H536      1.0  0.62745  0.10738  0.86839  1.0000
  H   H537      1.0  0.66411  0.14415  0.86941  1.0000
  H   H538      1.0  0.63564  0.14272  0.84822  1.0000
  H   H539      1.0  0.76444  0.32629  0.81541  1.0000
  Fe  Fe52      1.0  0.95473  0.29596  0.94642  1.0000
  H   H540      1.0  0.77076  0.19490  0.96138  1.0000
  H   H541      1.0  0.65002  0.28187  0.74210  1.0000
  H   H542      1.0  0.73345  0.17519  0.69970  1.0000
  H   H543      1.0  0.80239  0.11852  0.68772  1.0000
  H   H544      1.0  0.79677  0.07201  0.68679  1.0000
  H   H545      1.0  0.67361  0.07919  0.69848  1.0000
  S   S103      1.0  0.93956  0.24695  0.92846  1.0000
  S   S104      1.0  0.66353  0.32821  0.85571  1.0000
  C   C320      1.0  0.69260  0.07729  0.68533  1.0000
  H   H546      1.0  0.92532  0.38317  0.95759  1.0000
  H   H547      1.0  0.61500  0.37271  0.92238  1.0000
  C   C321      1.0  0.82065  0.36038  0.88924  1.0000
  H   H548      1.0  0.68998  0.09588  0.67210  1.0000
  C   C322      1.0  0.62342  0.13642  0.95397  1.0000
  H   H549      1.0  0.51398  0.14473  0.85618  1.0000
  H   H550      1.0  0.70322  0.28035  0.74489  1.0000
  H   H551      1.0  0.87474  0.27578  0.79907  1.0000
  H   H552      1.0  0.78771  0.21349  0.93589  1.0000
  C   C323      1.0  0.52662  0.12342  0.85380  1.0000
  H   H553      1.0  0.54603  0.30325  0.91817  1.0000
  C   C324      1.0  0.64920  0.17415  0.73552  1.0000
  H   H554      1.0  0.51383  0.10035  0.86456  1.0000
  H   H555      1.0  0.89986  0.29523  0.65256  1.0000
  C   C325      1.0  0.66191  0.21271  0.69240  1.0000
  H   H556      1.0  0.50288  0.28589  0.90998  1.0000
  C   C326      1.0  0.67970  0.04059  0.67666  1.0000
  H   H557      1.0  0.90558  0.34798  0.64100  1.0000
  H   H558      1.0  0.76147  0.04517  0.73522  1.0000
  C   C327      1.0  0.92583  0.42711  0.93686  1.0000
  C   C328      1.0  0.78368  0.04714  0.80723  1.0000
  Fe  Fe53      1.0  0.50509  0.46791  0.94727  1.0000
  H   H559      1.0  0.81671  0.00795  0.86593  1.0000
  C   C329      1.0  0.58937  0.40799  0.93710  1.0000
  H   H560      1.0  0.69372  0.03808  0.66141  1.0000
  H   H561      1.0  0.61483  0.20564  0.75733  1.0000
  S   S105      1.0  0.63791  0.25381  0.94436  1.0000
  H   H562      1.0  0.65361  0.18405  0.69122  1.0000
  H   H563      1.0  0.96531  0.40091  0.94349  1.0000
  C   C330      1.0  0.69701  0.22693  0.73485  1.0000
  N   N22       1.0  0.75649  0.24223  0.95270  1.0000
  H   H564      1.0  0.71855  0.24541  0.92946  1.0000
  C   C331      1.0  0.77580  0.10714  0.94461  1.0000
  C   C332      1.0  0.56056  0.43894  0.91312  1.0000
  S   S106      1.0  0.60431  0.27913  0.88994  1.0000
  C   C333      1.0  0.56786  0.07837  0.89036  1.0000
  H   H565      1.0  0.56611  0.07228  0.87337  1.0000
  H   H566      1.0  0.79943  0.36047  0.80384  1.0000
  N   N23       1.0  0.72895  0.08683  0.69306  1.0000
  Fe  Fe54      1.0  0.70456  0.04953  0.91479  1.0000
  Fe  Fe55      1.0  0.63959  0.06152  0.93519  1.0000
  Fe  Fe56      1.0  0.88603  0.23908  0.94395  1.0000
  S   S107      1.0  0.68299  0.26735  0.88604  1.0000
  C   C334      1.0  0.59022  0.39799  0.89915  1.0000
  H   H567      1.0  0.65554  0.14081  0.92505  1.0000
  C   C335      1.0  0.79236  0.09543  0.67842  1.0000
  C   C336      1.0  0.78511  0.35585  0.89335  1.0000
  H   H568      1.0  0.85987  0.27109  0.66683  1.0000
  H   H569      1.0  0.76914  0.02979  0.79542  1.0000
  H   H570      1.0  0.61738  0.21425  0.71251  1.0000
  C   C337      1.0  0.75838  0.06904  0.72659  1.0000
  H   H571      1.0  0.78296  0.35145  0.94777  1.0000
  H   H572      1.0  0.66339  0.20474  0.91904  1.0000
  C   C338      1.0  0.82438  0.15880  0.94612  1.0000
  H   H573      1.0  0.59317  0.07646  0.89601  1.0000
  H   H574      1.0  0.78441  0.08447  0.72043  1.0000
  C   C339      1.0  0.75398  0.09013  0.67389  1.0000
  H   H575      1.0  0.74076  0.27274  0.73241  1.0000
  H   H576      1.0  0.60282  0.20489  0.90450  1.0000
  Fe  Fe57      1.0  0.70196  0.32545  0.88015  1.0000
  H   H577      1.0  0.83145  0.36419  0.87301  1.0000
  C   C340      1.0  0.73207  0.05841  0.70909  1.0000
  Fe  Fe58      1.0  0.64792  0.28006  0.91139  1.0000
  Fe  Fe59      1.0  0.62991  0.33610  0.88349  1.0000
  H   H578      1.0  0.86923  0.36039  0.90271  1.0000
  C   C341      1.0  0.64362  0.15461  0.93623  1.0000
  H   H579      1.0  0.65240  0.22414  0.67814  1.0000
  C   C342      1.0  0.64825  0.19080  0.93292  1.0000
  H   H580      1.0  0.85522  0.17544  0.91669  1.0000
  Fe  Fe60      1.0  0.88763  0.31522  0.93794  1.0000
  S   S108      1.0  0.75817  0.35126  0.87178  1.0000
  C   C343      1.0  0.83309  0.15654  0.92450  1.0000
  C   C344      1.0  0.78500  0.10441  0.92312  1.0000
  C   C345      1.0  0.81377  0.12901  0.91314  1.0000
  C   C346      1.0  0.84210  0.35873  0.90606  1.0000
  H   H581      1.0  0.60663  0.25601  0.73834  1.0000
  H   H582      1.0  0.82116  0.12673  0.89660  1.0000
  C   C347      1.0  0.57121  0.42241  0.89583  1.0000
  H   H583      1.0  0.63587  0.03606  0.78314  1.0000
  H   H584      1.0  0.77148  0.24090  0.90695  1.0000
  S   S109      1.0  0.76244  0.06934  0.90874  1.0000
  C   C348      1.0  0.65550  0.15729  0.75718  1.0000
  H   H585      1.0  0.80664  0.34188  0.84194  1.0000
  C   C349      1.0  0.82845  0.35512  0.92716  1.0000
  C   C350      1.0  0.77562  0.27208  0.84083  1.0000
  C   C351      1.0  0.85901  0.08105  0.85845  1.0000
  C   C352      1.0  0.62470  0.03352  0.81720  1.0000
  H   H586      1.0  0.74422  0.35030  0.91777  1.0000
  C   C353      1.0  0.72469  0.15089  0.69111  1.0000
  C   C354      1.0  0.52318  0.31040  0.91182  1.0000
  C   C355      1.0  0.77154  0.35307  0.91448  1.0000
  S   S110      1.0  0.67030  0.33820  0.90743  1.0000
  H   H587      1.0  0.70695  0.27719  0.71594  1.0000
  H   H588      1.0  0.87032  0.32802  0.67507  1.0000
  H   H589      1.0  0.56407  0.42806  0.87987  1.0000
  H   H590      1.0  0.73647  0.09229  0.85063  1.0000
  H   H591      1.0  0.65521  0.22812  0.76675  1.0000
  H   H592      1.0  0.73732  0.15611  0.67482  1.0000
  C   C356      1.0  0.64609  0.22440  0.71277  1.0000
  N   N24       1.0  0.65828  0.21354  0.73380  1.0000
  H   H593      1.0  0.53341  0.10997  0.89853  1.0000
  H   H594      1.0  0.78082  0.21808  0.84056  1.0000
  S   S111      1.0  0.59821  0.37403  0.87759  1.0000
  C   C357      1.0  0.73428  0.12096  0.70379  1.0000
  H   H595      1.0  0.76331  0.28683  0.85209  1.0000
  H   H596      1.0  0.75843  0.27947  0.90069  1.0000
  H   H597      1.0  0.66436  0.16405  0.72325  1.0000
  C   C358      1.0  0.63959  0.22548  0.75235  1.0000
  C   C359      1.0  0.76923  0.26574  0.91336  1.0000
  C   C360      1.0  0.79217  0.33270  0.80985  1.0000
  H   H598      1.0  0.76049  0.27008  0.82628  1.0000
  C   C361      1.0  0.78928  0.26607  0.96012  1.0000
  H   H599      1.0  0.69626  0.14583  0.69007  1.0000
  C   C362      1.0  0.74492  0.25992  0.93373  1.0000
  H   H600      1.0  0.76158  0.13115  0.70803  1.0000
  H   H601      1.0  0.84137  0.34376  0.82360  1.0000
  H   H602      1.0  0.71074  0.21476  0.72289  1.0000
  C   C363      1.0  0.85894  0.29343  0.80416  1.0000
  H   H603      1.0  0.87636  0.37305  0.66577  1.0000
  H   H604      1.0  0.53224  0.35904  0.92703  1.0000
  H   H605      1.0  0.79534  0.28247  0.91612  1.0000
  C   C364      1.0  0.71216  0.26664  0.73172  1.0000
  C   C365      1.0  0.63317  0.20877  0.94763  1.0000
  C   C366      1.0  0.76867  0.23442  0.85056  1.0000
  C   C367      1.0  0.81472  0.32819  0.82843  1.0000
  C   C368      1.0  0.56855  0.43089  0.93386  1.0000
  C   C369      1.0  0.79578  0.13400  0.95616  1.0000
  S   S112      1.0  0.85452  0.34994  0.94802  1.0000
  H   H606      1.0  0.79206  0.09742  0.83889  1.0000
  H   H607      1.0  0.68334  0.16345  0.76036  1.0000
  C   C370      1.0  0.79614  0.02212  0.86662  1.0000
  C   C371      1.0  0.62880  0.25974  0.74884  1.0000
  H   H608      1.0  0.74193  0.28595  0.93779  1.0000
  C   C372      1.0  0.86893  0.31490  0.85589  1.0000
  H   H609      1.0  0.81689  0.29812  0.86951  1.0000
  H   H610      1.0  0.87049  0.34274  0.85235  1.0000
  H   H611      1.0  0.52223  0.11559  0.83713  1.0000
  H   H612      1.0  0.73872  0.00345  0.86993  1.0000
  H   H613      1.0  0.90279  0.43308  0.94460  1.0000
  C   C373      1.0  0.74361  0.06751  0.85369  1.0000
  C   C374      1.0  0.87460  0.27619  0.65107  1.0000
  H   H614      1.0  0.81160  0.26706  0.94876  1.0000
  H   H615      1.0  0.87666  0.31511  0.81172  1.0000
  H   H616      1.0  0.77064  0.06825  0.80924  1.0000
  H   H617      1.0  0.74025  0.22217  0.85158  1.0000
  C   C375      1.0  0.78332  0.07573  0.85128  1.0000
  H   H618      1.0  0.84104  0.08045  0.82687  1.0000
  H   H619      1.0  0.79292  0.08808  0.86618  1.0000
  H   H620      1.0  0.59591  0.40195  0.95312  1.0000
  C   C376      1.0  0.94421  0.40833  0.95270  1.0000
  H   H621      1.0  0.54605  0.45784  0.91035  1.0000
  C   C377      1.0  0.79346  0.35362  0.93143  1.0000
  H   H622      1.0  0.81032  0.05820  0.80006  1.0000
  H   H623      1.0  0.80799  0.09977  0.66298  1.0000
  H   H624      1.0  0.83949  0.35090  0.68268  1.0000
  H   H625      1.0  0.75393  0.08800  0.95248  1.0000
  H   H626      1.0  0.73833  0.03650  0.70073  1.0000
  N   N25       1.0  0.79902  0.04607  0.84684  1.0000
  H   H627      1.0  0.73333  0.05727  0.87000  1.0000
  H   H628      1.0  0.88630  0.09116  0.85204  1.0000
  C   C378      1.0  0.78329  0.02561  0.82837  1.0000
  S   S113      1.0  0.61494  0.09098  0.95812  1.0000
  H   H629      1.0  0.69058  0.22221  0.69101  1.0000
  H   H630      1.0  0.81246  0.31498  0.65576  1.0000
  H   H631      1.0  0.97530  0.47914  0.95427  1.0000
  H   H632      1.0  0.64654  0.12845  0.75668  1.0000
  H   H633      1.0  0.77750  0.23387  0.86706  1.0000
  S   S114      1.0  0.84848  0.19226  0.96111  1.0000
  H   H634      1.0  0.71845  0.11688  0.71923  1.0000
  N   N26       1.0  0.81322  0.29109  0.83556  1.0000
  H   H635      1.0  0.80714  0.26126  0.80739  1.0000
  C   C379      1.0  0.83195  0.29084  0.85593  1.0000
  H   H636      1.0  0.84943  0.04076  0.83585  1.0000
  H   H637      1.0  0.64101  0.16454  0.77093  1.0000
  C   C380      1.0  0.82756  0.27205  0.81857  1.0000
  H   H638      1.0  0.83464  0.24902  0.82581  1.0000
  H   H639      1.0  0.83416  0.26416  0.86045  1.0000
  H   H640      1.0  0.70532  0.21928  0.75055  1.0000
  H   H641      1.0  0.88693  0.30633  0.84491  1.0000
  H   H642      1.0  0.68078  0.01933  0.68839  1.0000
  H   H643      1.0  0.62136  0.16299  0.73241  1.0000
  H   H644      1.0  0.70682  0.04685  0.71825  1.0000
  C   C381      1.0  0.60018  0.39144  0.91972  1.0000
  S   S115      1.0  0.61105  0.02846  0.86040  1.0000
  C   C382      1.0  0.83556  0.33603  0.64974  1.0000
  S   S116      1.0  0.54984  0.44657  0.95587  1.0000
  H   H645      1.0  0.54715  0.05730  0.89889  1.0000
  H   H646      1.0  0.74869  0.08421  0.73871  1.0000
  C   C383      1.0  0.76419  0.20856  0.94696  1.0000
  H   H647      1.0  0.53217  0.32402  0.89595  1.0000
  H   H648      1.0  0.53379  0.16606  0.88691  1.0000
  H   H649      1.0  0.70349  0.21771  0.96392  1.0000
  C   C384      1.0  0.73472  0.18182  0.93697  1.0000
  H   H650      1.0  0.74465  0.15988  0.93162  1.0000
  H   H651      1.0  0.79672  0.00504  0.82501  1.0000
  H   H652      1.0  0.71296  0.17050  0.94889  1.0000
  H   H653      1.0  0.88116  0.25179  0.64679  1.0000
  H   H654      1.0  0.57017  0.17154  0.92008  1.0000
  C   C385      1.0  0.51128  0.33445  0.92743  1.0000
  C   C386      1.0  0.61406  0.19065  0.96570  1.0000
  S   S117      1.0  0.90310  0.28451  0.96452  1.0000
  C   C387      1.0  0.60888  0.15458  0.96874  1.0000
  H   H655      1.0  0.51094  0.32194  0.94369  1.0000
  H   H656      1.0  0.50185  0.36183  0.96700  1.0000
  C   C388      1.0  0.72773  0.23433  0.96995  1.0000
  H   H657      1.0  0.50183  0.38154  0.89872  1.0000
  H   H658      1.0  0.49359  0.39391  0.93531  1.0000
  N   N27       1.0  0.95851  0.42844  0.97163  1.0000
  S   S118      1.0  0.68245  0.18208  0.63948  1.0000
  C   C389      1.0  0.55983  0.56284  0.00470  1.0000
  H   H659      1.0  0.55708  0.71799  0.06101  1.0000
  H   H660      1.0  0.53290  0.68781  0.17065  1.0000
  H   H661      1.0  0.54551  0.82699  0.97399  1.0000
  N   N28       1.0  0.52874  0.61059  0.01395  1.0000
  H   H662      1.0  0.63284  0.98402  0.04236  1.0000
  H   H663      1.0  0.64894  0.97465  0.98433  1.0000
  H   H664      1.0  0.54526  0.65049  0.03662  1.0000
  C   C390      1.0  0.55270  0.62733  0.03075  1.0000
  H   H665      1.0  0.64942  0.92092  0.00461  1.0000
  C   C391      1.0  0.62592  0.93062  0.00646  1.0000
  C   C392      1.0  0.60656  0.98795  0.04357  1.0000
  H   H666      1.0  0.60241  0.62116  0.01657  1.0000
  H   H667      1.0  0.60618  0.64865  0.03858  1.0000
  H   H668      1.0  0.57072  0.95186  0.02492  1.0000
  H   H669      1.0  0.55208  0.53696  0.99763  1.0000
  H   H670      1.0  0.50331  0.65570  0.20289  1.0000
  H   H671      1.0  0.54119  0.59784  0.29688  1.0000
  H   H672      1.0  0.56659  0.63188  0.98737  1.0000
  C   C393      1.0  0.63610  0.97023  0.00074  1.0000
  H   H673      1.0  0.60713  0.91582  0.99560  1.0000
  C   C394      1.0  0.52698  0.57237  0.01315  1.0000
  N   N29       1.0  0.60695  0.98770  0.00209  1.0000
  S   S119      1.0  0.53073  0.71487  0.01925  1.0000
  H   H674      1.0  0.53505  0.98769  0.99546  1.0000
  C   C395      1.0  0.53936  0.63009  0.99248  1.0000
  C   C396      1.0  0.58287  0.97371  0.98473  1.0000
  C   C397      1.0  0.52946  0.70603  0.06279  1.0000
  H   H675      1.0  0.57016  0.94541  0.98781  1.0000
  H   H676      1.0  0.57716  0.56127  0.01784  1.0000
  C   C398      1.0  0.50971  0.70219  0.04473  1.0000
  H   H677      1.0  0.59283  0.96968  0.05700  1.0000
  C   C399      1.0  0.59163  0.64089  0.02410  1.0000
  H   H678      1.0  0.61563  0.92434  0.02328  1.0000
  H   H679      1.0  0.59665  0.66472  0.01324  1.0000
  H   H680      1.0  0.53843  0.65772  0.99346  1.0000
  H   H681      1.0  0.52909  0.69792  0.09705  1.0000
  H   H682      1.0  0.55022  0.60911  0.04509  1.0000
  H   H683      1.0  0.52052  0.55908  0.02935  1.0000
  H   H684      1.0  0.57445  0.58066  0.99149  1.0000
  H   H685      1.0  0.52044  0.64254  0.16583  1.0000
  C   C400      1.0  0.58633  0.97961  0.02323  1.0000
  C   C401      1.0  0.51017  0.66523  0.16895  1.0000
  H   H686      1.0  0.65713  0.98161  0.01129  1.0000
  C   C402      1.0  0.51363  0.69460  0.08318  1.0000
  C   C403      1.0  0.51770  0.61488  0.97373  1.0000
  C   C404      1.0  0.55323  0.99119  0.98121  1.0000
  H   H687      1.0  0.50512  0.55847  0.00381  1.0000
  H   H688      1.0  0.56636  0.99441  0.02403  1.0000
  H   H689      1.0  0.49703  0.67174  0.15474  1.0000
  C   C405      1.0  0.49284  0.61361  0.02024  1.0000
  Fe  Fe61      1.0  0.49516  0.72201  0.99369  1.0000
  H   H690      1.0  0.49417  0.61574  0.05554  1.0000
  C   C406      1.0  0.54378  0.71359  0.37206  1.0000
  C   C407      1.0  0.56799  0.76836  0.52382  1.0000
  H   H691      1.0  0.60529  0.90815  0.43328  1.0000
  H   H692      1.0  0.59046  0.69426  0.39292  1.0000
  H   H693      1.0  0.66057  0.86492  0.49556  1.0000
  C   C408      1.0  0.60647  0.93577  0.46214  1.0000
  C   C409      1.0  0.58682  0.94224  0.47973  1.0000
  H   H694      1.0  0.54144  0.66421  0.46937  1.0000
  H   H695      1.0  0.52224  0.72589  0.36953  1.0000
  S   S120      1.0  0.51723  0.80445  0.44397  1.0000
  C   C410      1.0  0.59020  0.91319  0.44693  1.0000
  Fe  Fe62      1.0  0.51059  0.50065  0.44441  1.0000
  H   H696      1.0  0.58478  0.81939  0.53646  1.0000
  S   S121      1.0  0.52155  0.55625  0.43184  1.0000
  H   H697      1.0  0.65567  0.90211  0.50884  1.0000
  C   C411      1.0  0.56779  0.64099  0.38515  1.0000
  C   C412      1.0  0.61231  0.83494  0.46214  1.0000
  H   H698      1.0  0.55091  0.74935  0.43140  1.0000
  H   H699      1.0  0.53169  0.86424  0.51217  1.0000
  H   H700      1.0  0.52146  0.69201  0.42526  1.0000
  H   H701      1.0  0.56457  0.66689  0.41398  1.0000
  H   H702      1.0  0.53996  0.76703  0.52422  1.0000
  C   C413      1.0  0.64534  0.87333  0.50845  1.0000
  C   C414      1.0  0.52905  0.83578  0.51411  1.0000
  H   H703      1.0  0.63127  0.86066  0.46327  1.0000
  H   H704      1.0  0.59548  0.64127  0.38263  1.0000
  H   H705      1.0  0.54220  0.87991  0.43733  1.0000
  C   C415      1.0  0.56545  0.67408  0.39652  1.0000
  H   H706      1.0  0.60331  0.88119  0.49027  1.0000
  H   H707      1.0  0.55920  0.76321  0.40381  1.0000
  C   C416      1.0  0.59090  0.80626  0.52206  1.0000
  C   C417      1.0  0.53501  0.90279  0.46709  1.0000
  C   C418      1.0  0.55454  0.89690  0.44932  1.0000
  S   S122      1.0  0.54306  0.55238  0.37020  1.0000
  H   H708      1.0  0.58976  0.78651  0.47998  1.0000
  C   C419      1.0  0.55160  0.82423  0.49676  1.0000
  C   C420      1.0  0.50238  0.66095  0.38843  1.0000
  H   H709      1.0  0.55060  0.84071  0.48219  1.0000
  C   C421      1.0  0.55715  0.74079  0.41543  1.0000
  C   C422      1.0  0.52557  0.57283  0.34982  1.0000
  H   H710      1.0  0.76343  0.50921  0.45465  1.0000
  C   C423      1.0  0.55118  0.92563  0.48224  1.0000
  H   H711      1.0  0.53489  0.82941  0.53061  1.0000
  C   C424      1.0  0.60575  0.81289  0.48355  1.0000
  H   H712      1.0  0.55595  0.61717  0.39557  1.0000
  H   H713      1.0  0.57264  0.75536  0.53902  1.0000
  S   S123      1.0  0.65162  0.95330  0.45948  1.0000
  H   H714      1.0  0.62349  0.82094  0.44996  1.0000
  C   C425      1.0  0.60637  0.86488  0.50444  1.0000
  N   N30       1.0  0.58868  0.82709  0.50174  1.0000
  C   C426      1.0  0.54246  0.57882  0.32948  1.0000
  H   H715      1.0  0.53630  0.92969  0.49625  1.0000
  Fe  Fe63      1.0  0.50929  0.53337  0.40010  1.0000
  H   H716      1.0  0.53792  0.79757  0.49230  1.0000
  H   H717      1.0  0.63114  0.80898  0.48797  1.0000
  H   H718      1.0  0.58816  0.83887  0.45590  1.0000
  H   H719      1.0  0.64994  0.86187  0.52414  1.0000
  H   H720      1.0  0.59378  0.87493  0.51805  1.0000
  H   H721      1.0  0.61797  0.80470  0.52393  1.0000
  H   H722      1.0  0.57438  0.75301  0.51064  1.0000
  C   C427      1.0  0.49630  0.68239  0.47643  1.0000
  H   H723      1.0  0.50441  0.71842  0.40755  1.0000
  N   N31       1.0  0.53528  0.68872  0.39159  1.0000
  C   C428      1.0  0.49508  0.58299  0.35353  1.0000
  H   H724      1.0  0.55684  0.63821  0.36927  1.0000
  H   H725      1.0  0.50764  0.60731  0.45745  1.0000
  C   C429      1.0  0.51343  0.65779  0.47004  1.0000
  S   S124      1.0  0.51964  0.72527  0.48000  1.0000
  C   C430      1.0  0.52776  0.70896  0.41023  1.0000
  C   C431      1.0  0.49730  0.60318  0.31618  1.0000
  C   C432      1.0  0.55126  0.69831  0.35077  1.0000
  H   H726      1.0  0.58252  0.73475  0.41627  1.0000
  S   S125      1.0  0.49420  0.78028  0.38459  1.0000
  H   H727      1.0  0.59932  0.95903  0.49177  1.0000
  H   H728      1.0  0.50912  0.62844  0.41674  1.0000
  H   H729      1.0  0.52292  0.98213  0.48360  1.0000
  H   H730      1.0  0.50524  0.64499  0.37484  1.0000
  H   H731      1.0  0.57038  0.98641  0.44274  1.0000
  H   H732      1.0  0.56704  0.73541  0.37422  1.0000
  C   C433      1.0  0.52833  0.59390  0.31269  1.0000
  H   H733      1.0  0.57571  0.69024  0.35088  1.0000
  H   H734      1.0  0.80040  0.51260  0.43734  1.0000
  H   H735      1.0  0.51831  0.98195  0.45609  1.0000
  C   C434      1.0  0.49432  0.62569  0.46312  1.0000
  H   H736      1.0  0.50143  0.82164  0.51263  1.0000
  H   H737      1.0  0.55503  0.71906  0.33777  1.0000
  H   H738      1.0  0.56625  0.57129  0.32659  1.0000
  H   H739      1.0  0.52951  0.67666  0.34629  1.0000
  C   C435      1.0  0.52118  0.86363  0.95937  1.0000
  C   C436      1.0  0.58346  0.87347  0.96128  1.0000
  C   C437      1.0  0.56084  0.91808  0.94456  1.0000
  C   C438      1.0  0.55844  0.84105  0.88432  1.0000
  H   H740      1.0  0.54866  0.75931  0.90898  1.0000
  H   H741      1.0  0.54982  0.88814  0.89827  1.0000
  S   S126      1.0  0.51487  0.75492  0.96345  1.0000
  H   H742      1.0  0.60429  0.82737  0.91618  1.0000
  H   H743      1.0  0.54312  0.84991  0.87187  1.0000
  C   C439      1.0  0.56323  0.78628  0.90322  1.0000
  C   C440      1.0  0.54960  0.85216  0.96562  1.0000
  C   C441      1.0  0.58926  0.90649  0.95076  1.0000
  H   H744      1.0  0.59391  0.88818  0.89499  1.0000
  H   H745      1.0  0.52858  0.63086  0.95883  1.0000
  H   H746      1.0  0.60527  0.86433  0.96619  1.0000
  C   C442      1.0  0.52692  0.89677  0.94897  1.0000
  H   H747      1.0  0.56493  0.94332  0.93629  1.0000
  H   H748      1.0  0.56851  0.80728  0.93546  1.0000
  Fe  Fe64      1.0  0.64442  0.98715  0.93044  1.0000
  S   S127      1.0  0.63230  0.93250  0.94603  1.0000
  H   H749      1.0  0.59932  0.78466  0.92778  1.0000
  N   N32       1.0  0.53884  0.80551  0.89399  1.0000
  C   C443      1.0  0.76183  0.99353  0.87115  1.0000
  C   C444      1.0  0.54345  0.77465  0.85874  1.0000
  H   H750      1.0  0.58278  0.78336  0.89082  1.0000
  H   H751      1.0  0.56822  0.86286  0.91663  1.0000
  H   H752      1.0  0.58303  0.83966  0.87587  1.0000
  C   C445      1.0  0.56764  0.87110  0.89971  1.0000
  H   H753      1.0  0.53789  0.97854  0.96799  1.0000
  C   C446      1.0  0.58469  0.80288  0.92169  1.0000
  H   H754      1.0  0.52262  0.82117  0.92489  1.0000
  H   H755      1.0  0.76105  0.98222  0.88776  1.0000
  H   H756      1.0  0.55474  0.75350  0.86454  1.0000
  H   H757      1.0  0.56425  0.79743  0.85213  1.0000
  H   H758      1.0  0.76003  0.97195  0.86026  1.0000
  H   H759      1.0  0.59776  0.97635  0.96904  1.0000
  C   C447      1.0  0.52030  0.78432  0.87649  1.0000
  H   H760      1.0  0.52721  0.76418  0.84536  1.0000
  S   S128      1.0  0.50802  0.52504  0.94559  1.0000
  C   C448      1.0  0.51151  0.80696  0.91102  1.0000
  H   H761      1.0  0.50505  0.90579  0.94405  1.0000
  H   H762      1.0  0.50353  0.79838  0.86818  1.0000
  H   H763      1.0  0.50237  0.75947  0.88328  1.0000
  H   H764      1.0  0.49841  0.78022  0.91795  1.0000
  H   H765      1.0  0.51876  0.58788  0.97104  1.0000
  H   H766      1.0  0.49338  0.84895  0.89482  1.0000
  H   H767      1.0  0.49409  0.61432  0.86394  1.0000
  H   H768      1.0  0.49566  0.67435  0.87363  1.0000
