data_image0
_chemical_formula_structural       FeS2FeSHFeSFeS3FeS2FeH2FeHFeS3H2CHCH2CHC2HCHC7H4C3H6CHCH4N2C8H22C2SHC2H2CHCH4SHC3HSHC3NH2CH5SC4H2C2HCH5CH3C2HC2H2C3HC2SCH5C2H5CH8C2HCH4FeSHFeS2FeSFeS3FeSHFeS2FeSFeS3HC4H9CHCH2CHC6H12CHCHC2H2CHCHCSH2CSCHNHC2H2CH2CH2CH2C2H3CHC2H2C4H5CHCHCHCH3C5H2CHCH7NHNH3NH2CHC2HSC2H5NCSFeSHFeSCFeSFeS2HFeSCFeSHFeHFeS3CHC2H8CSC7H5CHCSHNHC2H2CH14CH3CH3NC2SCSHCH2SCHC4H2CHC2HCHC2H2NH2CH4CNH5CH3C4H2C2H3CHC3HCH5CH2C2NCHCH2NHCSCHCHCH2CSC3HCH9C2H3C2H6FeSHFeSHCFeSHSFeSHFeS2HFeS3CH2C2FeH2C6H5CHFeH3CH7CSNHC2HC3H2CHC2HC2H2C3HCH3CHCHCHCH7CH7NH5CHSHNHC2HC3H3CH8CH4C2H4CHCHC3H4NH10C2H4C2H2NH7C2FeSCH2FeNFeSHSHSFeS2FeSFeS3H2C4H3C6H7CFeH2CHC2HCHCH3CSCSH4C2HCH2CSCH4C2HCH6CH3CHCNCSCFeS2FeS2FeCFeS3FeS2FeSHFeHFeHS2HC8H7CH2CH4C6HNH2CH4C3HCH6C2H2C2NCSHSH5CH2CH6C3H6CH8C6SH3CH2C2H3CH2SC2H3FeH4CHC2H2CH4CHC2HCH3C2HC2H2CH2C3NHCH7CHSH2C2NCH6CH2CH2CH5CSCHCHC3H2SH3SHC2H3CH2CH2CNH2CH8CHCHFeSFe2CHFeS2FeS2FeNCSFe2SHFeSFeCSHFeS2FeS2FeCSH3CHCH2C3H2CHCH5C3HC8H2C7H2CSHC2NH3C2NC2HC2SHC2H11C2HFeH2FeC2H6CH2CSHCH3SNCHCH2CHCHCH4SCH2CH3C2HCH3C3H5CH2CFeHC2H3SH7CHCH4CH3S2CH3CSHCSHCHCH3C2H3SH3CHC2HCHCSCH2SH2SNH3CHCHSH3C4H2C2H4CH4NH2C3H3C2SC2H8CH12
_chemical_formula_sum              "Fe64 S128 H768 C448 N32"
_cell_length_a       38.4579
_cell_length_b       38.5964
_cell_length_c       47.3048
_cell_angle_alpha    90.2442
_cell_angle_beta     89.9413
_cell_angle_gamma    89.7576

_space_group_name_H-M_alt    "P 1"
_space_group_IT_number       1

loop_
  _space_group_symop_operation_xyz
  'x, y, z'

loop_
  _atom_site_type_symbol
  _atom_site_label
  _atom_site_symmetry_multiplicity
  _atom_site_fract_x
  _atom_site_fract_y
  _atom_site_fract_z
  _atom_site_occupancy
  Fe  Fe1       1.0  0.38562  0.40316  0.10641  1.0000
  S   S1        1.0  0.34844  0.36714  0.12808  1.0000
  S   S2        1.0  0.38262  0.38727  0.05981  1.0000
  Fe  Fe2       1.0  0.40728  0.43519  0.16440  1.0000
  S   S3        1.0  0.37143  0.40017  0.18873  1.0000
  H   H1        1.0  0.22132  0.45541  0.08740  1.0000
  Fe  Fe3       1.0  0.39044  0.35758  0.15943  1.0000
  S   S4        1.0  0.40834  0.30362  0.17304  1.0000
  Fe  Fe4       1.0  0.33241  0.41284  0.15454  1.0000
  S   S5        1.0  0.27365  0.41729  0.15988  1.0000
  S   S6        1.0  0.42887  0.39156  0.13710  1.0000
  S   S7        1.0  0.36688  0.44983  0.13123  1.0000
  Fe  Fe5       1.0  0.36774  0.10560  0.12982  1.0000
  S   S8        1.0  0.42434  0.09083  0.13240  1.0000
  S   S9        1.0  0.34225  0.15838  0.13815  1.0000
  Fe  Fe6       1.0  0.34803  0.03619  0.10214  1.0000
  H   H2        1.0  0.37210  0.10567  0.01826  1.0000
  H   H3        1.0  0.45003  0.16393  0.13301  1.0000
  Fe  Fe7       1.0  0.40445  0.03835  0.14673  1.0000
  H   H4        1.0  0.11030  0.45221  0.01047  1.0000
  Fe  Fe8       1.0  0.41831  0.07105  0.08751  1.0000
  S   S10       1.0  0.45159  0.09247  0.05098  1.0000
  S   S11       1.0  0.34817  0.05460  0.14720  1.0000
  S   S12       1.0  0.36247  0.08800  0.08468  1.0000
  H   H5        1.0  0.35606  0.16594  0.07430  1.0000
  H   H6        1.0  0.23626  0.40058  0.07161  1.0000
  C   C1        1.0  0.23291  0.47762  0.07604  1.0000
  H   H7        1.0  0.11456  0.45480  0.17762  1.0000
  C   C2        1.0  0.01097  0.02501  0.00651  1.0000
  H   H8        1.0  0.27256  0.40463  0.02698  1.0000
  H   H9        1.0  0.15726  0.46618  0.24996  1.0000
  C   C3        1.0  0.37691  0.18425  0.06810  1.0000
  H   H10       1.0  0.27343  0.37187  0.06871  1.0000
  C   C4        1.0  0.38217  0.38619  0.00198  1.0000
  C   C5        1.0  0.40976  0.43630  0.02276  1.0000
  H   H11       1.0  0.36833  0.36203  0.00439  1.0000
  C   C6        1.0  0.47289  0.07413  0.02082  1.0000
  H   H12       1.0  0.00652  0.36260  0.03711  1.0000
  C   C7        1.0  0.25518  0.01213  0.11821  1.0000
  C   C8        1.0  0.39163  0.26351  0.16063  1.0000
  C   C9        1.0  0.40674  0.23251  0.17032  1.0000
  C   C10       1.0  0.39259  0.20009  0.16293  1.0000
  C   C11       1.0  0.36282  0.19834  0.14603  1.0000
  C   C12       1.0  0.34801  0.22931  0.13599  1.0000
  C   C13       1.0  0.36257  0.26171  0.14291  1.0000
  H   H13       1.0  0.42915  0.23360  0.18411  1.0000
  H   H14       1.0  0.40399  0.17649  0.17109  1.0000
  H   H15       1.0  0.32495  0.22821  0.12292  1.0000
  H   H16       1.0  0.35075  0.28527  0.13512  1.0000
  C   C14       1.0  0.24912  0.45588  0.15557  1.0000
  C   C15       1.0  0.35294  0.00334  0.01538  1.0000
  C   C16       1.0  0.43463  0.47777  0.24358  1.0000
  H   H17       1.0  0.09503  0.46778  0.25441  1.0000
  H   H18       1.0  0.44143  0.16791  0.03652  1.0000
  H   H19       1.0  0.41773  0.45099  0.04116  1.0000
  H   H20       1.0  0.23564  0.44951  0.03718  1.0000
  H   H21       1.0  0.41262  0.46086  0.24040  1.0000
  H   H22       1.0  0.27666  0.01477  0.21019  1.0000
  C   C17       1.0  0.38984  0.00680  0.22910  1.0000
  H   H23       1.0  0.27143  0.03172  0.12780  1.0000
  C   C18       1.0  0.39237  0.40487  0.02616  1.0000
  H   H24       1.0  0.02246  0.05033  0.00936  1.0000
  H   H25       1.0  0.36774  0.21032  0.07470  1.0000
  H   H26       1.0  0.43023  0.21251  0.03425  1.0000
  H   H27       1.0  0.10027  0.44484  0.21239  1.0000
  N   N1        1.0  0.44254  0.19529  0.07675  1.0000
  N   N2        1.0  0.32359  0.29928  0.22824  1.0000
  C   C19       1.0  0.34529  0.26652  0.22934  1.0000
  C   C20       1.0  0.34708  0.32882  0.23665  1.0000
  C   C21       1.0  0.31211  0.30434  0.19804  1.0000
  C   C22       1.0  0.29270  0.29512  0.24765  1.0000
  C   C23       1.0  0.32784  0.23305  0.21848  1.0000
  C   C24       1.0  0.36357  0.32610  0.26628  1.0000
  C   C25       1.0  0.28927  0.33620  0.19184  1.0000
  C   C26       1.0  0.27521  0.32874  0.25885  1.0000
  H   H28       1.0  0.36991  0.26969  0.21727  1.0000
  H   H29       1.0  0.35349  0.26082  0.25139  1.0000
  H   H30       1.0  0.33381  0.35425  0.23566  1.0000
  H   H31       1.0  0.36895  0.33117  0.22128  1.0000
  H   H32       1.0  0.33516  0.30609  0.18396  1.0000
  H   H33       1.0  0.29672  0.28193  0.19034  1.0000
  H   H34       1.0  0.27223  0.27933  0.23711  1.0000
  H   H35       1.0  0.30046  0.28023  0.26680  1.0000
  H   H36       1.0  0.32535  0.23287  0.19513  1.0000
  H   H37       1.0  0.34472  0.21053  0.22373  1.0000
  H   H38       1.0  0.30214  0.22852  0.22838  1.0000
  H   H39       1.0  0.37529  0.35147  0.27199  1.0000
  H   H40       1.0  0.34436  0.31956  0.28284  1.0000
  H   H41       1.0  0.38510  0.30684  0.26643  1.0000
  H   H42       1.0  0.28497  0.33772  0.16864  1.0000
  H   H43       1.0  0.30169  0.36089  0.19802  1.0000
  H   H44       1.0  0.26316  0.33386  0.20157  1.0000
  H   H45       1.0  0.24663  0.32473  0.25980  1.0000
  H   H46       1.0  0.27930  0.35214  0.24595  1.0000
  H   H47       1.0  0.28332  0.33407  0.28097  1.0000
  H   H48       1.0  0.41579  0.14599  0.07806  1.0000
  H   H49       1.0  0.25854  0.48904  0.03659  1.0000
  C   C27       1.0  0.48397  0.09633  0.99906  1.0000
  C   C28       1.0  0.46567  0.25768  0.08592  1.0000
  S   S13       1.0  0.42800  0.00053  0.17892  1.0000
  H   H50       1.0  0.14623  0.44804  0.20437  1.0000
  C   C29       1.0  0.26188  0.39382  0.08081  1.0000
  C   C30       1.0  0.43528  0.23178  0.08675  1.0000
  H   H51       1.0  0.47582  0.15118  0.08535  1.0000
  H   H52       1.0  0.41434  0.24386  0.07387  1.0000
  C   C31       1.0  0.47292  0.17884  0.09191  1.0000
  H   H53       1.0  0.40061  0.04955  0.02258  1.0000
  C   C32       1.0  0.44807  0.19406  0.04509  1.0000
  H   H54       1.0  0.31029  0.48825  0.10178  1.0000
  H   H55       1.0  0.46156  0.27757  0.10271  1.0000
  H   H56       1.0  0.46936  0.20670  0.13287  1.0000
  H   H57       1.0  0.28035  0.44057  0.10041  1.0000
  S   S14       1.0  0.08167  0.49257  0.05589  1.0000
  H   H58       1.0  0.36092  0.01055  0.26821  1.0000
  C   C33       1.0  0.03170  0.49246  0.01267  1.0000
  C   C34       1.0  0.08488  0.46088  0.00363  1.0000
  C   C35       1.0  0.29483  0.42249  0.03043  1.0000
  H   H59       1.0  0.42413  0.23212  0.10849  1.0000
  S   S15       1.0  0.44392  0.47573  0.18459  1.0000
  H   H60       1.0  0.31752  0.40542  0.03494  1.0000
  C   C36       1.0  0.25393  0.46569  0.04981  1.0000
  C   C37       1.0  0.46406  0.33944  0.01431  1.0000
  C   C38       1.0  0.28699  0.42490  0.08148  1.0000
  N   N3        1.0  0.28776  0.44662  0.05506  1.0000
  H   H61       1.0  0.03466  0.39798  0.02626  1.0000
  H   H62       1.0  0.48221  0.32003  0.02336  1.0000
  C   C39       1.0  0.41091  0.17369  0.08323  1.0000
  H   H63       1.0  0.47106  0.02110  0.03451  1.0000
  H   H64       1.0  0.45738  0.35771  0.03176  1.0000
  H   H65       1.0  0.25753  0.38450  0.10272  1.0000
  H   H66       1.0  0.06161  0.35291  0.00576  1.0000
  H   H67       1.0  0.40505  0.17403  0.10609  1.0000
  S   S16       1.0  0.40347  0.01766  0.10189  1.0000
  C   C40       1.0  0.48505  0.20133  0.03403  1.0000
  C   C41       1.0  0.21320  0.45349  0.15046  1.0000
  C   C42       1.0  0.45434  0.48822  0.22021  1.0000
  C   C43       1.0  0.06450  0.48149  0.02195  1.0000
  H   H68       1.0  0.37920  0.18271  0.04477  1.0000
  H   H69       1.0  0.20134  0.42825  0.14823  1.0000
  C   C44       1.0  0.29871  0.99640  0.20730  1.0000
  C   C45       1.0  0.22182  0.00563  0.12919  1.0000
  H   H70       1.0  0.42754  0.48133  0.28888  1.0000
  C   C46       1.0  0.35846  0.08266  0.00952  1.0000
  H   H71       1.0  0.21260  0.02031  0.14726  1.0000
  H   H72       1.0  0.33952  0.07438  0.02574  1.0000
  H   H73       1.0  0.43950  0.32697  0.00797  1.0000
  H   H74       1.0  0.32070  0.01144  0.19862  1.0000
  H   H75       1.0  0.31336  0.41423  0.08602  1.0000
  C   C47       1.0  0.38578  0.05439  0.00275  1.0000
  H   H76       1.0  0.37890  0.03030  0.22037  1.0000
  H   H77       1.0  0.34275  0.45692  0.05992  1.0000
  H   H78       1.0  0.37009  0.00121  0.03432  1.0000
  C   C48       1.0  0.47142  0.17989  0.12450  1.0000
  C   C49       1.0  0.47901  0.03853  0.01788  1.0000
  H   H79       1.0  0.33022  0.01909  0.02238  1.0000
  C   C50       1.0  0.26728  0.99338  0.09484  1.0000
  C   C51       1.0  0.30161  0.43982  0.00159  1.0000
  H   H80       1.0  0.46684  0.27100  0.06518  1.0000
  H   H81       1.0  0.32097  0.48650  0.03730  1.0000
  C   C52       1.0  0.31786  0.47148  0.05713  1.0000
  C   C53       1.0  0.12017  0.45931  0.20036  1.0000
  C   C54       1.0  0.19241  0.48351  0.14833  1.0000
  H   H82       1.0  0.16482  0.48124  0.14447  1.0000
  C   C55       1.0  0.26418  0.48864  0.15825  1.0000
  C   C56       1.0  0.00836  0.38642  0.02422  1.0000
  S   S17       1.0  0.30951  0.99997  0.08103  1.0000
  C   C57       1.0  0.44319  0.48949  0.27112  1.0000
  H   H83       1.0  0.49124  0.24606  0.09079  1.0000
  H   H84       1.0  0.03919  0.00239  0.04169  1.0000
  H   H85       1.0  0.29177  0.49084  0.16229  1.0000
  H   H86       1.0  0.47952  0.12391  0.00102  1.0000
  H   H87       1.0  0.01591  0.31124  0.01255  1.0000
  C   C58       1.0  0.41731  0.44854  0.99537  1.0000
  C   C59       1.0  0.02053  0.99782  0.02498  1.0000
  H   H88       1.0  0.19016  0.48952  0.20808  1.0000
  H   H89       1.0  0.41992  0.99419  0.00084  1.0000
  H   H90       1.0  0.28205  0.46008  0.99664  1.0000
  H   H91       1.0  0.32823  0.45080  0.00052  1.0000
  H   H92       1.0  0.21494  0.49173  0.23971  1.0000
  C   C60       1.0  0.37975  0.99555  0.25630  1.0000
  H   H93       1.0  0.48419  0.20365  0.01063  1.0000
  H   H94       1.0  0.11884  0.49271  0.29731  1.0000
  H   H95       1.0  0.99510  0.16540  0.54980  1.0000
  H   H96       1.0  0.39143  0.02984  0.48819  1.0000
  H   H97       1.0  0.44943  0.02396  0.43720  1.0000
  H   H98       1.0  0.00126  0.45045  0.62355  1.0000
  H   H99       1.0  0.40882  0.04647  0.44510  1.0000
  H   H100      1.0  0.44800  0.00669  0.48223  1.0000
  C   C61       1.0  0.36382  0.99398  0.51470  1.0000
  C   C62       1.0  0.37788  0.00465  0.48528  1.0000
  H   H101      1.0  0.35480  0.01095  0.47196  1.0000
  C   C63       1.0  0.42100  0.02480  0.43322  1.0000
  H   H102      1.0  0.33493  0.99469  0.51468  1.0000
  H   H103      1.0  0.41787  0.03064  0.41036  1.0000
  H   H104      1.0  0.37250  0.01288  0.53099  1.0000
  H   H105      1.0  0.99631  0.13704  0.57946  1.0000
  Fe  Fe9       1.0  0.44858  0.35507  0.86195  1.0000
  S   S18       1.0  0.46662  0.40933  0.87117  1.0000
  H   H106      1.0  0.39656  0.46088  0.76099  1.0000
  Fe  Fe10      1.0  0.37538  0.38074  0.84845  1.0000
  S   S19       1.0  0.38881  0.43649  0.85682  1.0000
  S   S20       1.0  0.32249  0.36254  0.83252  1.0000
  Fe  Fe11      1.0  0.43804  0.42550  0.83195  1.0000
  S   S21       1.0  0.46167  0.46807  0.80378  1.0000
  Fe  Fe12      1.0  0.41659  0.41585  0.89522  1.0000
  S   S22       1.0  0.41864  0.44540  0.93723  1.0000
  S   S23       1.0  0.42293  0.37075  0.82104  1.0000
  S   S24       1.0  0.40008  0.36066  0.88844  1.0000
  Fe  Fe13      1.0  0.05184  0.39323  0.83627  1.0000
  S   S25       1.0  0.09557  0.35551  0.84533  1.0000
  H   H107      1.0  0.04633  0.21139  0.90257  1.0000
  Fe  Fe14      1.0  0.04967  0.41626  0.89946  1.0000
  S   S26       1.0  0.09179  0.37902  0.91155  1.0000
  S   S27       1.0  0.02315  0.45013  0.93343  1.0000
  Fe  Fe15      1.0  0.11942  0.39707  0.87233  1.0000
  S   S28       1.0  0.17524  0.41610  0.87832  1.0000
  Fe  Fe16      1.0  0.06408  0.34083  0.88346  1.0000
  S   S29       1.0  0.05863  0.28397  0.89545  1.0000
  S   S30       1.0  0.07803  0.43631  0.86099  1.0000
  S   S31       1.0  0.01963  0.37652  0.87371  1.0000
  H   H108      1.0  0.32876  0.39132  0.76071  1.0000
  C   C64       1.0  0.28181  0.43378  0.79028  1.0000
  C   C65       1.0  0.01971  0.25962  0.89456  1.0000
  C   C66       1.0  0.07303  0.45176  0.97635  1.0000
  C   C67       1.0  0.02146  0.22356  0.89841  1.0000
  H   H109      1.0  0.07284  0.99838  0.87272  1.0000
  H   H110      1.0  0.46459  0.19166  0.75346  1.0000
  H   H111      1.0  0.32904  0.43929  0.81422  1.0000
  H   H112      1.0  0.04774  0.02565  0.83780  1.0000
  H   H113      1.0  0.01861  0.05555  0.85642  1.0000
  H   H114      1.0  0.09445  0.24254  0.82769  1.0000
  H   H115      1.0  0.00512  0.40416  0.98132  1.0000
  H   H116      1.0  0.26708  0.43687  0.81037  1.0000
  H   H117      1.0  0.04296  0.21959  0.80539  1.0000
  C   C68       1.0  0.04028  0.46271  0.96705  1.0000
  H   H118      1.0  0.08933  0.43629  0.96251  1.0000
  C   C69       1.0  0.40753  0.42957  0.97119  1.0000
  H   H119      1.0  0.28271  0.40561  0.78576  1.0000
  H   H120      1.0  0.38926  0.44960  0.79674  1.0000
  C   C70       1.0  0.46291  0.25423  0.85054  1.0000
  H   H121      1.0  0.38109  0.38413  0.95623  1.0000
  C   C71       1.0  0.28185  0.37648  0.84654  1.0000
  C   C72       1.0  0.27949  0.40343  0.86632  1.0000
  C   C73       1.0  0.24665  0.41500  0.87583  1.0000
  C   C74       1.0  0.21580  0.39964  0.86596  1.0000
  C   C75       1.0  0.21817  0.37250  0.84632  1.0000
  C   C76       1.0  0.25103  0.36114  0.83659  1.0000
  H   H122      1.0  0.30292  0.41560  0.87408  1.0000
  H   H123      1.0  0.24512  0.43605  0.89096  1.0000
  H   H124      1.0  0.19469  0.36051  0.83849  1.0000
  H   H125      1.0  0.25256  0.34036  0.82122  1.0000
  H   H126      1.0  0.35859  0.03826  0.92298  1.0000
  H   H127      1.0  0.33589  0.07172  0.94143  1.0000
  H   H128      1.0  0.40744  0.40125  0.75809  1.0000
  H   H129      1.0  0.44037  0.26935  0.84454  1.0000
  H   H130      1.0  0.40718  0.32581  0.96737  1.0000
  H   H131      1.0  0.28645  0.42389  0.73452  1.0000
  H   H132      1.0  0.29700  0.45250  0.70634  1.0000
  H   H133      1.0  0.31418  0.48372  0.74773  1.0000
  C   C77       1.0  0.42747  0.31260  0.95455  1.0000
  H   H134      1.0  0.01817  0.00312  0.93034  1.0000
  C   C78       1.0  0.04521  0.04414  0.90963  1.0000
  H   H135      1.0  0.38166  0.41229  0.72758  1.0000
  C   C79       1.0  0.07619  0.26119  0.81768  1.0000
  C   C80       1.0  0.34646  0.02564  0.96715  1.0000
  H   H136      1.0  0.40525  0.06636  0.98866  1.0000
  H   H137      1.0  0.07662  0.28478  0.83106  1.0000
  C   C81       1.0  0.30832  0.43658  0.72358  1.0000
  H   H138      1.0  0.43721  0.28990  0.96621  1.0000
  C   C82       1.0  0.48418  0.14029  0.76438  1.0000
  H   H139      1.0  0.26658  0.44780  0.77405  1.0000
  C   C83       1.0  0.49019  0.06530  0.78464  1.0000
  S   S32       1.0  0.49177  0.31570  0.87031  1.0000
  H   H140      1.0  0.35195  0.46977  0.72965  1.0000
  H   H141      1.0  0.34430  0.09136  0.99046  1.0000
  C   C84       1.0  0.49163  0.44899  0.72167  1.0000
  S   S33       1.0  0.03685  0.38947  0.78909  1.0000
  C   C85       1.0  0.33017  0.46024  0.74308  1.0000
  H   H142      1.0  0.32454  0.41635  0.71326  1.0000
  N   N4        1.0  0.34366  0.44457  0.77020  1.0000
  H   H143      1.0  0.34153  0.00041  0.95642  1.0000
  C   C86       1.0  0.00093  0.38719  0.73868  1.0000
  C   C87       1.0  0.38950  0.39853  0.97465  1.0000
  H   H144      1.0  0.03262  0.06928  0.91512  1.0000
  H   H145      1.0  0.05935  0.04827  0.88965  1.0000
  C   C88       1.0  0.49129  0.27054  0.86331  1.0000
  H   H146      1.0  0.01979  0.37504  0.93858  1.0000
  H   H147      1.0  0.41466  0.30165  0.93546  1.0000
  C   C89       1.0  0.00788  0.35133  0.94767  1.0000
  H   H148      1.0  0.07403  0.29846  0.98222  1.0000
  H   H149      1.0  0.49114  0.42755  0.70687  1.0000
  C   C90       1.0  0.47880  0.47179  0.76876  1.0000
  H   H150      1.0  0.46851  0.41942  0.75569  1.0000
  H   H151      1.0  0.35873  0.39555  0.78849  1.0000
  C   C91       1.0  0.07767  0.32308  0.97060  1.0000
  C   C92       1.0  0.37699  0.46263  0.77833  1.0000
  H   H152      1.0  0.06411  0.03927  0.92692  1.0000
  H   H153      1.0  0.46432  0.38309  0.98643  1.0000
  H   H154      1.0  0.38078  0.36914  0.74182  1.0000
  C   C93       1.0  0.35178  0.40644  0.76749  1.0000
  H   H155      1.0  0.48737  0.05014  0.76486  1.0000
  C   C94       1.0  0.40178  0.99763  0.98266  1.0000
  C   C95       1.0  0.00288  0.00089  0.85923  1.0000
  H   H156      1.0  0.02389  0.37413  0.73068  1.0000
  H   H157      1.0  0.44271  0.36411  0.94369  1.0000
  C   C96       1.0  0.31811  0.44975  0.79414  1.0000
  C   C97       1.0  0.03965  0.24481  0.81656  1.0000
  C   C98       1.0  0.38210  0.39709  0.74739  1.0000
  C   C99       1.0  0.00235  0.31629  0.99217  1.0000
  H   H158      1.0  0.03257  0.23823  0.83873  1.0000
  H   H159      1.0  0.44178  0.20580  0.83549  1.0000
  H   H160      1.0  0.46046  0.16002  0.72531  1.0000
  H   H161      1.0  0.07354  0.31905  0.94773  1.0000
  H   H162      1.0  0.08665  0.26711  0.79643  1.0000
  C   C100      1.0  0.46380  0.21821  0.84543  1.0000
  H   H163      1.0  0.48062  0.40451  0.93194  1.0000
  C   C101      1.0  0.01138  0.30179  0.81689  1.0000
  H   H164      1.0  0.46495  0.07710  0.79080  1.0000
  C   C102      1.0  0.42355  0.00901  0.95695  1.0000
  H   H165      1.0  0.30028  0.41985  0.98463  1.0000
  C   C103      1.0  0.45575  0.33844  0.94513  1.0000
  H   H166      1.0  0.46204  0.33236  0.92272  1.0000
  H   H167      1.0  0.32059  0.03402  0.97546  1.0000
  H   H168      1.0  0.00219  0.46524  0.71808  1.0000
  C   C104      1.0  0.02051  0.03126  0.84395  1.0000
  C   C105      1.0  0.99989  0.39771  0.76724  1.0000
  C   C106      1.0  0.35659  0.05175  0.94373  1.0000
  C   C107      1.0  0.01971  0.48307  0.98544  1.0000
  C   C108      1.0  0.01705  0.01556  0.90913  1.0000
  H   H169      1.0  0.40885  0.00621  0.93696  1.0000
  H   H170      1.0  0.38131  0.06556  0.94720  1.0000
  C   C109      1.0  0.47862  0.44430  0.74936  1.0000
  H   H171      1.0  0.03211  0.31836  0.80770  1.0000
  C   C110      1.0  0.01950  0.26925  0.77194  1.0000
  H   H172      1.0  0.00614  0.03629  0.82398  1.0000
  H   H173      1.0  0.02508  0.28168  0.95806  1.0000
  H   H174      1.0  0.48788  0.08802  0.72885  1.0000
  H   H175      1.0  0.02591  0.24359  0.76238  1.0000
  H   H176      1.0  0.31308  0.47771  0.79813  1.0000
  H   H177      1.0  0.04376  0.28436  0.76877  1.0000
  H   H178      1.0  0.43406  0.03554  0.95886  1.0000
  N   N5        1.0  0.01605  0.34900  0.97880  1.0000
  H   H179      1.0  0.00760  0.47085  0.66849  1.0000
  N   N6        1.0  0.37175  0.02072  0.99118  1.0000
  H   H180      1.0  0.01801  0.29974  0.83972  1.0000
  H   H181      1.0  0.46058  0.12378  0.76381  1.0000
  H   H182      1.0  0.01959  0.32986  0.93533  1.0000
  N   N7        1.0  0.01136  0.26639  0.80303  1.0000
  H   H183      1.0  0.00902  0.26030  0.98841  1.0000
  H   H184      1.0  0.10543  0.33032  0.97315  1.0000
  C   C111      1.0  0.05481  0.35225  0.98294  1.0000
  H   H185      1.0  0.06415  0.37720  0.97396  1.0000
  C   C112      1.0  0.00429  0.28263  0.97416  1.0000
  C   C113      1.0  0.48119  0.36004  0.99019  1.0000
  H   H186      1.0  0.48349  0.15163  0.78607  1.0000
  S   S34       1.0  0.49295  0.15305  0.84616  1.0000
  C   C114      1.0  0.47749  0.16939  0.74268  1.0000
  C   C115      1.0  0.49283  0.19816  0.85328  1.0000
  H   H187      1.0  0.99506  0.27760  0.73105  1.0000
  H   H188      1.0  0.99604  0.31570  0.75317  1.0000
  H   H189      1.0  0.43111  0.47273  0.99287  1.0000
  H   H190      1.0  0.48869  0.27855  0.92957  1.0000
  H   H191      1.0  0.48853  0.29008  0.98268  1.0000
  N   N8        1.0  0.48829  0.34102  0.96277  1.0000
  C   C116      1.0  0.99897  0.37993  0.99293  1.0000
  S   S35       1.0  0.02374  0.89299  0.18851  1.0000
  Fe  Fe17      1.0  0.07384  0.52946  0.09389  1.0000
  S   S36       1.0  0.11039  0.57497  0.09524  1.0000
  H   H192      1.0  0.14484  0.55839  0.22046  1.0000
  Fe  Fe18      1.0  0.04973  0.54369  0.15656  1.0000
  S   S37       1.0  0.08520  0.58961  0.16078  1.0000
  C   C117      1.0  0.44206  0.59390  0.21935  1.0000
  Fe  Fe19      1.0  0.06716  0.60395  0.11710  1.0000
  S   S38       1.0  0.04605  0.65719  0.10447  1.0000
  Fe  Fe20      1.0  0.12511  0.55617  0.13851  1.0000
  S   S39       1.0  0.18138  0.55443  0.15330  1.0000
  S   S40       1.0  0.02918  0.55935  0.11360  1.0000
  H   H193      1.0  0.44660  0.64895  0.22498  1.0000
  Fe  Fe21      1.0  0.05258  0.91883  0.08303  1.0000
  S   S41       1.0  0.10945  0.90420  0.07804  1.0000
  C   C118      1.0  0.47543  0.62458  0.27491  1.0000
  Fe  Fe22      1.0  0.05430  0.90256  0.14768  1.0000
  S   S42       1.0  0.11044  0.88765  0.14614  1.0000
  H   H194      1.0  0.20977  0.94392  0.27414  1.0000
  Fe  Fe23      1.0  0.11743  0.93429  0.11852  1.0000
  H   H195      1.0  0.07027  0.50494  0.24619  1.0000
  Fe  Fe24      1.0  0.09749  0.85848  0.10629  1.0000
  S   S43       1.0  0.12192  0.80428  0.10287  1.0000
  S   S44       1.0  0.06120  0.95138  0.12226  1.0000
  S   S45       1.0  0.04065  0.87092  0.10899  1.0000
  C   C119      1.0  0.09597  0.49654  0.25473  1.0000
  H   H196      1.0  0.12723  0.89520  0.30314  1.0000
  C   C120      1.0  0.41846  0.94633  0.25268  1.0000
  C   C121      1.0  0.42862  0.95763  0.22550  1.0000
  H   H197      1.0  0.42976  0.92310  0.26157  1.0000
  H   H198      1.0  0.44775  0.94284  0.21372  1.0000
  H   H199      1.0  0.06669  0.76198  0.22802  1.0000
  H   H200      1.0  0.19583  0.94226  0.08387  1.0000
  H   H201      1.0  0.00027  0.80355  0.23264  1.0000
  H   H202      1.0  0.11634  0.67574  0.01306  1.0000
  H   H203      1.0  0.35148  0.95063  0.21344  1.0000
  H   H204      1.0  0.13756  0.51124  0.19180  1.0000
  C   C122      1.0  0.48982  0.75192  0.32073  1.0000
  S   S46       1.0  0.15894  0.97292  0.13228  1.0000
  C   C123      1.0  0.33840  0.96670  0.00964  1.0000
  C   C124      1.0  0.06793  0.69765  0.10359  1.0000
  C   C125      1.0  0.10375  0.70044  0.10812  1.0000
  C   C126      1.0  0.11992  0.73319  0.10722  1.0000
  C   C127      1.0  0.10044  0.76358  0.10240  1.0000
  C   C128      1.0  0.06461  0.76076  0.09790  1.0000
  C   C129      1.0  0.04855  0.72794  0.09826  1.0000
  H   H205      1.0  0.11904  0.67740  0.11218  1.0000
  H   H206      1.0  0.14767  0.73509  0.11066  1.0000
  H   H207      1.0  0.04932  0.78385  0.09398  1.0000
  H   H208      1.0  0.02085  0.72608  0.09459  1.0000
  H   H209      1.0  0.07849  0.93867  0.21042  1.0000
  C   C130      1.0  0.04558  0.70470  0.17837  1.0000
  H   H210      1.0  0.46759  0.58367  0.22623  1.0000
  C   C131      1.0  0.03662  0.90547  0.22325  1.0000
  S   S47       1.0  0.37971  0.95246  0.30273  1.0000
  H   H211      1.0  0.22144  0.90522  0.30932  1.0000
  N   N9        1.0  0.16995  0.92338  0.32224  1.0000
  H   H212      1.0  0.41756  0.71495  0.27933  1.0000
  C   C132      1.0  0.00016  0.53857  0.22543  1.0000
  C   C133      1.0  0.05409  0.92547  0.27937  1.0000
  H   H213      1.0  0.39204  0.65841  0.27620  1.0000
  H   H214      1.0  0.06278  0.68249  0.17273  1.0000
  C   C134      1.0  0.16388  0.95251  0.30162  1.0000
  H   H215      1.0  0.25622  0.93493  0.14144  1.0000
  H   H216      1.0  0.31378  0.88374  0.22533  1.0000
  H   H217      1.0  0.40417  0.63297  0.23014  1.0000
  H   H218      1.0  0.11375  0.67892  0.05048  1.0000
  H   H219      1.0  0.27956  0.89833  0.18036  1.0000
  H   H220      1.0  0.01071  0.82587  0.15271  1.0000
  H   H221      1.0  0.01535  0.50769  0.02658  1.0000
  H   H222      1.0  0.26768  0.89247  0.12979  1.0000
  H   H223      1.0  0.45836  0.79852  0.32383  1.0000
  H   H224      1.0  0.16506  0.50507  0.26874  1.0000
  H   H225      1.0  0.09055  0.73420  0.18972  1.0000
  H   H226      1.0  0.10073  0.53498  0.28970  1.0000
  H   H227      1.0  0.12415  0.78084  0.18232  1.0000
  H   H228      1.0  0.01768  0.76364  0.14732  1.0000
  C   C135      1.0  0.47170  0.51163  0.27593  1.0000
  H   H229      1.0  0.31804  0.88939  0.16131  1.0000
  H   H230      1.0  0.35681  0.91465  0.13199  1.0000
  H   H231      1.0  0.35417  0.98015  0.16965  1.0000
  C   C136      1.0  0.02911  0.80337  0.23149  1.0000
  H   H232      1.0  0.42214  0.57346  0.22234  1.0000
  H   H233      1.0  0.07584  0.56584  0.25314  1.0000
  H   H234      1.0  0.32722  0.91820  0.24890  1.0000
  N   N10       1.0  0.43748  0.62710  0.26671  1.0000
  C   C137      1.0  0.12748  0.54866  0.23755  1.0000
  C   C138      1.0  0.01811  0.89252  0.24661  1.0000
  S   S48       1.0  0.01871  0.52054  0.19382  1.0000
  C   C139      1.0  0.36803  0.93574  0.14500  1.0000
  S   S49       1.0  0.01597  0.92949  0.04500  1.0000
  H   H235      1.0  0.16905  0.92778  0.25960  1.0000
  C   C140      1.0  0.29857  0.91019  0.16553  1.0000
  H   H236      1.0  0.43166  0.69765  0.24627  1.0000
  H   H237      1.0  0.25489  0.54384  0.15992  1.0000
  S   S50       1.0  0.06465  0.94017  0.31405  1.0000
  C   C141      1.0  0.02886  0.58244  0.04106  1.0000
  H   H238      1.0  0.35573  0.90989  0.19799  1.0000
  C   C142      1.0  0.42072  0.65887  0.27967  1.0000
  C   C143      1.0  0.24566  0.96827  0.08243  1.0000
  C   C144      1.0  0.20021  0.98041  0.11694  1.0000
  C   C145      1.0  0.00575  0.96491  0.02198  1.0000
  H   H239      1.0  0.05881  0.82682  0.18038  1.0000
  H   H240      1.0  0.16880  0.88379  0.28939  1.0000
  C   C146      1.0  0.41436  0.98786  0.21346  1.0000
  H   H241      1.0  0.28774  0.92215  0.23007  1.0000
  C   C147      1.0  0.28739  0.96707  0.18711  1.0000
  C   C148      1.0  0.10742  0.80248  0.18982  1.0000
  H   H242      1.0  0.46067  0.69924  0.27672  1.0000
  C   C149      1.0  0.15496  0.89089  0.30924  1.0000
  H   H243      1.0  0.32146  0.95924  0.02767  1.0000
  C   C150      1.0  0.41856  0.59586  0.27809  1.0000
  C   C151      1.0  0.04266  0.77025  0.21674  1.0000
  H   H244      1.0  0.03193  0.57998  0.99603  1.0000
  H   H245      1.0  0.38642  0.92512  0.16081  1.0000
  N   N11       1.0  0.07453  0.61315  0.00987  1.0000
  H   H246      1.0  0.38386  0.95182  0.13051  1.0000
  H   H247      1.0  0.03805  0.82760  0.22170  1.0000
  C   C152      1.0  0.27857  0.91719  0.13789  1.0000
  H   H248      1.0  0.07647  0.74036  0.15461  1.0000
  H   H249      1.0  0.47960  0.63553  0.29646  1.0000
  H   H250      1.0  0.03539  0.69986  0.19989  1.0000
  H   H251      1.0  0.32551  0.97202  0.14132  1.0000
  C   C153      1.0  0.31466  0.91230  0.22826  1.0000
  N   N12       1.0  0.04830  0.77151  0.18519  1.0000
  H   H252      1.0  0.03938  0.80453  0.25342  1.0000
  H   H253      1.0  0.43111  0.57144  0.27065  1.0000
  H   H254      1.0  0.48402  0.59703  0.27660  1.0000
  H   H255      1.0  0.29629  0.51940  0.07538  1.0000
  H   H256      1.0  0.07803  0.55951  0.21554  1.0000
  C   C154      1.0  0.49155  0.52189  0.25261  1.0000
  H   H257      1.0  0.01886  0.62082  0.00936  1.0000
  H   H258      1.0  0.12057  0.82669  0.18322  1.0000
  H   H259      1.0  0.10606  0.80294  0.21321  1.0000
  C   C155      1.0  0.07258  0.93849  0.25602  1.0000
  C   C156      1.0  0.33577  0.92937  0.20428  1.0000
  C   C157      1.0  0.43381  0.69430  0.26943  1.0000
  C   C158      1.0  0.20720  0.51625  0.15216  1.0000
  H   H260      1.0  0.08026  0.62568  0.05447  1.0000
  H   H261      1.0  0.25482  0.95364  0.06434  1.0000
  C   C159      1.0  0.02711  0.90199  0.27450  1.0000
  C   C160      1.0  0.24321  0.51864  0.15691  1.0000
  H   H262      1.0  0.07467  0.80095  0.15285  1.0000
  H   H263      1.0  0.10163  0.57341  0.03421  1.0000
  H   H264      1.0  0.26447  0.95407  0.19666  1.0000
  C   C161      1.0  0.06689  0.73849  0.17665  1.0000
  H   H265      1.0  0.02401  0.70432  0.16279  1.0000
  C   C162      1.0  0.39399  0.96529  0.26835  1.0000
  C   C163      1.0  0.07103  0.80131  0.17622  1.0000
  C   C164      1.0  0.11393  0.66018  0.03260  1.0000
  H   H266      1.0  0.14190  0.83696  0.31696  1.0000
  C   C165      1.0  0.33992  0.95898  0.15873  1.0000
  H   H267      1.0  0.17771  0.97290  0.26041  1.0000
  H   H268      1.0  0.29554  0.92766  0.12103  1.0000
  H   H269      1.0  0.09313  0.95706  0.25936  1.0000
  H   H270      1.0  0.13548  0.95599  0.29795  1.0000
  H   H271      1.0  0.27668  0.97998  0.16801  1.0000
  C   C166      1.0  0.41666  0.59296  0.31056  1.0000
  H   H272      1.0  0.13732  0.64370  0.03543  1.0000
  H   H273      1.0  0.13960  0.55779  0.25759  1.0000
  C   C167      1.0  0.10154  0.58494  0.01273  1.0000
  C   C168      1.0  0.18139  0.94848  0.27243  1.0000
  N   N13       1.0  0.12533  0.50961  0.23656  1.0000
  C   C169      1.0  0.43200  0.62762  0.23513  1.0000
  H   H274      1.0  0.02756  0.60179  0.05845  1.0000
  C   C170      1.0  0.99606  0.80842  0.16692  1.0000
  H   H275      1.0  0.11380  0.53211  0.00026  1.0000
  H   H276      1.0  0.17247  0.97783  0.31014  1.0000
  N   N14       1.0  0.31537  0.94135  0.17894  1.0000
  H   H277      1.0  0.44363  0.59895  0.19628  1.0000
  C   C171      1.0  0.48283  0.51038  0.22504  1.0000
  S   S51       1.0  0.09099  0.50955  0.13647  1.0000
  C   C172      1.0  0.21225  0.96173  0.09346  1.0000
  H   H278      1.0  0.39135  0.59497  0.27000  1.0000
  C   C173      1.0  0.06424  0.92821  0.22816  1.0000
  H   H279      1.0  0.04714  0.56131  0.04659  1.0000
  C   C174      1.0  0.15912  0.49476  0.24729  1.0000
  H   H280      1.0  0.42448  0.65935  0.30299  1.0000
  H   H281      1.0  0.09799  0.59638  0.23145  1.0000
  C   C175      1.0  0.03800  0.59942  0.01260  1.0000
  S   S52       1.0  0.48011  0.52678  0.31120  1.0000
  C   C176      1.0  0.01410  0.77283  0.16952  1.0000
  C   C177      1.0  0.07999  0.63889  0.03363  1.0000
  C   C178      1.0  0.09271  0.56833  0.23425  1.0000
  H   H282      1.0  0.39760  0.61152  0.31972  1.0000
  C   C179      1.0  0.31574  0.49913  0.08064  1.0000
  H   H283      1.0  0.05800  0.65783  0.03468  1.0000
  H   H284      1.0  0.40778  0.56651  0.31627  1.0000
  H   H285      1.0  0.34127  0.51238  0.08218  1.0000
  H   H286      1.0  0.01241  0.89200  0.29217  1.0000
  H   H287      1.0  0.30565  0.98647  0.22854  1.0000
  H   H288      1.0  0.19584  0.53045  0.22609  1.0000
  H   H289      1.0  0.44241  0.59665  0.32049  1.0000
  H   H290      1.0  0.09273  0.50763  0.19937  1.0000
  H   H291      1.0  0.02366  0.74966  0.22212  1.0000
  C   C180      1.0  0.00083  0.57410  0.23153  1.0000
  C   C181      1.0  0.09764  0.50678  0.28629  1.0000
  H   H292      1.0  0.99640  0.87533  0.24310  1.0000
  H   H293      1.0  0.35935  0.94689  0.00871  1.0000
  H   H294      1.0  0.12809  0.59594  0.01084  1.0000
  C   C182      1.0  0.19151  0.50231  0.22903  1.0000
  C   C183      1.0  0.11878  0.49867  0.20641  1.0000
  H   H295      1.0  0.00257  0.57077  0.03956  1.0000
  H   H296      1.0  0.01265  0.59171  0.21665  1.0000
  H   H297      1.0  0.07285  0.49920  0.29664  1.0000
  H   H298      1.0  0.99490  0.75497  0.17927  1.0000
  H   H299      1.0  0.21085  0.49417  0.06906  1.0000
  H   H300      1.0  0.24817  0.49311  0.09126  1.0000
  Fe  Fe25      1.0  0.01705  0.91168  0.41535  1.0000
  S   S53       1.0  0.03495  0.85632  0.42222  1.0000
  H   H301      1.0  0.41971  0.79838  0.42916  1.0000
  Fe  Fe26      1.0  0.04818  0.91249  0.35451  1.0000
  S   S54       1.0  0.06698  0.85800  0.35813  1.0000
  H   H302      1.0  0.41853  0.96981  0.42701  1.0000
  C   C184      1.0  0.15441  0.75477  0.39807  1.0000
  Fe  Fe27      1.0  0.08537  0.87262  0.40145  1.0000
  S   S55       1.0  0.13752  0.84651  0.41104  1.0000
  H   H303      1.0  0.45554  0.96458  0.46830  1.0000
  S   S56       1.0  0.06916  0.92863  0.39735  1.0000
  Fe  Fe28      1.0  0.39084  0.83689  0.36077  1.0000
  S   S57       1.0  0.43262  0.87608  0.35213  1.0000
  H   H304      1.0  0.20252  0.81917  0.39016  1.0000
  Fe  Fe29      1.0  0.34083  0.89048  0.38637  1.0000
  S   S58       1.0  0.38076  0.93239  0.38080  1.0000
  S   S59       1.0  0.29015  0.91077  0.40581  1.0000
  H   H305      1.0  0.43018  0.98405  0.52829  1.0000
  Fe  Fe30      1.0  0.42069  0.89430  0.39668  1.0000
  S   S60       1.0  0.46584  0.90700  0.42710  1.0000
  S   S61       1.0  0.34760  0.86973  0.34232  1.0000
  S   S62       1.0  0.38027  0.85427  0.40562  1.0000
  C   C185      1.0  0.47601  0.89564  0.46281  1.0000
  H   H306      1.0  0.12283  0.92257  0.34765  1.0000
  H   H307      1.0  0.41603  0.70762  0.36269  1.0000
  C   C186      1.0  0.46195  0.86975  0.50839  1.0000
  C   C187      1.0  0.45384  0.87571  0.47963  1.0000
  Fe  Fe31      1.0  0.38871  0.91081  0.33687  1.0000
  H   H308      1.0  0.44419  0.85497  0.52130  1.0000
  H   H309      1.0  0.43009  0.86552  0.47070  1.0000
  C   C188      1.0  0.17936  0.86546  0.40777  1.0000
  C   C189      1.0  0.20716  0.84545  0.39712  1.0000
  C   C190      1.0  0.24113  0.85908  0.39569  1.0000
  C   C191      1.0  0.24774  0.89269  0.40547  1.0000
  C   C192      1.0  0.21990  0.91267  0.41602  1.0000
  C   C193      1.0  0.18592  0.89922  0.41713  1.0000
  H   H310      1.0  0.44466  0.79207  0.46127  1.0000
  H   H311      1.0  0.26233  0.84334  0.38767  1.0000
  H   H312      1.0  0.22475  0.93862  0.42377  1.0000
  H   H313      1.0  0.16494  0.91473  0.42581  1.0000
  H   H314      1.0  0.34636  0.94498  0.43768  1.0000
  C   C194      1.0  0.00228  0.96783  0.49565  1.0000
  H   H315      1.0  0.46823  0.67400  0.34870  1.0000
  Fe  Fe32      1.0  0.01570  0.84619  0.37821  1.0000
  H   H316      1.0  0.04298  0.70742  0.36837  1.0000
  H   H317      1.0  0.14350  0.86197  0.34862  1.0000
  H   H318      1.0  0.13385  0.70753  0.41540  1.0000
  C   C195      1.0  0.48655  0.77724  0.52157  1.0000
  H   H319      1.0  0.08015  0.67900  0.37503  1.0000
  H   H320      1.0  0.48424  0.79957  0.50699  1.0000
  H   H321      1.0  0.38861  0.93057  0.49157  1.0000
  H   H322      1.0  0.40376  0.92541  0.45702  1.0000
  H   H323      1.0  0.03862  0.72189  0.41842  1.0000
  H   H324      1.0  0.04822  0.77361  0.39241  1.0000
  H   H325      1.0  0.12431  0.71405  0.37960  1.0000
  C   C196      1.0  0.09418  0.75764  0.43789  1.0000
  S   S63       1.0  0.39620  0.77837  0.35597  1.0000
  N   N15       1.0  0.08995  0.74179  0.40878  1.0000
  H   H326      1.0  0.44928  0.75128  0.40473  1.0000
  C   C197      1.0  0.40369  0.98960  0.43941  1.0000
  C   C198      1.0  0.99798  0.98601  0.52149  1.0000
  H   H327      1.0  0.22788  0.95062  0.36181  1.0000
  C   C199      1.0  0.44279  0.96681  0.51256  1.0000
  C   C200      1.0  0.43371  0.75551  0.34449  1.0000
  C   C201      1.0  0.34948  0.93830  0.46026  1.0000
  H   H328      1.0  0.08858  0.79478  0.39417  1.0000
  H   H329      1.0  0.46886  0.73670  0.43653  1.0000
  C   C202      1.0  0.06447  0.71231  0.41129  1.0000
  H   H330      1.0  0.17788  0.74238  0.38867  1.0000
  C   C203      1.0  0.46632  0.70100  0.34316  1.0000
  C   C204      1.0  0.43665  0.72016  0.35105  1.0000
  H   H331      1.0  0.48354  0.80317  0.57990  1.0000
  C   C205      1.0  0.05673  0.69140  0.38426  1.0000
  C   C206      1.0  0.12507  0.72772  0.40017  1.0000
  H   H332      1.0  0.07335  0.69360  0.42770  1.0000
  H   H333      1.0  0.04290  0.78391  0.43928  1.0000
  C   C207      1.0  0.46211  0.76049  0.42448  1.0000
  C   C208      1.0  0.06038  0.76877  0.45312  1.0000
  C   C209      1.0  0.08240  0.76376  0.35692  1.0000
  H   H334      1.0  0.06704  0.78555  0.47147  1.0000
  C   C210      1.0  0.15055  0.93043  0.34949  1.0000
  H   H335      1.0  0.41443  0.76008  0.44926  1.0000
  H   H336      1.0  0.03854  0.67011  0.38971  1.0000
  H   H337      1.0  0.04621  0.74607  0.46161  1.0000
  C   C211      1.0  0.43401  0.77928  0.44216  1.0000
  H   H338      1.0  0.10803  0.73946  0.45232  1.0000
  C   C212      1.0  0.07649  0.76940  0.38904  1.0000
  H   H339      1.0  0.14724  0.77687  0.38437  1.0000
  C   C213      1.0  0.14955  0.96814  0.36039  1.0000
  H   H340      1.0  0.11063  0.78129  0.43699  1.0000
  C   C214      1.0  0.48270  0.81335  0.40220  1.0000
  H   H341      1.0  0.02791  0.95957  0.48892  1.0000
  H   H342      1.0  0.16218  0.76471  0.41918  1.0000
  H   H343      1.0  0.46526  0.78006  0.53721  1.0000
  H   H344      1.0  0.46661  0.80627  0.38347  1.0000
  H   H345      1.0  0.33075  0.95355  0.47309  1.0000
  H   H346      1.0  0.16112  0.91433  0.36678  1.0000
  H   H347      1.0  0.05828  0.77098  0.34540  1.0000
  C   C215      1.0  0.38732  0.94261  0.47046  1.0000
  H   H348      1.0  0.02056  0.99154  0.53435  1.0000
  H   H349      1.0  0.47106  0.96734  0.51746  1.0000
  H   H350      1.0  0.10271  0.78168  0.34902  1.0000
  H   H351      1.0  0.13860  0.96846  0.38214  1.0000
  H   H352      1.0  0.46567  0.82976  0.41582  1.0000
  H   H353      1.0  0.17550  0.98017  0.36151  1.0000
  H   H354      1.0  0.13195  0.98425  0.34718  1.0000
  N   N16       1.0  0.49432  0.78118  0.41764  1.0000
  H   H355      1.0  0.34195  0.91063  0.46216  1.0000
  H   H356      1.0  0.48255  0.75343  0.50883  1.0000
  H   H357      1.0  0.43473  0.93962  0.51562  1.0000
  H   H358      1.0  0.08890  0.73710  0.35029  1.0000
  H   H359      1.0  0.37178  0.96802  0.52200  1.0000
  C   C216      1.0  0.43763  0.97984  0.48208  1.0000
  H   H360      1.0  0.47675  0.77948  0.61165  1.0000
  S   S64       1.0  0.99518  0.90012  0.37172  1.0000
  H   H361      1.0  0.47793  0.73901  0.57102  1.0000
  N   N17       1.0  0.40124  0.97914  0.47014  1.0000
  H   H362      1.0  0.21121  0.89682  0.34455  1.0000
  C   C217      1.0  0.22980  0.94782  0.33848  1.0000
  C   C218      1.0  0.46046  0.77139  0.32928  1.0000
  H   H363      1.0  0.01362  0.49491  0.61642  1.0000
  C   C219      1.0  0.49239  0.88331  0.52077  1.0000
  C   C220      1.0  0.15621  0.85808  0.32784  1.0000
  C   C221      1.0  0.20803  0.91693  0.32794  1.0000
  H   H364      1.0  0.18323  0.84875  0.33108  1.0000
  H   H365      1.0  0.25757  0.94316  0.33301  1.0000
  H   H366      1.0  0.22324  0.97264  0.32825  1.0000
  C   C222      1.0  0.49308  0.71672  0.32792  1.0000
  H   H367      1.0  0.00015  0.55666  0.61770  1.0000
  H   H368      1.0  0.37750  0.99099  0.42953  1.0000
  H   H369      1.0  0.01243  0.52908  0.65916  1.0000
  H   H370      1.0  0.06620  0.58937  0.95204  1.0000
  H   H371      1.0  0.35837  0.51606  0.76988  1.0000
  H   H372      1.0  0.06798  0.63151  0.93698  1.0000
  H   H373      1.0  0.06852  0.65916  0.98406  1.0000
  H   H374      1.0  0.03126  0.62000  0.95788  1.0000
  C   C223      1.0  0.99976  0.95666  0.89571  1.0000
  H   H375      1.0  0.05694  0.95756  0.86278  1.0000
  H   H376      1.0  0.06657  0.93403  0.90998  1.0000
  H   H377      1.0  0.00073  0.97924  0.84364  1.0000
  H   H378      1.0  0.10669  0.63458  0.97653  1.0000
  C   C224      1.0  0.05642  0.97691  0.88036  1.0000
  C   C225      1.0  0.07582  0.96071  0.90568  1.0000
  H   H379      1.0  0.39264  0.97129  0.97691  1.0000
  H   H380      1.0  0.10395  0.95855  0.90055  1.0000
  H   H381      1.0  0.00341  0.93487  0.88042  1.0000
  H   H382      1.0  0.11457  0.56221  0.97128  1.0000
  C   C226      1.0  0.05990  0.61689  0.95606  1.0000
  H   H383      1.0  0.00974  0.94714  0.91638  1.0000
  C   C227      1.0  0.07866  0.63211  0.98216  1.0000
  H   H384      1.0  0.07343  0.97659  0.92517  1.0000
  C   C228      1.0  0.49266  0.50379  0.76007  1.0000
  C   C229      1.0  0.10069  0.55513  0.99100  1.0000
  C   C230      1.0  0.37389  0.50154  0.78564  1.0000
  H   H385      1.0  0.40035  0.51304  0.78597  1.0000
  H   H386      1.0  0.36298  0.50544  0.80716  1.0000
  H   H387      1.0  0.07423  0.54605  0.98594  1.0000
  H   H388      1.0  0.32204  0.96548  0.99043  1.0000
  N   N18       1.0  0.01955  0.98834  0.88621  1.0000
  H   H389      1.0  0.99777  0.51054  0.71150  1.0000
  H   H390      1.0  0.49296  0.52530  0.77482  1.0000
  H   H391      1.0  0.44647  0.99151  0.95495  1.0000
  H   H392      1.0  0.88442  0.10309  0.02009  1.0000
  H   H393      1.0  0.87200  0.02708  0.05157  1.0000
  H   H394      1.0  0.49589  0.16865  0.13302  1.0000
  H   H395      1.0  0.79747  0.04535  0.03987  1.0000
  H   H396      1.0  0.81617  0.09648  0.01454  1.0000
  H   H397      1.0  0.91157  0.01029  0.01537  1.0000
  H   H398      1.0  0.91727  0.06629  0.05596  1.0000
  C   C231      1.0  0.89757  0.07882  0.01308  1.0000
  C   C232      1.0  0.92713  0.07287  0.03464  1.0000
  H   H399      1.0  0.85086  0.06809  0.04946  1.0000
  H   H400      1.0  0.98995  0.40580  0.03327  1.0000
  H   H401      1.0  0.49612  0.22560  0.04247  1.0000
  H   H402      1.0  0.97434  0.31963  0.99762  1.0000
  C   C233      1.0  0.85463  0.04308  0.03796  1.0000
  C   C234      1.0  0.81842  0.02564  0.03755  1.0000
  H   H403      1.0  0.87167  0.49040  0.28707  1.0000
  H   H404      1.0  0.81301  0.00908  0.01900  1.0000
  N   N19       1.0  0.87169  0.04968  0.00973  1.0000
  H   H405      1.0  0.49800  0.19087  0.08611  1.0000
  H   H406      1.0  0.98369  0.48874  0.24077  1.0000
  H   H407      1.0  0.94235  0.09715  0.03676  1.0000
  H   H408      1.0  0.50279  0.17925  0.03868  1.0000
  H   H409      1.0  0.50587  0.37039  0.99918  1.0000
  H   H410      1.0  0.81606  0.00871  0.05640  1.0000
  H   H411      1.0  0.94584  0.05283  0.02741  1.0000
  C   C235      1.0  0.89171  0.01830  0.99961  1.0000
  C   C236      1.0  0.49614  0.02546  0.99358  1.0000
  Fe  Fe33      1.0  0.91712  0.04068  0.59209  1.0000
  S   S65       1.0  0.86164  0.04950  0.57881  1.0000
  C   C237      1.0  0.95654  0.14953  0.50132  1.0000
  H   H412      1.0  0.87433  0.22231  0.65496  1.0000
  H   H413      1.0  0.91664  0.17911  0.47840  1.0000
  Fe  Fe34      1.0  0.84767  0.02465  0.62038  1.0000
  N   N20       1.0  0.94120  0.12329  0.52122  1.0000
  Fe  Fe35      1.0  0.86480  0.09920  0.60426  1.0000
  S   S66       1.0  0.84084  0.15064  0.59122  1.0000
  H   H414      1.0  0.86734  0.16287  0.65434  1.0000
  S   S67       1.0  0.92111  0.09245  0.61455  1.0000
  H   H415      1.0  0.74242  0.44530  0.56910  1.0000
  S   S68       1.0  0.84569  0.07491  0.64440  1.0000
  Fe  Fe36      1.0  0.89323  0.42641  0.59777  1.0000
  S   S69       1.0  0.85756  0.38244  0.58686  1.0000
  S   S70       1.0  0.90960  0.47109  0.56864  1.0000
  Fe  Fe37      1.0  0.82760  0.39899  0.62576  1.0000
  S   S71       1.0  0.76878  0.40381  0.62205  1.0000
  Fe  Fe38      1.0  0.88957  0.35021  0.61702  1.0000
  S   S72       1.0  0.91412  0.29671  0.61076  1.0000
  S   S73       1.0  0.86179  0.44415  0.63544  1.0000
  S   S74       1.0  0.92818  0.39324  0.62526  1.0000
  H   H416      1.0  0.91074  0.99925  0.52001  1.0000
  H   H417      1.0  0.92398  0.07002  0.52267  1.0000
  C   C238      1.0  0.80687  0.48345  0.57301  1.0000
  C   C239      1.0  0.78100  0.42315  0.54254  1.0000
  C   C240      1.0  0.89089  0.45650  0.48381  1.0000
  C   C241      1.0  0.89447  0.45032  0.51315  1.0000
  H   H418      1.0  0.95728  0.16031  0.57222  1.0000
  H   H419      1.0  0.88395  0.43533  0.46989  1.0000
  H   H420      1.0  0.76568  0.02440  0.59331  1.0000
  C   C242      1.0  0.86136  0.19116  0.59673  1.0000
  C   C243      1.0  0.84166  0.22185  0.59504  1.0000
  C   C244      1.0  0.85727  0.25447  0.59938  1.0000
  C   C245      1.0  0.89296  0.25665  0.60479  1.0000
  C   C246      1.0  0.91271  0.22593  0.60605  1.0000
  C   C247      1.0  0.89690  0.19334  0.60255  1.0000
  H   H421      1.0  0.81412  0.22043  0.59053  1.0000
  H   H422      1.0  0.84179  0.27790  0.59829  1.0000
  H   H423      1.0  0.94031  0.22738  0.61032  1.0000
  H   H424      1.0  0.91215  0.16994  0.60441  1.0000
  H   H425      1.0  0.89031  0.42461  0.52148  1.0000
  H   H426      1.0  0.91236  0.16587  0.54064  1.0000
  H   H427      1.0  0.79580  0.41448  0.56135  1.0000
  C   C248      1.0  0.71019  0.44443  0.62400  1.0000
  Fe  Fe39      1.0  0.90210  0.06595  0.65408  1.0000
  H   H428      1.0  0.95303  0.04935  0.47850  1.0000
  H   H429      1.0  0.91105  0.09161  0.49179  1.0000
  C   C249      1.0  0.74505  0.44114  0.63248  1.0000
  H   H430      1.0  0.90493  0.12512  0.55655  1.0000
  C   C250      1.0  0.96787  0.11561  0.54380  1.0000
  C   C251      1.0  0.75710  0.45402  0.55010  1.0000
  H   H431      1.0  0.76469  0.40082  0.53602  1.0000
  C   C252      1.0  0.97942  0.14671  0.56212  1.0000
  H   H432      1.0  0.81051  0.18066  0.64744  1.0000
  C   C253      1.0  0.93570  0.15793  0.47436  1.0000
  H   H433      1.0  0.86462  0.10711  0.52093  1.0000
  H   H434      1.0  0.79917  0.42846  0.52503  1.0000
  H   H435      1.0  0.66459  0.47725  0.62282  1.0000
  C   C254      1.0  0.69101  0.47465  0.63026  1.0000
  S   S75       1.0  0.96154  0.02153  0.56302  1.0000
  C   C255      1.0  0.96494  0.99722  0.53077  1.0000
  S   S76       1.0  0.85647  0.36288  0.65496  1.0000
  H   H436      1.0  0.98429  0.06317  0.50366  1.0000
  H   H437      1.0  0.98357  0.14239  0.49500  1.0000
  H   H438      1.0  0.95993  0.17486  0.51231  1.0000
  H   H439      1.0  0.92222  0.13537  0.46511  1.0000
  C   C256      1.0  0.99246  0.47564  0.61478  1.0000
  C   C257      1.0  0.76029  0.46798  0.64805  1.0000
  H   H440      1.0  0.73754  0.45632  0.53286  1.0000
  C   C258      1.0  0.93300  0.08930  0.50680  1.0000
  H   H441      1.0  0.95803  0.09542  0.55849  1.0000
  H   H442      1.0  0.87524  0.14282  0.49779  1.0000
  C   C259      1.0  0.95868  0.48810  0.62927  1.0000
  S   S77       1.0  0.90336  0.01355  0.63281  1.0000
  C   C260      1.0  0.87417  0.13420  0.51998  1.0000
  H   H443      1.0  0.94062  0.46571  0.62978  1.0000
  H   H444      1.0  0.69818  0.42380  0.61196  1.0000
  H   H445      1.0  0.78700  0.46565  0.65492  1.0000
  H   H446      1.0  0.85429  0.15057  0.53072  1.0000
  C   C261      1.0  0.90390  0.47729  0.53146  1.0000
  C   C262      1.0  0.90913  0.13781  0.53570  1.0000
  H   H447      1.0  0.70423  0.01764  0.57789  1.0000
  C   C263      1.0  0.96304  0.07254  0.48981  1.0000
  H   H448      1.0  0.95396  0.16651  0.45758  1.0000
  H   H449      1.0  0.97357  0.09005  0.47343  1.0000
  H   H450      1.0  0.83012  0.48026  0.51912  1.0000
  H   H451      1.0  0.79628  0.47404  0.49324  1.0000
  H   H452      1.0  0.98721  0.47111  0.59194  1.0000
  H   H453      1.0  0.63258  0.42954  0.64684  1.0000
  C   C264      1.0  0.75088  0.00211  0.59998  1.0000
  H   H454      1.0  0.82586  0.46598  0.56246  1.0000
  H   H455      1.0  0.99215  0.10470  0.53455  1.0000
  H   H456      1.0  0.80058  0.47001  0.59319  1.0000
  C   C265      1.0  0.89655  0.48964  0.47228  1.0000
  H   H457      1.0  0.69810  0.48767  0.56300  1.0000
  C   C266      1.0  0.71605  0.99820  0.59125  1.0000
  N   N21       1.0  0.77420  0.48856  0.55580  1.0000
  C   C267      1.0  0.80813  0.49274  0.50828  1.0000
  S   S78       1.0  0.92232  0.08938  0.69543  1.0000
  C   C268      1.0  0.50069  0.08322  0.97462  1.0000
  Fe  Fe40      1.0  0.91667  0.13513  0.89203  1.0000
  S   S79       1.0  0.95916  0.09554  0.88585  1.0000
  S   S80       1.0  0.92105  0.19351  0.88573  1.0000
  Fe  Fe41      1.0  0.86199  0.08019  0.90637  1.0000
  S   S81       1.0  0.90104  0.03693  0.90145  1.0000
  S   S82       1.0  0.80822  0.06191  0.92016  1.0000
  Fe  Fe42      1.0  0.93834  0.07037  0.92566  1.0000
  C   C269      1.0  0.57802  0.42870  0.75493  1.0000
  Fe  Fe43      1.0  0.91818  0.06531  0.86221  1.0000
  S   S83       1.0  0.92559  0.03272  0.82226  1.0000
  S   S84       1.0  0.89822  0.11230  0.93310  1.0000
  S   S85       1.0  0.87688  0.10627  0.86583  1.0000
  Fe  Fe44      1.0  0.61052  0.10103  0.88046  1.0000
  S   S86       1.0  0.60094  0.04370  0.88175  1.0000
  S   S87       1.0  0.66268  0.12866  0.88437  1.0000
  Fe  Fe45      1.0  0.53578  0.11655  0.86116  1.0000
  S   S88       1.0  0.52164  0.05991  0.86072  1.0000
  H   H458      1.0  0.95470  0.26323  0.80073  1.0000
  Fe  Fe46      1.0  0.54967  0.05861  0.90273  1.0000
  H   H459      1.0  0.83364  0.14134  0.72729  1.0000
  Fe  Fe47      1.0  0.57355  0.05011  0.83968  1.0000
  H   H460      1.0  0.95672  0.17625  0.68401  1.0000
  S   S89       1.0  0.56124  0.11570  0.90390  1.0000
  S   S90       1.0  0.58568  0.10699  0.83776  1.0000
  H   H461      1.0  0.73626  0.01613  0.78684  1.0000
  C   C270      1.0  0.93045  0.18242  0.67563  1.0000
  C   C271      1.0  0.94213  0.42174  0.75863  1.0000
  C   C272      1.0  0.76806  0.08113  0.91027  1.0000
  C   C273      1.0  0.73682  0.06481  0.91802  1.0000
  C   C274      1.0  0.70434  0.07894  0.91023  1.0000
  C   C275      1.0  0.70279  0.10982  0.89488  1.0000
  C   C276      1.0  0.73402  0.12630  0.88741  1.0000
  C   C277      1.0  0.76651  0.11192  0.89484  1.0000
  H   H462      1.0  0.73773  0.04105  0.93004  1.0000
  H   H463      1.0  0.68051  0.06620  0.91638  1.0000
  H   H464      1.0  0.73308  0.15032  0.87571  1.0000
  H   H465      1.0  0.79030  0.12483  0.88884  1.0000
  H   H466      1.0  0.78871  0.03368  0.81768  1.0000
  H   H467      1.0  0.52279  0.25815  0.94898  1.0000
  H   H468      1.0  0.53854  0.06481  0.70224  1.0000
  C   C278      1.0  0.95922  0.21836  0.89054  1.0000
  H   H469      1.0  0.55275  0.15416  0.73933  1.0000
  H   H470      1.0  0.82843  0.16872  0.75749  1.0000
  C   C279      1.0  0.61982  0.45866  0.68498  1.0000
  H   H471      1.0  0.91327  0.48421  0.67343  1.0000
  H   H472      1.0  0.66733  0.00123  0.82363  1.0000
  H   H473      1.0  0.95739  0.37825  0.94522  1.0000
  H   H474      1.0  0.90630  0.15831  0.71096  1.0000
  C   C280      1.0  0.92040  0.07325  0.73061  1.0000
  C   C281      1.0  0.91429  0.03831  0.73654  1.0000
  C   C282      1.0  0.91549  0.02637  0.76471  1.0000
  C   C283      1.0  0.92185  0.04931  0.78733  1.0000
  C   C284      1.0  0.92698  0.08442  0.78146  1.0000
  C   C285      1.0  0.92676  0.09617  0.75326  1.0000
  H   H475      1.0  0.54370  0.19937  0.87214  1.0000
  N   N22       1.0  0.70751  0.04041  0.82095  1.0000
  H   H476      1.0  0.93221  0.10231  0.79858  1.0000
  H   H477      1.0  0.96696  0.45087  0.67506  1.0000
  C   C286      1.0  0.95732  0.25455  0.88748  1.0000
  H   H478      1.0  0.66302  0.12009  0.81806  1.0000
  H   H479      1.0  0.65246  0.41507  0.72903  1.0000
  H   H480      1.0  0.49687  0.04639  0.80143  1.0000
  H   H481      1.0  0.85909  0.13786  0.68405  1.0000
  C   C287      1.0  0.98646  0.01992  0.98476  1.0000
  C   C288      1.0  0.84762  0.19636  0.72068  1.0000
  C   C289      1.0  0.86738  0.22668  0.67743  1.0000
  H   H482      1.0  0.90963  0.02031  0.71938  1.0000
  C   C290      1.0  0.51937  0.09257  0.78303  1.0000
  H   H483      1.0  0.96621  0.32534  0.79456  1.0000
  H   H484      1.0  0.88776  0.24438  0.68592  1.0000
  H   H485      1.0  0.65000  0.41027  0.67814  1.0000
  H   H486      1.0  0.82834  0.25969  0.69870  1.0000
  H   H487      1.0  0.97584  0.00994  0.86329  1.0000
  H   H488      1.0  0.79752  0.17549  0.68398  1.0000
  C   C291      1.0  0.50466  0.30618  0.96855  1.0000
  C   C292      1.0  0.96884  0.35250  0.94016  1.0000
  H   H489      1.0  0.51821  0.35102  0.92456  1.0000
  H   H490      1.0  0.59497  0.46897  0.67636  1.0000
  C   C293      1.0  0.97008  0.41475  0.77718  1.0000
  C   C294      1.0  0.54221  0.07450  0.72419  1.0000
  N   N23       1.0  0.86730  0.19268  0.69321  1.0000
  C   C295      1.0  0.85336  0.16382  0.67490  1.0000
  S   S91       1.0  0.59231  0.02222  0.79884  1.0000
  H   H491      1.0  0.66619  0.04975  0.77009  1.0000
  S   S92       1.0  0.52225  0.48489  0.67783  1.0000
  H   H492      1.0  0.87105  0.15553  0.74753  1.0000
  H   H493      1.0  0.90619  0.02463  0.97988  1.0000
  H   H494      1.0  0.85949  0.21712  0.73394  1.0000
  H   H495      1.0  0.73370  0.05747  0.85914  1.0000
  H   H496      1.0  0.65407  0.05823  0.81670  1.0000
  C   C296      1.0  0.98743  0.27509  0.88932  1.0000
  H   H497      1.0  0.50153  0.17988  0.73324  1.0000
  H   H498      1.0  0.50672  0.41528  0.96247  1.0000
  C   C297      1.0  0.71664  0.03708  0.79010  1.0000
  H   H499      1.0  0.97775  0.21116  0.77273  1.0000
  H   H500      1.0  0.96881  0.42315  0.79900  1.0000
  H   H501      1.0  0.65154  0.45065  0.75299  1.0000
  H   H502      1.0  0.56856  0.08592  0.72537  1.0000
  H   H503      1.0  0.59653  0.40432  0.71717  1.0000
  H   H504      1.0  0.57249  0.12416  0.76224  1.0000
  C   C298      1.0  0.50547  0.48102  0.71298  1.0000
  C   C299      1.0  0.55082  0.16850  0.78333  1.0000
  C   C300      1.0  0.58903  0.43110  0.72359  1.0000
  H   H505      1.0  0.69588  0.02608  0.74827  1.0000
  H   H506      1.0  0.60407  0.40701  0.66979  1.0000
  H   H507      1.0  0.56513  0.43714  0.71126  1.0000
  H   H508      1.0  0.60273  0.49025  0.75166  1.0000
  H   H509      1.0  0.50876  0.10065  0.95803  1.0000
  H   H510      1.0  0.95384  0.33189  0.95082  1.0000
  C   C301      1.0  0.52039  0.25049  0.87098  1.0000
  H   H511      1.0  0.50098  0.99791  0.99167  1.0000
  H   H512      1.0  0.98220  0.34958  0.82360  1.0000
  H   H513      1.0  0.91502  0.20299  0.71616  1.0000
  H   H514      1.0  0.67342  0.00392  0.77582  1.0000
  H   H515      1.0  0.54084  0.05160  0.73816  1.0000
  H   H516      1.0  0.53156  0.18960  0.78016  1.0000
  H   H517      1.0  0.93204  0.12311  0.74899  1.0000
  H   H518      1.0  0.69052  0.10362  0.79078  1.0000
  C   C302      1.0  0.77108  0.02669  0.83537  1.0000
  C   C303      1.0  0.73958  0.05166  0.83669  1.0000
  C   C304      1.0  0.84539  0.16336  0.73894  1.0000
  C   C305      1.0  0.50607  0.40061  0.94226  1.0000
  C   C306      1.0  0.52114  0.21447  0.86611  1.0000
  C   C307      1.0  0.82636  0.09460  0.99269  1.0000
  S   S93       1.0  0.52672  0.02947  0.94073  1.0000
  H   H519      1.0  0.96505  0.28131  0.75886  1.0000
  H   H520      1.0  0.56136  0.40550  0.75779  1.0000
  H   H521      1.0  0.53253  0.29543  0.92845  1.0000
  C   C308      1.0  0.97272  0.39357  0.72027  1.0000
  H   H522      1.0  0.80501  0.13865  0.66303  1.0000
  H   H523      1.0  0.97284  0.24609  0.83169  1.0000
  C   C309      1.0  0.51242  0.28370  0.94220  1.0000
  C   C310      1.0  0.68626  0.10362  0.81393  1.0000
  H   H524      1.0  0.74927  0.07680  0.82851  1.0000
  H   H525      1.0  0.70505  0.46054  0.73385  1.0000
  H   H526      1.0  0.54708  0.15735  0.80458  1.0000
  C   C311      1.0  0.67925  0.06705  0.82565  1.0000
  H   H527      1.0  0.95741  0.31163  0.83046  1.0000
  H   H528      1.0  0.96570  0.34882  0.91703  1.0000
  S   S94       1.0  0.90839  0.42357  0.70715  1.0000
  C   C312      1.0  0.98522  0.48509  0.70809  1.0000
  C   C313      1.0  0.65109  0.44390  0.73007  1.0000
  H   H529      1.0  0.63957  0.47741  0.67777  1.0000
  H   H530      1.0  0.72953  0.06096  0.78225  1.0000
  H   H531      1.0  0.54071  0.36057  0.95645  1.0000
  Fe  Fe48      1.0  0.89356  0.40709  0.66197  1.0000
  H   H532      1.0  0.54258  0.26289  0.88066  1.0000
  H   H533      1.0  0.56176  0.45129  0.76130  1.0000
  H   H534      1.0  0.82047  0.20508  0.71734  1.0000
  H   H535      1.0  0.91957  0.43562  0.76646  1.0000
  C   C314      1.0  0.97388  0.21149  0.79595  1.0000
  H   H536      1.0  0.93249  0.26666  0.88309  1.0000
  C   C315      1.0  0.94322  0.41129  0.73005  1.0000
  C   C316      1.0  0.98085  0.47614  0.67642  1.0000
  H   H537      1.0  0.52590  0.41233  0.92816  1.0000
  H   H538      1.0  0.54454  0.07830  0.78187  1.0000
  C   C317      1.0  0.90452  0.18397  0.70058  1.0000
  H   H539      1.0  0.96008  0.48414  0.71958  1.0000
  H   H540      1.0  0.67394  0.07031  0.84855  1.0000
  H   H541      1.0  0.69701  0.43666  0.70260  1.0000
  H   H542      1.0  0.92408  0.16139  0.66048  1.0000
  C   C318      1.0  0.50695  0.04763  0.97167  1.0000
  H   H543      1.0  0.81071  0.23363  0.67015  1.0000
  C   C319      1.0  0.68559  0.45674  0.71678  1.0000
  C   C320      1.0  0.97714  0.32282  0.81601  1.0000
  H   H544      1.0  0.83681  0.27045  0.66277  1.0000
  C   C321      1.0  0.81450  0.16536  0.66703  1.0000
  H   H545      1.0  0.60058  0.42606  0.76932  1.0000
  H   H546      1.0  0.57697  0.18060  0.78308  1.0000
  H   H547      1.0  0.82630  0.04040  0.98297  1.0000
  C   C322      1.0  0.97733  0.24825  0.80853  1.0000
  C   C323      1.0  0.83357  0.24831  0.67752  1.0000
  H   H548      1.0  0.70817  0.11644  0.82495  1.0000
  C   C324      1.0  0.60697  0.49139  0.72845  1.0000
  C   C325      1.0  0.54886  0.14070  0.75984  1.0000
  H   H549      1.0  0.71915  0.00091  0.87337  1.0000
  H   H550      1.0  0.97417  0.38550  0.69837  1.0000
  C   C326      1.0  0.51461  0.36182  0.94625  1.0000
  H   H551      1.0  0.80382  0.09628  0.97804  1.0000
  H   H552      1.0  0.51972  0.10581  0.80391  1.0000
  C   C327      1.0  0.62716  0.42415  0.66945  1.0000
  C   C328      1.0  0.99220  0.28720  0.75311  1.0000
  C   C329      1.0  0.68599  0.02878  0.77025  1.0000
  N   N24       1.0  0.61767  0.45648  0.71676  1.0000
  H   H553      1.0  0.84299  0.11734  0.98810  1.0000
  C   C330      1.0  0.99141  0.20296  0.89626  1.0000
  H   H554      1.0  0.76376  0.99918  0.83298  1.0000
  H   H555      1.0  0.85978  0.06307  0.96648  1.0000
  H   H556      1.0  0.99175  0.19281  0.80627  1.0000
  H   H557      1.0  0.52955  0.30952  0.98029  1.0000
  H   H558      1.0  0.97891  0.27725  0.96387  1.0000
  H   H559      1.0  0.98571  0.30275  0.88627  1.0000
  H   H560      1.0  0.68407  0.48154  0.70530  1.0000
  C   C331      1.0  0.84620  0.06040  0.98714  1.0000
  H   H561      1.0  0.67735  0.02256  0.87416  1.0000
  S   S95       1.0  0.97431  0.05598  0.96302  1.0000
  H   H562      1.0  0.93249  0.20748  0.66440  1.0000
  H   H563      1.0  0.91166  0.99914  0.76898  1.0000
  C   C332      1.0  0.69279  0.00178  0.86386  1.0000
  C   C333      1.0  0.57511  0.99849  0.76936  1.0000
  N   N25       1.0  0.51641  0.11874  0.75956  1.0000
  C   C334      1.0  0.69425  0.00600  0.83145  1.0000
  H   H564      1.0  0.97013  0.37777  0.99225  1.0000
  H   H565      1.0  0.78581  0.02840  0.85555  1.0000
  H   H566      1.0  0.99320  0.17516  0.89876  1.0000
  H   H567      1.0  0.99417  0.49141  0.97864  1.0000
  H   H568      1.0  0.94713  0.20194  0.80012  1.0000
  H   H569      1.0  0.99129  0.02873  0.90827  1.0000
  C   C335      1.0  0.51343  0.10119  0.73115  1.0000
  H   H570      1.0  0.62207  0.00403  0.74485  1.0000
  H   H571      1.0  0.51383  0.12070  0.71388  1.0000
  C   C336      1.0  0.59628  0.99315  0.74535  1.0000
  H   H572      1.0  0.91002  0.08495  0.99240  1.0000
  H   H573      1.0  0.80806  0.55929  0.23720  1.0000
  C   C337      1.0  0.87378  0.51867  0.28315  1.0000
  H   H574      1.0  0.86120  0.63808  0.25868  1.0000
  H   H575      1.0  0.81951  0.51862  0.27187  1.0000
  H   H576      1.0  0.88919  0.58327  0.27882  1.0000
  H   H577      1.0  0.51363  0.53874  0.25576  1.0000
  H   H578      1.0  0.50545  0.62753  0.23508  1.0000
  C   C338      1.0  0.86428  0.59311  0.28738  1.0000
  S   S96       1.0  0.95175  0.58277  0.30822  1.0000
  C   C339      1.0  0.86382  0.63235  0.28151  1.0000
  H   H579      1.0  0.74575  0.58123  0.29596  1.0000
  C   C340      1.0  0.97026  0.56465  0.27664  1.0000
  H   H580      1.0  0.84325  0.64587  0.29383  1.0000
  C   C341      1.0  0.83715  0.53517  0.28476  1.0000
  C   C342      1.0  0.98600  0.58696  0.25691  1.0000
  C   C343      1.0  0.80150  0.58735  0.29037  1.0000
  H   H581      1.0  0.85922  0.58167  0.20591  1.0000
  H   H582      1.0  0.76819  0.54084  0.29408  1.0000
  S   S97       1.0  0.53055  0.69317  0.31726  1.0000
  H   H583      1.0  0.88646  0.52183  0.26238  1.0000
  H   H584      1.0  0.86105  0.53876  0.22063  1.0000
  H   H585      1.0  0.76030  0.56617  0.26243  1.0000
  S   S98       1.0  0.55979  0.59394  0.30686  1.0000
  H   H586      1.0  0.80515  0.58878  0.31372  1.0000
  C   C344      1.0  0.50209  0.64209  0.25513  1.0000
  C   C345      1.0  0.86093  0.56683  0.22594  1.0000
  H   H587      1.0  0.79632  0.61439  0.28344  1.0000
  H   H588      1.0  0.88905  0.64341  0.28854  1.0000
  H   H589      1.0  0.85822  0.73993  0.32520  1.0000
  C   C346      1.0  0.96960  0.52912  0.27054  1.0000
  H   H590      1.0  0.89108  0.52916  0.29988  1.0000
  H   H591      1.0  0.86657  0.58972  0.31066  1.0000
  C   C347      1.0  0.82944  0.57625  0.24477  1.0000
  H   H592      1.0  0.49838  0.51866  0.20726  1.0000
  H   H593      1.0  0.82036  0.60268  0.23884  1.0000
  C   C348      1.0  0.76738  0.56733  0.28510  1.0000
  N   N26       1.0  0.83375  0.57279  0.27633  1.0000
  H   H594      1.0  0.88641  0.57408  0.23488  1.0000
  H   H595      1.0  0.82875  0.53160  0.30716  1.0000
  C   C349      1.0  0.98443  0.51626  0.24516  1.0000
  H   H596      1.0  0.96990  0.93445  0.99739  1.0000
  H   H597      1.0  0.51026  0.76428  0.30875  1.0000
  H   H598      1.0  0.52789  0.64228  0.26563  1.0000
  H   H599      1.0  0.95780  0.51149  0.28541  1.0000
  H   H600      1.0  0.98670  0.61448  0.26127  1.0000
  H   H601      1.0  0.88362  0.70133  0.32253  1.0000
  H   H602      1.0  0.97010  0.80488  0.15709  1.0000
  H   H603      1.0  0.85972  0.97429  0.01318  1.0000
  C   C350      1.0  0.98153  0.95973  0.99998  1.0000
  H   H604      1.0  0.99178  0.82146  0.18743  1.0000
  C   C351      1.0  0.87066  0.98531  0.99349  1.0000
  H   H605      1.0  0.49579  0.66934  0.25030  1.0000
  Fe  Fe49      1.0  0.56799  0.60219  0.63591  1.0000
  S   S99       1.0  0.53040  0.56206  0.61914  1.0000
  Fe  Fe50      1.0  0.92195  0.57501  0.35023  1.0000
  Fe  Fe51      1.0  0.62698  0.54920  0.64009  1.0000
  C   C352      1.0  0.91777  0.93854  0.58002  1.0000
  H   H606      1.0  0.75889  0.53730  0.57573  1.0000
  Fe  Fe52      1.0  0.57515  0.54540  0.59141  1.0000
  S   S100      1.0  0.57388  0.52606  0.54572  1.0000
  S   S101      1.0  0.61142  0.58722  0.60623  1.0000
  Fe  Fe53      1.0  0.54381  0.59740  0.38868  1.0000
  S   S102      1.0  0.58346  0.63020  0.36658  1.0000
  S   S103      1.0  0.53986  0.61371  0.43510  1.0000
  Fe  Fe54      1.0  0.59729  0.58205  0.34240  1.0000
  N   N27       1.0  0.85503  0.73918  0.38656  1.0000
  C   C353      1.0  0.96543  0.73268  0.42375  1.0000
  S   S104      1.0  0.55914  0.54834  0.36584  1.0000
  Fe  Fe55      1.0  0.52075  0.56314  0.33148  1.0000
  Fe  Fe56      1.0  0.89714  0.54463  0.40758  1.0000
  S   S105      1.0  0.87161  0.59431  0.42130  1.0000
  H   H607      1.0  0.87118  0.86173  0.61013  1.0000
  Fe  Fe57      1.0  0.91939  0.62015  0.40402  1.0000
  S   S106      1.0  0.94239  0.66576  0.42791  1.0000
  Fe  Fe58      1.0  0.85070  0.59698  0.37705  1.0000
  C   C354      1.0  0.51494  0.90248  0.50373  1.0000
  S   S107      1.0  0.94709  0.57035  0.39336  1.0000
  H   H608      1.0  0.80070  0.74716  0.33811  1.0000
  Fe  Fe59      1.0  0.61383  0.92604  0.60437  1.0000
  S   S108      1.0  0.55760  0.94291  0.60900  1.0000
  S   S109      1.0  0.65285  0.96525  0.58765  1.0000
  Fe  Fe60      1.0  0.59830  0.85303  0.62473  1.0000
  S   S110      1.0  0.54192  0.86517  0.63129  1.0000
  S   S111      1.0  0.62458  0.80099  0.63244  1.0000
  Fe  Fe61      1.0  0.54432  0.89143  0.58859  1.0000
  C   C355      1.0  0.86877  0.80073  0.40517  1.0000
  S   S112      1.0  0.60027  0.87658  0.58134  1.0000
  H   H609      1.0  0.90533  0.76368  0.38823  1.0000
  H   H610      1.0  0.53845  0.91312  0.51278  1.0000
  H   H611      1.0  0.91014  0.54227  0.48225  1.0000
  C   C356      1.0  0.80630  0.76607  0.35527  1.0000
  H   H612      1.0  0.53711  0.72433  0.43135  1.0000
  C   C357      1.0  0.95760  0.70198  0.40906  1.0000
  H   H613      1.0  0.78764  0.53545  0.53281  1.0000
  H   H614      1.0  0.51904  0.79531  0.60384  1.0000
  C   C358      1.0  0.74683  0.94811  0.62544  1.0000
  C   C359      1.0  0.71187  0.94445  0.61703  1.0000
  C   C360      1.0  0.69632  0.96943  0.59977  1.0000
  H   H615      1.0  0.63347  0.56627  0.49910  1.0000
  H   H616      1.0  0.73070  0.65423  0.36459  1.0000
  C   C361      1.0  0.97956  0.56107  0.63383  1.0000
  H   H617      1.0  0.69706  0.92213  0.62362  1.0000
  C   C362      1.0  0.90561  0.51667  0.49067  1.0000
  H   H618      1.0  0.80153  0.72288  0.38270  1.0000
  H   H619      1.0  0.50238  0.75467  0.37795  1.0000
  H   H620      1.0  0.52417  0.92405  0.46233  1.0000
  H   H621      1.0  0.95542  0.67747  0.36816  1.0000
  H   H622      1.0  0.71966  0.59821  0.45724  1.0000
  C   C363      1.0  0.71162  0.51302  0.56272  1.0000
  C   C364      1.0  0.75416  0.56960  0.35838  1.0000
  C   C365      1.0  0.81695  0.74723  0.38262  1.0000
  H   H623      1.0  0.96295  0.73349  0.44654  1.0000
  C   C366      1.0  0.98422  0.53587  0.65895  1.0000
  C   C367      1.0  0.97572  0.76258  0.40906  1.0000
  C   C368      1.0  0.56294  0.55079  0.51549  1.0000
  C   C369      1.0  0.55816  0.58671  0.51684  1.0000
  C   C370      1.0  0.55086  0.60549  0.49203  1.0000
  C   C371      1.0  0.54842  0.58864  0.46566  1.0000
  C   C372      1.0  0.55320  0.55276  0.46433  1.0000
  C   C373      1.0  0.56036  0.53396  0.48915  1.0000
  H   H624      1.0  0.56017  0.59992  0.53698  1.0000
  H   H625      1.0  0.63752  0.62286  0.40826  1.0000
  C   C374      1.0  0.87767  0.77093  0.38457  1.0000
  C   C375      1.0  0.75782  0.60524  0.36286  1.0000
  C   C376      1.0  0.65156  0.53475  0.46301  1.0000
  C   C377      1.0  0.60432  0.69766  0.63459  1.0000
  C   C378      1.0  0.62117  0.72993  0.63255  1.0000
  C   C379      1.0  0.60260  0.76107  0.63627  1.0000
  C   C380      1.0  0.85966  0.72454  0.41593  1.0000
  H   H626      1.0  0.93277  0.93296  0.56050  1.0000
  H   H627      1.0  0.54156  0.68654  0.58130  1.0000
  C   C381      1.0  0.76647  0.97697  0.61704  1.0000
  S   S113      1.0  0.50047  0.87581  0.55751  1.0000
  H   H628      1.0  0.56740  0.77526  0.44969  1.0000
  C   C382      1.0  0.97352  0.96066  0.47850  1.0000
  C   C383      1.0  0.72337  0.57075  0.45096  1.0000
  N   N28       1.0  0.53036  0.74965  0.55627  1.0000
  H   H629      1.0  0.71901  0.52834  0.34689  1.0000
  H   H630      1.0  0.78161  0.96954  0.54886  1.0000
  H   H631      1.0  0.84675  0.69189  0.36243  1.0000
  C   C384      1.0  0.52688  0.72316  0.40950  1.0000
  C   C385      1.0  0.97077  0.73104  0.36496  1.0000
  N   N29       1.0  0.85898  0.92213  0.55725  1.0000
  C   C386      1.0  0.87160  0.92269  0.52704  1.0000
  C   C387      1.0  0.87966  0.94851  0.57375  1.0000
  H   H632      1.0  0.65146  0.52543  0.50842  1.0000
  C   C388      1.0  0.86400  0.88620  0.56890  1.0000
  C   C389      1.0  0.85068  0.90090  0.50563  1.0000
  S   S114      1.0  0.68330  0.54037  0.65331  1.0000
  H   H633      1.0  0.66867  0.51154  0.46077  1.0000
  C   C390      1.0  0.85375  0.88126  0.60028  1.0000
  C   C391      1.0  0.51150  0.83783  0.39187  1.0000
  H   H634      1.0  0.89900  0.91343  0.52564  1.0000
  H   H635      1.0  0.85480  0.66826  0.40756  1.0000
  H   H636      1.0  0.59611  0.77742  0.53425  1.0000
  H   H637      1.0  0.97272  0.73031  0.34214  1.0000
  H   H638      1.0  0.56380  0.50615  0.48797  1.0000
  H   H639      1.0  0.84798  0.86724  0.55695  1.0000
  H   H640      1.0  0.89108  0.87663  0.56563  1.0000
  H   H641      1.0  0.82347  0.91012  0.50355  1.0000
  H   H642      1.0  0.86290  0.90363  0.48444  1.0000
  H   H643      1.0  0.59970  0.73066  0.53811  1.0000
  H   H644      1.0  0.90301  0.73921  0.33696  1.0000
  C   C392      1.0  0.50676  0.90857  0.47503  1.0000
  C   C393      1.0  0.94043  0.97188  0.48782  1.0000
  H   H645      1.0  0.49937  0.85911  0.37958  1.0000
  Fe  Fe62      1.0  0.56031  0.91546  0.65108  1.0000
  H   H646      1.0  0.77669  0.55279  0.35969  1.0000
  H   H647      1.0  0.82639  0.87233  0.60208  1.0000
  Fe  Fe63      1.0  0.55202  0.52688  0.65304  1.0000
  C   C394      1.0  0.82087  0.93108  0.55919  1.0000
  C   C395      1.0  0.74947  0.51022  0.57347  1.0000
  H   H648      1.0  0.98089  0.78638  0.42043  1.0000
  H   H649      1.0  0.91800  0.96687  0.47466  1.0000
  H   H650      1.0  0.51003  0.76866  0.46017  1.0000
  H   H651      1.0  0.87220  0.94961  0.51879  1.0000
  H   H652      1.0  0.55266  0.78343  0.64597  1.0000
  H   H653      1.0  0.74934  0.56894  0.44069  1.0000
  C   C396      1.0  0.65430  0.62582  0.42706  1.0000
  H   H654      1.0  0.55087  0.53940  0.44427  1.0000
  H   H655      1.0  0.56591  0.78207  0.58016  1.0000
  C   C397      1.0  0.63547  0.55106  0.41486  1.0000
  S   S115      1.0  0.81074  0.97946  0.62737  1.0000
  H   H656      1.0  0.54183  0.77721  0.51758  1.0000
  C   C398      1.0  0.82699  0.51670  0.58050  1.0000
  H   H657      1.0  0.66302  0.60485  0.46797  1.0000
  H   H658      1.0  0.87759  0.78236  0.36314  1.0000
  H   H659      1.0  0.85040  0.50946  0.59289  1.0000
  S   S116      1.0  0.87345  0.54570  0.36333  1.0000
  N   N30       1.0  0.65841  0.56055  0.43956  1.0000
  C   C399      1.0  0.55049  0.72747  0.64540  1.0000
  H   H660      1.0  0.62085  0.75913  0.56229  1.0000
  C   C400      1.0  0.56532  0.75629  0.56958  1.0000
  H   H661      1.0  0.68187  0.62789  0.42044  1.0000
  H   H662      1.0  0.69674  0.53028  0.57729  1.0000
  C   C401      1.0  0.59688  0.75565  0.54946  1.0000
  H   H663      1.0  0.84894  0.68078  0.44339  1.0000
  C   C402      1.0  0.64848  0.59675  0.44884  1.0000
  H   H664      1.0  0.80460  0.91078  0.54902  1.0000
  C   C403      1.0  0.97808  0.76186  0.37956  1.0000
  H   H665      1.0  0.91961  0.91635  0.59476  1.0000
  H   H666      1.0  0.56131  0.80770  0.42264  1.0000
  H   H667      1.0  0.84841  0.74217  0.43222  1.0000
  H   H668      1.0  0.84158  0.80985  0.40271  1.0000
  S   S117      1.0  0.65194  0.55894  0.33781  1.0000
  C   C404      1.0  0.56718  0.75970  0.64284  1.0000
  H   H669      1.0  0.93077  0.96064  0.59067  1.0000
  H   H670      1.0  0.66553  0.51036  0.39252  1.0000
  C   C405      1.0  0.87833  0.72441  0.33600  1.0000
  H   H671      1.0  0.51047  0.73043  0.59614  1.0000
  H   H672      1.0  0.85635  0.90498  0.61331  1.0000
  H   H673      1.0  0.89019  0.69814  0.37408  1.0000
  C   C406      1.0  0.81026  0.96643  0.54681  1.0000
  C   C407      1.0  0.90937  0.51046  0.51997  1.0000
  H   H674      1.0  0.64004  0.56844  0.39663  1.0000
  C   C408      1.0  0.86709  0.71204  0.36560  1.0000
  H   H675      1.0  0.81662  0.96873  0.52406  1.0000
  H   H676      1.0  0.55816  0.81884  0.45894  1.0000
  H   H677      1.0  0.86705  0.95498  0.59423  1.0000
  C   C409      1.0  0.72818  0.62663  0.36118  1.0000
  C   C410      1.0  0.50311  0.74895  0.57924  1.0000
  C   C411      1.0  0.54368  0.68379  0.55807  1.0000
  H   H678      1.0  0.72422  0.55393  0.46982  1.0000
  H   H679      1.0  0.88596  0.82308  0.40042  1.0000
  H   H680      1.0  0.88780  0.72212  0.42121  1.0000
  H   H681      1.0  0.64864  0.73074  0.62764  1.0000
  H   H682      1.0  0.88043  0.97370  0.56240  1.0000
  C   C412      1.0  0.69194  0.57733  0.34881  1.0000
  H   H683      1.0  0.64696  0.65100  0.43688  1.0000
  H   H684      1.0  0.57071  0.73720  0.58649  1.0000
  C   C413      1.0  0.72143  0.55581  0.35113  1.0000
  Fe  Fe64      1.0  0.54198  0.63906  0.33398  1.0000
  H   H685      1.0  0.91680  0.53155  0.53380  1.0000
  C   C414      1.0  0.56882  0.69631  0.64092  1.0000
  C   C415      1.0  0.55190  0.79825  0.44326  1.0000
  H   H686      1.0  0.98353  0.58800  0.64153  1.0000
  H   H687      1.0  0.54062  0.77220  0.39166  1.0000
  H   H688      1.0  0.62050  0.59758  0.45502  1.0000
  S   S118      1.0  0.79897  0.62457  0.36903  1.0000
  H   H689      1.0  0.71000  0.52457  0.54139  1.0000
  H   H690      1.0  0.54711  0.63324  0.49327  1.0000
  H   H691      1.0  0.81468  0.68883  0.41878  1.0000
  H   H692      1.0  0.81214  0.93131  0.58161  1.0000
  H   H693      1.0  0.85116  0.87292  0.51073  1.0000
  H   H694      1.0  0.87396  0.79357  0.42745  1.0000
  H   H695      1.0  0.54589  0.71674  0.52133  1.0000
  C   C416      1.0  0.93614  0.99003  0.51368  1.0000
  H   H696      1.0  0.53031  0.82504  0.37745  1.0000
  C   C417      1.0  0.84332  0.68864  0.42128  1.0000
  H   H697      1.0  0.60751  0.55457  0.42049  1.0000
  H   H698      1.0  0.61873  0.67386  0.63121  1.0000
  H   H699      1.0  0.78233  0.78149  0.35937  1.0000
  H   H700      1.0  0.95380  0.56068  0.62356  1.0000
  C   C418      1.0  0.96085  0.70112  0.37965  1.0000
  H   H701      1.0  0.83634  0.53018  0.56129  1.0000
  H   H702      1.0  0.82549  0.78516  0.34779  1.0000
  H   H703      1.0  0.69928  0.57364  0.41002  1.0000
  S   S119      1.0  0.61688  0.90122  0.64719  1.0000
  S   S120      1.0  0.89687  0.62620  0.36096  1.0000
  C   C419      1.0  0.65470  0.54772  0.49385  1.0000
  H   H704      1.0  0.50477  0.70476  0.40850  1.0000
  H   H705      1.0  0.80614  0.76203  0.40090  1.0000
  H   H706      1.0  0.57097  0.67754  0.55221  1.0000
  C   C420      1.0  0.69534  0.61274  0.35443  1.0000
  S   S121      1.0  0.97708  0.93836  0.44526  1.0000
  H   H707      1.0  0.52308  0.72661  0.65051  1.0000
  C   C421      1.0  0.69571  0.55850  0.42976  1.0000
  S   S122      1.0  0.54581  0.65671  0.64237  1.0000
  H   H708      1.0  0.67998  0.55990  0.49856  1.0000
  C   C422      1.0  0.51249  0.79042  0.44492  1.0000
  H   H709      1.0  0.67289  0.62960  0.35265  1.0000
  C   C423      1.0  0.90271  0.53400  0.65537  1.0000
  H   H710      1.0  0.89792  0.52585  0.63323  1.0000
  H   H711      1.0  0.81168  0.53456  0.59408  1.0000
  H   H712      1.0  0.70296  0.53144  0.42403  1.0000
  C   C424      1.0  0.53006  0.71523  0.54100  1.0000
  C   C425      1.0  0.51636  0.75915  0.39813  1.0000
  H   H713      1.0  0.54755  0.71196  0.39573  1.0000
  H   H714      1.0  0.49964  0.81326  0.45507  1.0000
  H   H715      1.0  0.52480  0.85062  0.40987  1.0000
  S   S123      1.0  0.98839  0.79909  0.35994  1.0000
  H   H716      1.0  0.94617  0.50644  0.61451  1.0000
  H   H717      1.0  0.82019  0.51402  0.49595  1.0000
  H   H718      1.0  0.52651  0.80409  0.54524  1.0000
  C   C426      1.0  0.49555  0.78387  0.59420  1.0000
  H   H719      1.0  0.52842  0.66041  0.55228  1.0000
  C   C427      1.0  0.52291  0.77808  0.53535  1.0000
  C   C428      1.0  0.78073  0.50789  0.52868  1.0000
  H   H720      1.0  0.62008  0.50914  0.38665  1.0000
  C   C429      1.0  0.64002  0.51382  0.40316  1.0000
  H   H721      1.0  0.75868  0.92849  0.63858  1.0000
  C   C430      1.0  0.74086  0.49797  0.65474  1.0000
  S   S124      1.0  0.50151  0.60902  0.35715  1.0000
  C   C431      1.0  0.70624  0.50159  0.64564  1.0000
  H   H722      1.0  0.62458  0.52444  0.46164  1.0000
  H   H723      1.0  0.74804  0.50001  0.59532  1.0000
  S   S125      1.0  0.89196  0.49572  0.43494  1.0000
  H   H724      1.0  0.75640  0.50979  0.51611  1.0000
  H   H725      1.0  0.50324  0.70864  0.53402  1.0000
  S   S126      1.0  0.59362  0.50654  0.62350  1.0000
  N   N31       1.0  0.96280  0.50316  0.65854  1.0000
  H   H726      1.0  0.91205  0.56110  0.65645  1.0000
  H   H727      1.0  0.63643  0.49365  0.41948  1.0000
  H   H728      1.0  0.82210  0.98806  0.55884  1.0000
  C   C432      1.0  0.96022  0.96142  0.89993  1.0000
  H   H729      1.0  0.64126  0.84722  0.69390  1.0000
  C   C433      1.0  0.58392  0.77706  0.74748  1.0000
  H   H730      1.0  0.57077  0.82811  0.76178  1.0000
  S   S127      1.0  0.53516  0.93373  0.69298  1.0000
  H   H731      1.0  0.57967  0.79666  0.69366  1.0000
  H   H732      1.0  0.87697  0.53375  0.66607  1.0000
  H   H733      1.0  0.61588  0.81820  0.76441  1.0000
  C   C434      1.0  0.55111  0.95953  0.72173  1.0000
  C   C435      1.0  0.63678  0.83184  0.71350  1.0000
  C   C436      1.0  0.61611  0.89164  0.75017  1.0000
  C   C437      1.0  0.59298  0.81604  0.75013  1.0000
  H   H734      1.0  0.63415  0.78071  0.69192  1.0000
  H   H735      1.0  0.56544  0.87808  0.73559  1.0000
  C   C438      1.0  0.54158  0.98447  0.76920  1.0000
  C   C439      1.0  0.97205  0.98688  0.98148  1.0000
  H   H736      1.0  0.59417  0.76370  0.72852  1.0000
  H   H737      1.0  0.85017  0.98929  0.97737  1.0000
  H   H738      1.0  0.52493  0.98797  0.78743  1.0000
  H   H739      1.0  0.75284  0.51866  0.66672  1.0000
  C   C440      1.0  0.52976  0.96514  0.74560  1.0000
  H   H740      1.0  0.65211  0.77966  0.72749  1.0000
  H   H741      1.0  0.59491  0.88853  0.70808  1.0000
  H   H742      1.0  0.94950  0.93785  0.91009  1.0000
  H   H743      1.0  0.95413  0.98356  0.91404  1.0000
  N   N32       1.0  0.59946  0.83553  0.72300  1.0000
  H   H744      1.0  0.65490  0.84241  0.72961  1.0000
  H   H745      1.0  0.55537  0.77314  0.74885  1.0000
  C   C441      1.0  0.53665  0.82971  0.70431  1.0000
  C   C442      1.0  0.65001  0.79479  0.70768  1.0000
  C   C443      1.0  0.58444  0.97395  0.72173  1.0000
  H   H746      1.0  0.58274  0.83829  0.67947  1.0000
  H   H747      1.0  0.59490  0.76314  0.76597  1.0000
  H   H748      1.0  0.50392  0.95416  0.74595  1.0000
  C   C444      1.0  0.57595  0.82426  0.69922  1.0000
  C   C445      1.0  0.92727  0.50926  0.67126  1.0000
  S   S128      1.0  0.58668  0.56795  0.67146  1.0000
  C   C446      1.0  0.63276  0.52131  0.72446  1.0000
  C   C447      1.0  0.59259  0.87365  0.72814  1.0000
  H   H749      1.0  0.67994  0.97685  0.86898  1.0000
  H   H750      1.0  0.60120  0.97015  0.70358  1.0000
  H   H751      1.0  0.67664  0.79628  0.69863  1.0000
  H   H752      1.0  0.51652  0.53318  0.72626  1.0000
  H   H753      1.0  0.60432  0.91696  0.75612  1.0000
  H   H754      1.0  0.52820  0.82082  0.72543  1.0000
  H   H755      1.0  0.88861  0.96529  0.98478  1.0000
  H   H756      1.0  0.64212  0.89740  0.74119  1.0000
  C   C448      1.0  0.50608  0.50837  0.73249  1.0000
  H   H757      1.0  0.61882  0.87662  0.76994  1.0000
  H   H758      1.0  0.94636  0.96443  0.87949  1.0000
  H   H759      1.0  0.95321  0.98226  0.96500  1.0000
  H   H760      1.0  0.52925  0.85733  0.70161  1.0000
  H   H761      1.0  0.92929  0.52010  0.69300  1.0000
  H   H762      1.0  0.70979  0.98401  0.82280  1.0000
  H   H763      1.0  0.52180  0.81484  0.68823  1.0000
  H   H764      1.0  0.58165  0.49964  0.71910  1.0000
  H   H765      1.0  0.62044  0.54568  0.73218  1.0000
  H   H766      1.0  0.65659  0.51746  0.73726  1.0000
  H   H767      1.0  0.63952  0.52566  0.70205  1.0000
  H   H768      1.0  0.97932  0.55078  0.67879  1.0000
