data_image0
_chemical_formula_structural       SHCH9SHCH2C2H3NC3H3FeHCH2C6H2CFeH3CH3CHC2SCNHCH6CSHCH8C2H3C2H3CSH4CS2HC2H3CH3CH3CH3C3HFeH3CH2NSFeC2SCHS2H2NH2C3HCSH2CH3CH3C2H5CFeC2SHCH2CH3SCFeH2SHSFeSCFeSFeS2H2SNHSFeSFeSH3C2SH3SC2SH2SHCH3CNC2SHC4H2CSC7H4C2H3C6H4CHCH4CH2C3H2CH4CH4CH5CH6CNFeH2CHCHCH2FeHFeCFeH2CHCH2CHCHCH3CHCSH5C2H5NCHCHCH5SCH8CH4CHCNC3HC2H4CHC2HSFeH3SHSHCHCH2SFeS2FeSFeS3FeSH2SFeSFeSHSHC2H3FeCSHFeS2CHFeH3FeS2HC3H4CHSCHSH4CSH3C2HFeC3HC2HSC6H8C7H4C2H2C2HNH2SCH2NC8H20S2H2CH5C2HCHCH5CH2FeC3HNCH2CHCHCHCH2C2H5NC2HCHCHCH5CH2CH6CHFeH2NHC3SC2FeCHC2FeHSH4CSHC4H2C2S2HFeCSCFeS2FeS2FeSFeS6FeS2HCH2C6H4C6H4CHC2HC6H4C2H6CHCHCNH2C2H5CH4C4HNH2CH5CH2CH3CH2CHCH3CNC8H23FeCHCHCSH2NHC2H6CHSNCHCNCH2CH2CH4CH8CH3CHCHCH2CHCH2CH3C3HCH4C2H2CH2SH2CNH4SC2HC2H2CH3CH3SCFeS2FeS2FeSFeS3NC2H3CHFeS2C2HC7H3C6H4C6H3C3H2CSH3CH2CH5NSHCH2CH2CH3CH6C2NH4C3H2CH2CHCHCH3CH2C3H3NHCH5CSCSH4C2H2NCHCHCH2SCHCH4CH4CHCH4CHC2H2SHC2H3CH2C2H2CSCH5CFeH5SCH5C2H3CHFeCHCH5SFeSFe2S2FeSFeS3HCS2HCH2SHC6H4C6H5C2H6CHCHCHCH6CH2CH2CH3CNHNC8H13C2HCHCH4C2H3FeCHSCH7CH4C3H5FeS2FeS2FeHFeCS3FeS2CH6C3HCHCH2C8H6CH2C2HC3H4CH5CHCH2CH3FeH3C2H4NHC2H3NCH3CSHCHCH2CHCHCHCH2NCHCH10CH2NSHCHNSCHCH2CHC2H3CH2CH4CH2CHCSHCS2H2CH2CHFeS2FeS2FeSFeS3FeHFeS2HFeHS2H4CSNH3C9H4C6H4C2H4C3HCH3CHC3HC2HCH3NCHC3HCHCH10CFeH4CHCH3SH2FeC2HC2HCH2CHNCH3C2H3CHNC2SCH5C2H3SHC3NH2CH3CHC2H5CHC2HNSCH2CH4C2H2CH15CH3CHCH14CHCHCH3CSH5NH2CH2SFeS2FeS2FeSFeS3CSHCSH2FeS2H4CFeHFeS2CH3C3SH3CH3C6H9C6H5NFeC3H3CFeH2C6H5CH5SHNC5HC2H4CH8CH4CHNC6HCH8FeH3FeC2H5CHC2HCHSH3CFeC3NH2CH4CSHNC8H20NCHC2HCH3C5SH2SCH2CHCHCHSH7C3H5CH2SFeSHFeSFeSFeS2FeS2FeSNHFeSHSFeSFeS2Fe2HS2FeHSFeHCH2S2CFeHC2HSHC6H4CH2C4H2C6H4C6H5C3HC2HCFeH4CFeHCHNHCH2CHS2HC2NC8H20C5HS2HCHC2H3CH4CHNHCH2C2HC2H2C3H6CSH8CHNC8H11SH10CH3C2SHCHNCH4CNCH2C2SH3C3H6CSHCHCHCH7CH8C2H2CH3CHC2HSHCH2FeH3CH3C2HCHCH2C2HC3FeS2FeSFeSFeS2FeS2HFeSFeS3HSFeSNFeSFeHSHSHS2FeSFe2HCSHC6H5CH3C3HC2NHNHSH2C6H6C7H4CHCH4CH3CH3C2HSH2C3SH8C2HCH6CH2C2HC2HCH3CS2H10SCH5FeH3CHCHCHC2HCHCHC2HCNSHCHCH2CH2C3H6FeH4SCH2FeHCH2FeHC2HSHC2H6C3H2SHNH11CH2C2HCHNSCHCHC2HSHC3HCHNHFeCSFeS2C2S3H6SCHC2HCH2C2FeCSHCH2CHCSCH4CHCHCH3C2FeH8C6H6SH4C2SH5FeCH7NC8H9CH5CH4NC6HSH6C2H9SHCH5CH2NC2SH6FeH3SHCHCFeH3CHC2HC5HCH2CH2FeCSFeHSH3S2CSC2FeS2H3SCFeSHFeSH2SNH2SFeH2CH5SH3CH2FeH2FeH6CHSC2H2CH2C6H5CHC2FeH3CHFeH2CHCH2CH3CNH3CH2CH2C2HC6H4SH7CSCS2CHCSCHCH2CFeHNCFeC4HC2HCH2FeNHC2HCSHC3H2CHCHSH5C2H7CHNHCH3CHCH5SHC2HCSFeSH2SFeSFeS2H2CSC2H4SCNFeCHC2HC6H4C3HCHCHCNC4HC3H21NHFeH7CH3CH3SH8SHCSFeSFeSHSFeS2FeHCHSC3HNC8H4SHCH2CHCHFeHCHC5H2SCHFeH5CH3CH3SH2C2H3CH5CFeCHC
_chemical_formula_sum              "S288 H1728 C1008 N72 Fe144"
_cell_length_a       70.4059
_cell_length_b       70.2779
_cell_length_c       36.8053
_cell_angle_alpha    90.9733
_cell_angle_beta     90.9543
_cell_angle_gamma    112.321

_space_group_name_H-M_alt    "P 1"
_space_group_IT_number       1

loop_
  _space_group_symop_operation_xyz
  'x, y, z'

loop_
  _atom_site_type_symbol
  _atom_site_label
  _atom_site_symmetry_multiplicity
  _atom_site_fract_x
  _atom_site_fract_y
  _atom_site_fract_z
  _atom_site_occupancy
  S   S1        1.0  0.46570  0.08727  0.08303  1.0000
  H   H1        1.0  0.42712  0.11681  0.31889  1.0000
  C   C1        1.0  0.45167  0.06994  0.15021  1.0000
  H   H2        1.0  0.44922  0.15605  0.28113  1.0000
  H   H3        1.0  0.43022  0.22495  0.15840  1.0000
  H   H4        1.0  0.38029  0.21763  0.11441  1.0000
  H   H5        1.0  0.44850  0.15755  0.20552  1.0000
  H   H6        1.0  0.39361  0.15222  0.12411  1.0000
  H   H7        1.0  0.46468  0.22307  0.07380  1.0000
  H   H8        1.0  0.42931  0.20897  0.19549  1.0000
  H   H9        1.0  0.36416  0.05037  0.01664  1.0000
  H   H10       1.0  0.40727  0.23067  0.11186  1.0000
  S   S2        1.0  0.47294  0.07943  0.25573  1.0000
  H   H11       1.0  0.34482  0.06853  0.03439  1.0000
  C   C2        1.0  0.46725  0.08466  0.13104  1.0000
  H   H12       1.0  0.47854  0.22367  0.24076  1.0000
  H   H13       1.0  0.46504  0.13647  0.30927  1.0000
  C   C3        1.0  0.47194  0.13920  0.23570  1.0000
  C   C4        1.0  0.45658  0.12287  0.29140  1.0000
  H   H14       1.0  0.36263  0.02483  0.01189  1.0000
  H   H15       1.0  0.34230  0.01422  0.06740  1.0000
  H   H16       1.0  0.43309  0.12339  0.18174  1.0000
  N   N1        1.0  0.45175  0.12925  0.25444  1.0000
  C   C5        1.0  0.45380  0.06845  0.18821  1.0000
  C   C6        1.0  0.47141  0.08169  0.20764  1.0000
  C   C7        1.0  0.43803  0.10925  0.31335  1.0000
  H   H17       1.0  0.41127  0.17626  0.05480  1.0000
  H   H18       1.0  0.42570  0.13575  0.27243  1.0000
  H   H19       1.0  0.44172  0.05688  0.20264  1.0000
  Fe  Fe1       1.0  0.40442  0.03400  0.00491  1.0000
  H   H20       1.0  0.36528  0.03601  0.07568  1.0000
  C   C8        1.0  0.44094  0.14386  0.26028  1.0000
  H   H21       1.0  0.42138  0.14528  0.21412  1.0000
  H   H22       1.0  0.42196  0.10498  0.24292  1.0000
  C   C9        1.0  0.43808  0.11001  0.23371  1.0000
  C   C10       1.0  0.43219  0.21095  0.08652  1.0000
  C   C11       1.0  0.48401  0.16877  0.46373  1.0000
  C   C12       1.0  0.48482  0.09795  0.15053  1.0000
  C   C13       1.0  0.39440  0.15463  0.09442  1.0000
  C   C14       1.0  0.35362  0.03409  0.02014  1.0000
  H   H23       1.0  0.44376  0.10636  0.34019  1.0000
  H   H24       1.0  0.45019  0.21510  0.16585  1.0000
  C   C15       1.0  0.32160  0.04035  0.00873  1.0000
  Fe  Fe2       1.0  0.44090  0.07181  0.03873  1.0000
  H   H25       1.0  0.39116  0.19713  0.07343  1.0000
  H   H26       1.0  0.45241  0.16707  0.46405  1.0000
  H   H27       1.0  0.43124  0.18218  0.14527  1.0000
  C   C16       1.0  0.41286  0.17406  0.08426  1.0000
  H   H28       1.0  0.40732  0.18250  0.15951  1.0000
  H   H29       1.0  0.43567  0.22605  0.10026  1.0000
  H   H30       1.0  0.39591  0.14095  0.08113  1.0000
  C   C17       1.0  0.42135  0.19135  0.14428  1.0000
  H   H31       1.0  0.42664  0.17003  0.08715  1.0000
  C   C18       1.0  0.43340  0.21139  0.16643  1.0000
  C   C19       1.0  0.45282  0.20828  0.08217  1.0000
  S   S3        1.0  0.43899  0.04524  0.00154  1.0000
  C   C20       1.0  0.39576  0.19692  0.10254  1.0000
  N   N2        1.0  0.41574  0.19367  0.10526  1.0000
  H   H32       1.0  0.44289  0.09697  0.23958  1.0000
  C   C21       1.0  0.39522  0.21642  0.12131  1.0000
  H   H33       1.0  0.46691  0.11424  0.28885  1.0000
  H   H34       1.0  0.43811  0.05956  0.13572  1.0000
  H   H35       1.0  0.45200  0.11170  0.18000  1.0000
  H   H36       1.0  0.42673  0.21283  0.05870  1.0000
  H   H37       1.0  0.35657  0.11549  0.00350  1.0000
  H   H38       1.0  0.38306  0.18402  0.11474  1.0000
  C   C22       1.0  0.43672  0.15448  0.22647  1.0000
  S   S4        1.0  0.40670  0.05965  0.04530  1.0000
  H   H39       1.0  0.43699  0.16987  0.23474  1.0000
  C   C23       1.0  0.43729  0.11079  0.19185  1.0000
  H   H40       1.0  0.47742  0.15613  0.44294  1.0000
  H   H41       1.0  0.31442  0.03462  0.03516  1.0000
  H   H42       1.0  0.48026  0.12849  0.23482  1.0000
  H   H43       1.0  0.45826  0.20378  0.10777  1.0000
  H   H44       1.0  0.46041  0.12892  0.48119  1.0000
  H   H45       1.0  0.37975  0.15509  0.08367  1.0000
  H   H46       1.0  0.46989  0.14222  0.20678  1.0000
  H   H47       1.0  0.35846  0.15116  0.00198  1.0000
  C   C24       1.0  0.48664  0.15995  0.25256  1.0000
  C   C25       1.0  0.47439  0.12699  0.49180  1.0000
  H   H48       1.0  0.39597  0.21555  0.15132  1.0000
  H   H49       1.0  0.42990  0.09394  0.30001  1.0000
  H   H50       1.0  0.45168  0.19686  0.06018  1.0000
  C   C26       1.0  0.33277  0.06394  0.01256  1.0000
  C   C27       1.0  0.48689  0.09654  0.18854  1.0000
  H   H51       1.0  0.34169  0.03975  0.07301  1.0000
  H   H52       1.0  0.48032  0.17213  0.25009  1.0000
  H   H53       1.0  0.47060  0.18963  0.48745  1.0000
  C   C28       1.0  0.35012  0.03073  0.06124  1.0000
  S   S5        1.0  0.38614  0.99891  0.01410  1.0000
  H   H54       1.0  0.31694  0.00187  0.02676  1.0000
  H   H55       1.0  0.32152  0.07085  0.02001  1.0000
  H   H56       1.0  0.42547  0.09614  0.18100  1.0000
  H   H57       1.0  0.48205  0.12221  0.46936  1.0000
  C   C29       1.0  0.46632  0.17288  0.48216  1.0000
  S   S6        1.0  0.48745  0.10343  0.35319  1.0000
  S   S7        1.0  0.40174  0.05238  0.95669  1.0000
  H   H58       1.0  0.40939  0.01023  0.94945  1.0000
  C   C30       1.0  0.39530  0.00476  0.89597  1.0000
  C   C31       1.0  0.41373  0.00732  0.92158  1.0000
  H   H59       1.0  0.39425  0.02001  0.89242  1.0000
  H   H60       1.0  0.35694  0.02828  0.91186  1.0000
  H   H61       1.0  0.33812  0.00564  0.92970  1.0000
  C   C32       1.0  0.35011  0.02080  0.93747  1.0000
  H   H62       1.0  0.36242  0.01831  0.95332  1.0000
  H   H63       1.0  0.32817  0.03534  0.94091  1.0000
  H   H64       1.0  0.35308  0.05063  0.95763  1.0000
  C   C33       1.0  0.34113  0.03472  0.95796  1.0000
  H   H65       1.0  0.42614  0.02196  0.91478  1.0000
  H   H66       1.0  0.30524  0.00172  0.94549  1.0000
  H   H67       1.0  0.42311  0.17266  0.98272  1.0000
  C   C34       1.0  0.30245  0.99763  0.97437  1.0000
  H   H68       1.0  0.43151  0.99575  0.97759  1.0000
  H   H69       1.0  0.42959  0.00731  0.84144  1.0000
  H   H70       1.0  0.42125  0.13628  0.98483  1.0000
  C   C35       1.0  0.39084  0.16457  0.99216  1.0000
  C   C36       1.0  0.40757  0.13954  0.98859  1.0000
  C   C37       1.0  0.40861  0.16019  0.98721  1.0000
  H   H71       1.0  0.39678  0.99872  0.86864  1.0000
  Fe  Fe3       1.0  0.41103  0.22421  0.99052  1.0000
  H   H72       1.0  0.38066  0.99461  0.90793  1.0000
  H   H73       1.0  0.33968  0.07091  0.98674  1.0000
  H   H74       1.0  0.29053  0.00296  0.98463  1.0000
  C   C38       1.0  0.38872  0.12319  0.99447  1.0000
  H   H75       1.0  0.33169  0.99689  0.99236  1.0000
  H   H76       1.0  0.30850  0.03765  0.98930  1.0000
  N   N3        1.0  0.33457  0.02875  0.99635  1.0000
  S   S8        1.0  0.38534  0.09664  0.99656  1.0000
  Fe  Fe4       1.0  0.40668  0.07886  0.99659  1.0000
  C   C39       1.0  0.37227  0.14814  0.99804  1.0000
  C   C40       1.0  0.37121  0.12780  0.99905  1.0000
  S   S9        1.0  0.39046  0.18994  0.99447  1.0000
  C   C41       1.0  0.32214  0.00600  0.99858  1.0000
  H   H77       1.0  0.44665  0.21673  0.65287  1.0000
  S   S10       1.0  0.45354  0.06274  0.90334  1.0000
  S   S11       1.0  0.44092  0.09217  0.99166  1.0000
  H   H78       1.0  0.46274  0.21361  0.81629  1.0000
  H   H79       1.0  0.47846  0.07912  0.77885  1.0000
  N   N4        1.0  0.47694  0.21160  0.72623  1.0000
  H   H80       1.0  0.47285  0.05977  0.83639  1.0000
  H   H81       1.0  0.46923  0.11413  0.51113  1.0000
  C   C42       1.0  0.47056  0.08306  0.80090  1.0000
  C   C43       1.0  0.46422  0.21382  0.75736  1.0000
  C   C44       1.0  0.45323  0.10390  0.82595  1.0000
  H   H82       1.0  0.46615  0.00934  0.92178  1.0000
  C   C45       1.0  0.46334  0.20589  0.69235  1.0000
  S   S12       1.0  0.46836  0.11453  0.75760  1.0000
  H   H83       1.0  0.46166  0.16486  0.50807  1.0000
  H   H84       1.0  0.44948  0.20030  0.75907  1.0000
  C   C46       1.0  0.45764  0.01207  0.94509  1.0000
  H   H85       1.0  0.44395  0.22420  0.69840  1.0000
  H   H86       1.0  0.44832  0.01891  0.87760  1.0000
  H   H87       1.0  0.47163  0.20237  0.66923  1.0000
  C   C47       1.0  0.47472  0.21857  0.79532  1.0000
  H   H88       1.0  0.46770  0.01407  0.96963  1.0000
  H   H89       1.0  0.44780  0.11630  0.82330  1.0000
  H   H90       1.0  0.44197  0.09684  0.88052  1.0000
  C   C48       1.0  0.46734  0.07211  0.83359  1.0000
  C   C49       1.0  0.46856  0.17298  0.73759  1.0000
  H   H91       1.0  0.46741  0.23720  0.67453  1.0000
  H   H92       1.0  0.45932  0.16640  0.71244  1.0000
  H   H93       1.0  0.45546  0.02674  0.94211  1.0000
  H   H94       1.0  0.45908  0.22672  0.75254  1.0000
  H   H95       1.0  0.45839  0.17268  0.76041  1.0000
  C   C50       1.0  0.44992  0.09290  0.85853  1.0000
  Fe  Fe5       1.0  0.43629  0.06470  0.95492  1.0000
  C   C51       1.0  0.45504  0.22211  0.67926  1.0000
  C   C52       1.0  0.45699  0.07693  0.86261  1.0000
  S   S13       1.0  0.47209  0.11463  0.64870  1.0000
  H   H96       1.0  0.44953  0.19165  0.69622  1.0000
  C   C53       1.0  0.46359  0.09912  0.79695  1.0000
  H   H97       1.0  0.47642  0.16243  0.74460  1.0000
  H   H98       1.0  0.45161  0.00116  0.84602  1.0000
  C   C54       1.0  0.43993  0.00451  0.86196  1.0000
  H   H99       1.0  0.48030  0.15015  0.53449  1.0000
  H   H100      1.0  0.48365  0.23536  0.79935  1.0000
  H   H101      1.0  0.48714  0.04889  0.53249  1.0000
  S   S14       1.0  0.44535  0.23535  0.99103  1.0000
  C   C55       1.0  0.48491  0.19468  0.73180  1.0000
  Fe  Fe6       1.0  0.48619  0.11693  0.70511  1.0000
  H   H102      1.0  0.48464  0.20996  0.80101  1.0000
  H   H103      1.0  0.48697  0.20970  0.59462  1.0000
  S   S15       1.0  0.48740  0.17020  0.61181  1.0000
  H   H104      1.0  0.14431  0.34401  0.05588  1.0000
  S   S16       1.0  0.16319  0.45005  0.31064  1.0000
  Fe  Fe7       1.0  0.21507  0.48107  0.26642  1.0000
  S   S17       1.0  0.20745  0.44909  0.28618  1.0000
  C   C56       1.0  0.27096  0.42375  0.49419  1.0000
  Fe  Fe8       1.0  0.17638  0.44205  0.25974  1.0000
  S   S18       1.0  0.15919  0.41304  0.22543  1.0000
  Fe  Fe9       1.0  0.19508  0.46000  0.33530  1.0000
  S   S19       1.0  0.20495  0.45375  0.39181  1.0000
  S   S20       1.0  0.18499  0.47328  0.23661  1.0000
  H   H105      1.0  0.38046  0.35276  0.08708  1.0000
  H   H106      1.0  0.31503  0.48841  0.12298  1.0000
  S   S21       1.0  0.32268  0.46881  0.32033  1.0000
  N   N5        1.0  0.30452  0.47277  0.17345  1.0000
  H   H107      1.0  0.24979  0.47020  0.41030  1.0000
  S   S22       1.0  0.36253  0.45748  0.33910  1.0000
  Fe  Fe10      1.0  0.34188  0.45489  0.28983  1.0000
  S   S23       1.0  0.32333  0.42660  0.25459  1.0000
  Fe  Fe11      1.0  0.34510  0.47425  0.36749  1.0000
  S   S24       1.0  0.33238  0.47251  0.42460  1.0000
  H   H108      1.0  0.36271  0.31666  0.11279  1.0000
  H   H109      1.0  0.34790  0.38079  0.11930  1.0000
  H   H110      1.0  0.27630  0.44570  0.42061  1.0000
  C   C57       1.0  0.10412  0.46283  0.19613  1.0000
  C   C58       1.0  0.24637  0.42850  0.30235  1.0000
  S   S25       1.0  0.46890  0.26558  0.07904  1.0000
  H   H111      1.0  0.35048  0.33296  0.15621  1.0000
  H   H112      1.0  0.43168  0.26620  0.19135  1.0000
  H   H113      1.0  0.15617  0.49112  0.20983  1.0000
  S   S26       1.0  0.34209  0.41559  0.08801  1.0000
  C   C59       1.0  0.16262  0.45664  0.46431  1.0000
  C   C60       1.0  0.15884  0.35088  0.07213  1.0000
  S   S27       1.0  0.13953  0.41615  0.05647  1.0000
  H   H114      1.0  0.20858  0.41852  0.09013  1.0000
  H   H115      1.0  0.19510  0.39528  0.17860  1.0000
  S   S28       1.0  0.36235  0.48477  0.26659  1.0000
  H   H116      1.0  0.35965  0.45058  0.43840  1.0000
  C   C61       1.0  0.20474  0.37711  0.07318  1.0000
  H   H117      1.0  0.33282  0.47162  0.19586  1.0000
  H   H118      1.0  0.43417  0.26318  0.12421  1.0000
  H   H119      1.0  0.20025  0.36114  0.08294  1.0000
  C   C62       1.0  0.27981  0.44402  0.39164  1.0000
  N   N6        1.0  0.35174  0.35178  0.10958  1.0000
  C   C63       1.0  0.37875  0.38856  0.10224  1.0000
  C   C64       1.0  0.36363  0.34420  0.08306  1.0000
  S   S29       1.0  0.46151  0.27489  0.24999  1.0000
  H   H120      1.0  0.32511  0.33967  0.07340  1.0000
  C   C65       1.0  0.23754  0.40668  0.39457  1.0000
  C   C66       1.0  0.46657  0.26969  0.12608  1.0000
  C   C67       1.0  0.44771  0.26686  0.14150  1.0000
  C   C68       1.0  0.44637  0.26871  0.17950  1.0000
  H   H121      1.0  0.29420  0.46440  0.11753  1.0000
  H   H122      1.0  0.26094  0.48230  0.28619  1.0000
  C   C69       1.0  0.10841  0.43843  0.11951  1.0000
  S   S30       1.0  0.29935  0.36321  0.03776  1.0000
  C   C70       1.0  0.32421  0.48204  0.19572  1.0000
  C   C71       1.0  0.32906  0.42313  0.20869  1.0000
  C   C72       1.0  0.31494  0.40700  0.18722  1.0000
  C   C73       1.0  0.31861  0.40433  0.15024  1.0000
  C   C74       1.0  0.33664  0.41760  0.13454  1.0000
  C   C75       1.0  0.35085  0.43351  0.15618  1.0000
  C   C76       1.0  0.34703  0.43638  0.19291  1.0000
  H   H123      1.0  0.30096  0.39669  0.19916  1.0000
  H   H124      1.0  0.30745  0.39216  0.13386  1.0000
  H   H125      1.0  0.36483  0.44387  0.14430  1.0000
  H   H126      1.0  0.35807  0.44879  0.20905  1.0000
  C   C77       1.0  0.35679  0.45672  0.46397  1.0000
  C   C78       1.0  0.34473  0.46860  0.46448  1.0000
  H   H127      1.0  0.09949  0.44800  0.11348  1.0000
  H   H128      1.0  0.99161  0.29351  0.09443  1.0000
  H   H129      1.0  0.00970  0.32171  0.05520  1.0000
  C   C79       1.0  0.15439  0.41372  0.17813  1.0000
  C   C80       1.0  0.14047  0.39606  0.15984  1.0000
  C   C81       1.0  0.13598  0.39631  0.12237  1.0000
  C   C82       1.0  0.14527  0.41433  0.10300  1.0000
  C   C83       1.0  0.15925  0.43191  0.12129  1.0000
  C   C84       1.0  0.16394  0.43157  0.15851  1.0000
  H   H130      1.0  0.13300  0.38216  0.17479  1.0000
  H   H131      1.0  0.12507  0.38270  0.10866  1.0000
  H   H132      1.0  0.16655  0.44591  0.10649  1.0000
  H   H133      1.0  0.17491  0.44517  0.17201  1.0000
  C   C85       1.0  0.35595  0.37390  0.10098  1.0000
  H   H134      1.0  0.21432  0.44920  0.46667  1.0000
  C   C86       1.0  0.26298  0.47647  0.39207  1.0000
  H   H135      1.0  0.27392  0.45548  0.22905  1.0000
  H   H136      1.0  0.23726  0.39728  0.36993  1.0000
  H   H137      1.0  0.22951  0.38300  0.11415  1.0000
  H   H138      1.0  0.27021  0.47627  0.13227  1.0000
  C   C87       1.0  0.36029  0.32122  0.08496  1.0000
  H   H139      1.0  0.23765  0.38595  0.06764  1.0000
  H   H140      1.0  0.16902  0.38278  0.12923  1.0000
  C   C88       1.0  0.17301  0.45702  0.43170  1.0000
  C   C89       1.0  0.19164  0.45420  0.43228  1.0000
  C   C90       1.0  0.19993  0.45139  0.46589  1.0000
  H   H141      1.0  0.16639  0.45909  0.40605  1.0000
  H   H142      1.0  0.38704  0.38663  0.12685  1.0000
  C   C91       1.0  0.29187  0.48561  0.17958  1.0000
  H   H143      1.0  0.20608  0.42989  0.03005  1.0000
  H   H144      1.0  0.31472  0.34127  0.15415  1.0000
  H   H145      1.0  0.13548  0.46329  0.23747  1.0000
  H   H146      1.0  0.23067  0.42004  0.31219  1.0000
  C   C92       1.0  0.19900  0.40024  0.15023  1.0000
  H   H147      1.0  0.32521  0.46253  0.09254  1.0000
  H   H148      1.0  0.36000  0.34712  0.05458  1.0000
  H   H149      1.0  0.12343  0.44469  0.10592  1.0000
  H   H150      1.0  0.29803  0.42905  0.36359  1.0000
  C   C93       1.0  0.48419  0.27523  0.14880  1.0000
  H   H151      1.0  0.29810  0.49127  0.30221  1.0000
  H   H152      1.0  0.31692  0.44526  0.12908  1.0000
  H   H153      1.0  0.30338  0.44215  0.18352  1.0000
  H   H154      1.0  0.13242  0.47502  0.13778  1.0000
  H   H155      1.0  0.26310  0.41530  0.33554  1.0000
  C   C94       1.0  0.32329  0.46177  0.12245  1.0000
  H   H156      1.0  0.08036  0.45874  0.15391  1.0000
  H   H157      1.0  0.15771  0.38095  0.06723  1.0000
  H   H158      1.0  0.34243  0.36857  0.17303  1.0000
  H   H159      1.0  0.30081  0.43019  0.41179  1.0000
  H   H160      1.0  0.22212  0.39969  0.40664  1.0000
  H   H161      1.0  0.27819  0.41161  0.39072  1.0000
  C   C95       1.0  0.18961  0.45116  0.49854  1.0000
  N   N7        1.0  0.18906  0.38591  0.08368  1.0000
  Fe  Fe12      1.0  0.17429  0.48201  0.28872  1.0000
  H   H162      1.0  0.27815  0.43982  0.31917  1.0000
  H   H163      1.0  0.32092  0.48385  0.22477  1.0000
  C   C96       1.0  0.29327  0.45099  0.18524  1.0000
  H   H164      1.0  0.33882  0.46923  0.13513  1.0000
  C   C97       1.0  0.35834  0.34920  0.14784  1.0000
  H   H165      1.0  0.29818  0.45486  0.24488  1.0000
  C   C98       1.0  0.28942  0.42757  0.38910  1.0000
  H   H166      1.0  0.21542  0.40313  0.14686  1.0000
  H   H167      1.0  0.24064  0.43674  0.41213  1.0000
  Fe  Fe13      1.0  0.38160  0.48877  0.31753  1.0000
  H   H168      1.0  0.24853  0.41942  0.27891  1.0000
  Fe  Fe14      1.0  0.32513  0.39436  0.04012  1.0000
  C   C99       1.0  0.19530  0.40815  0.07356  1.0000
  Fe  Fe15      1.0  0.44447  0.25837  0.03361  1.0000
  H   H169      1.0  0.12094  0.42660  0.16225  1.0000
  H   H170      1.0  0.15464  0.34852  0.10106  1.0000
  C   C100      1.0  0.16927  0.37387  0.06296  1.0000
  H   H171      1.0  0.29805  0.33509  0.11517  1.0000
  C   C101      1.0  0.22701  0.38867  0.08722  1.0000
  H   H172      1.0  0.09132  0.45019  0.20874  1.0000
  H   H173      1.0  0.16835  0.34205  0.06439  1.0000
  C   C102      1.0  0.32924  0.33906  0.10262  1.0000
  H   H174      1.0  0.24872  0.40561  0.41511  1.0000
  C   C103      1.0  0.46394  0.27384  0.20227  1.0000
  H   H175      1.0  0.37509  0.35231  0.14882  1.0000
  C   C104      1.0  0.31384  0.34477  0.12506  1.0000
  H   H176      1.0  0.31549  0.36095  0.12174  1.0000
  H   H177      1.0  0.27427  0.47040  0.34116  1.0000
  H   H178      1.0  0.37973  0.40473  0.10244  1.0000
  C   C105      1.0  0.35512  0.36328  0.17801  1.0000
  H   H179      1.0  0.35167  0.35472  0.20376  1.0000
  C   C106      1.0  0.30870  0.47249  0.13344  1.0000
  S   S31       1.0  0.20517  0.49270  0.31694  1.0000
  H   H180      1.0  0.14800  0.45837  0.46344  1.0000
  H   H181      1.0  0.09996  0.42299  0.10669  1.0000
  H   H182      1.0  0.34969  0.37489  0.07342  1.0000
  H   H183      1.0  0.20505  0.37506  0.04325  1.0000
  H   H184      1.0  0.18271  0.41358  0.07944  1.0000
  C   C107      1.0  0.18475  0.38340  0.12382  1.0000
  C   C108      1.0  0.20120  0.41305  0.03366  1.0000
  H   H185      1.0  0.37160  0.31823  0.06736  1.0000
  H   H186      1.0  0.35462  0.27273  0.00050  1.0000
  H   H187      1.0  0.23177  0.40555  0.08874  1.0000
  H   H188      1.0  0.18487  0.36845  0.13313  1.0000
  H   H189      1.0  0.29275  0.45868  0.38549  1.0000
  N   N8        1.0  0.12044  0.45528  0.18406  1.0000
  C   C109      1.0  0.12986  0.45005  0.21774  1.0000
  H   H190      1.0  0.14985  0.46571  0.15800  1.0000
  C   C110      1.0  0.11123  0.43591  0.16059  1.0000
  H   H191      1.0  0.24699  0.46070  0.34381  1.0000
  C   C111      1.0  0.11575  0.43150  0.23921  1.0000
  H   H192      1.0  0.27974  0.42264  0.47002  1.0000
  H   H193      1.0  0.28000  0.44263  0.16657  1.0000
  H   H194      1.0  0.38668  0.38649  0.07753  1.0000
  H   H195      1.0  0.14357  0.44666  0.21070  1.0000
  H   H196      1.0  0.32582  0.28494  0.00417  1.0000
  S   S32       1.0  0.11237  0.35630  0.01787  1.0000
  C   C112      1.0  0.09385  0.47129  0.16664  1.0000
  H   H197      1.0  0.09597  0.42580  0.17074  1.0000
  H   H198      1.0  0.36956  0.37680  0.18380  1.0000
  H   H199      1.0  0.24769  0.44359  0.29164  1.0000
  H   H200      1.0  0.22814  0.42908  0.36930  1.0000
  H   H201      1.0  0.12463  0.42930  0.26290  1.0000
  H   H202      1.0  0.10234  0.43404  0.25024  1.0000
  H   H203      1.0  0.11065  0.41690  0.22297  1.0000
  H   H204      1.0  0.18804  0.40562  0.01460  1.0000
  C   C113      1.0  0.24155  0.42915  0.38583  1.0000
  H   H205      1.0  0.34490  0.31112  0.07406  1.0000
  H   H206      1.0  0.27787  0.43183  0.22992  1.0000
  H   H207      1.0  0.32566  0.32256  0.10802  1.0000
  H   H208      1.0  0.17168  0.37419  0.03321  1.0000
  C   C114      1.0  0.99401  0.31989  0.06359  1.0000
  H   H209      1.0  0.19645  0.41482  0.14762  1.0000
  C   C115      1.0  0.28544  0.44851  0.22453  1.0000
  N   N9        1.0  0.26133  0.44105  0.36719  1.0000
  C   C116      1.0  0.26130  0.46202  0.35896  1.0000
  C   C117      1.0  0.26311  0.43092  0.33158  1.0000
  C   C118      1.0  0.17078  0.45360  0.49788  1.0000
  H   H210      1.0  0.26276  0.49121  0.38201  1.0000
  C   C119      1.0  0.41891  0.49089  0.49849  1.0000
  C   C120      1.0  0.13756  0.47149  0.16452  1.0000
  H   H211      1.0  0.26027  0.46204  0.17308  1.0000
  H   H212      1.0  0.10435  0.47974  0.14528  1.0000
  H   H213      1.0  0.27758  0.48034  0.40785  1.0000
  H   H214      1.0  0.10987  0.47459  0.21863  1.0000
  C   C121      1.0  0.14784  0.49240  0.18487  1.0000
  H   H215      1.0  0.99611  0.33060  0.08710  1.0000
  C   C122      1.0  0.27002  0.47717  0.16233  1.0000
  C   C123      1.0  0.48291  0.27754  0.18666  1.0000
  H   H216      1.0  0.08854  0.48279  0.17937  1.0000
  S   S33       1.0  0.34465  0.38624  0.99938  1.0000
  Fe  Fe16      1.0  0.12619  0.39070  0.01291  1.0000
  H   H217      1.0  0.25586  0.42376  0.48495  1.0000
  H   H218      1.0  0.29038  0.48801  0.20903  1.0000
  H   H219      1.0  0.26241  0.48797  0.16930  1.0000
  S   S34       1.0  0.40998  0.24623  0.03569  1.0000
  H   H220      1.0  0.37315  0.44223  0.49627  1.0000
  S   S35       1.0  0.48382  0.26606  0.42732  1.0000
  H   H221      1.0  0.21429  0.40885  0.02597  1.0000
  C   C124      1.0  0.34107  0.47635  0.49798  1.0000
  H   H222      1.0  0.41122  0.49399  0.47394  1.0000
  C   C125      1.0  0.36438  0.45197  0.49682  1.0000
  H   H223      1.0  0.33195  0.48575  0.49858  1.0000
  H   H224      1.0  0.30774  0.41226  0.57994  1.0000
  S   S36       1.0  0.15535  0.46210  0.64219  1.0000
  Fe  Fe17      1.0  0.19646  0.43872  0.64616  1.0000
  S   S37       1.0  0.16420  0.42067  0.62589  1.0000
  S   S38       1.0  0.21903  0.42333  0.65170  1.0000
  Fe  Fe18      1.0  0.16784  0.44949  0.59555  1.0000
  S   S39       1.0  0.15690  0.45294  0.53809  1.0000
  Fe  Fe19      1.0  0.15535  0.43515  0.67462  1.0000
  S   S40       1.0  0.12945  0.41805  0.71282  1.0000
  S   S41       1.0  0.20077  0.46642  0.61266  1.0000
  S   S42       1.0  0.18748  0.45143  0.69621  1.0000
  Fe  Fe20      1.0  0.33334  0.47459  0.67264  1.0000
  S   S43       1.0  0.33186  0.44330  0.65525  1.0000
  H   H225      1.0  0.43543  0.24755  0.85171  1.0000
  H   H226      1.0  0.38870  0.29538  0.86731  1.0000
  S   S44       1.0  0.38141  0.46053  0.67669  1.0000
  Fe  Fe21      1.0  0.36157  0.46036  0.62761  1.0000
  S   S45       1.0  0.36933  0.45226  0.57108  1.0000
  Fe  Fe22      1.0  0.35144  0.44570  0.70573  1.0000
  S   S46       1.0  0.34288  0.41753  0.74123  1.0000
  H   H227      1.0  0.12269  0.46765  0.81075  1.0000
  S   S47       1.0  0.35043  0.47571  0.72480  1.0000
  H   H228      1.0  0.43405  0.30443  0.79074  1.0000
  C   C126      1.0  0.28630  0.42619  0.92205  1.0000
  C   C127      1.0  0.40212  0.33317  0.89145  1.0000
  H   H229      1.0  0.27303  0.38386  0.90154  1.0000
  H   H230      1.0  0.34658  0.47836  0.55628  1.0000
  H   H231      1.0  0.14044  0.45326  0.85402  1.0000
  Fe  Fe23      1.0  0.44381  0.25789  0.94943  1.0000
  C   C128      1.0  0.24201  0.42063  0.56593  1.0000
  S   S48       1.0  0.46808  0.26933  0.90598  1.0000
  H   H232      1.0  0.43403  0.34012  0.90195  1.0000
  Fe  Fe24      1.0  0.32751  0.39601  0.95593  1.0000
  S   S49       1.0  0.30237  0.36472  0.94818  1.0000
  S   S50       1.0  0.34165  0.42097  0.91452  1.0000
  C   C129      1.0  0.42764  0.48171  0.57203  1.0000
  H   H233      1.0  0.36700  0.34642  0.98214  1.0000
  Fe  Fe25      1.0  0.31847  0.35545  0.99482  1.0000
  H   H234      1.0  0.29667  0.46289  0.60262  1.0000
  H   H235      1.0  0.18784  0.32287  0.99430  1.0000
  H   H236      1.0  0.04137  0.29703  0.97810  1.0000
  Fe  Fe26      1.0  0.12576  0.38795  0.92820  1.0000
  S   S51       1.0  0.11197  0.35324  0.92810  1.0000
  S   S52       1.0  0.14262  0.40949  0.88289  1.0000
  H   H237      1.0  0.25939  0.44890  0.59321  1.0000
  C   C130      1.0  0.30627  0.42550  0.56578  1.0000
  C   C131      1.0  0.45847  0.31939  0.90610  1.0000
  C   C132      1.0  0.43895  0.47959  0.60709  1.0000
  H   H238      1.0  0.27750  0.48299  0.57498  1.0000
  H   H239      1.0  0.29224  0.48581  0.53390  1.0000
  H   H240      1.0  0.41759  0.32222  0.93200  1.0000
  H   H241      1.0  0.19697  0.48644  0.75550  1.0000
  C   C133      1.0  0.18424  0.35060  0.97760  1.0000
  H   H242      1.0  0.38696  0.32198  0.89985  1.0000
  S   S53       1.0  0.14916  0.39018  0.97201  1.0000
  C   C134      1.0  0.11968  0.46476  0.72842  1.0000
  H   H243      1.0  0.11126  0.45184  0.74623  1.0000
  S   S54       1.0  0.36126  0.49135  0.64087  1.0000
  H   H244      1.0  0.44080  0.46458  0.60590  1.0000
  H   H245      1.0  0.27361  0.41094  0.56670  1.0000
  H   H246      1.0  0.38368  0.25902  0.86521  1.0000
  H   H247      1.0  0.18336  0.46583  0.78499  1.0000
  C   C135      1.0  0.39909  0.27099  0.86040  1.0000
  S   S55       1.0  0.10372  0.39134  0.96908  1.0000
  H   H248      1.0  0.43825  0.33238  0.84347  1.0000
  H   H249      1.0  0.42997  0.47932  0.63170  1.0000
  H   H250      1.0  0.01295  0.34072  0.96388  1.0000
  C   C136      1.0  0.28020  0.37020  0.85368  1.0000
  C   C137      1.0  0.43704  0.30226  0.89973  1.0000
  H   H251      1.0  0.22438  0.39556  0.96160  1.0000
  Fe  Fe27      1.0  0.09056  0.35638  0.97152  1.0000
  C   C138      1.0  0.46673  0.26901  0.85777  1.0000
  C   C139      1.0  0.44898  0.25715  0.83771  1.0000
  C   C140      1.0  0.44881  0.25774  0.79937  1.0000
  H   H252      1.0  0.29901  0.39481  0.88855  1.0000
  C   C141      1.0  0.28519  0.42636  0.57419  1.0000
  C   C142      1.0  0.13205  0.48484  0.74998  1.0000
  H   H253      1.0  0.16807  0.48793  0.73001  1.0000
  S   S56       1.0  0.40926  0.24545  0.94570  1.0000
  C   C143      1.0  0.34309  0.41868  0.78944  1.0000
  C   C144      1.0  0.33689  0.40031  0.80885  1.0000
  C   C145      1.0  0.33645  0.40064  0.84718  1.0000
  C   C146      1.0  0.34234  0.41941  0.86643  1.0000
  C   C147      1.0  0.34864  0.43775  0.84701  1.0000
  C   C148      1.0  0.34893  0.43742  0.80875  1.0000
  H   H254      1.0  0.33242  0.38575  0.79413  1.0000
  H   H255      1.0  0.33173  0.38642  0.86180  1.0000
  H   H256      1.0  0.35333  0.45235  0.86167  1.0000
  H   H257      1.0  0.35385  0.45166  0.79423  1.0000
  H   H258      1.0  0.00681  0.26879  0.97834  1.0000
  H   H259      1.0  0.41039  0.26476  0.87054  1.0000
  H   H260      1.0  0.12073  0.48971  0.76430  1.0000
  H   H261      1.0  0.39581  0.28696  0.90881  1.0000
  C   C149      1.0  0.16394  0.47876  0.75507  1.0000
  C   C150      1.0  0.13332  0.41450  0.75964  1.0000
  C   C151      1.0  0.15293  0.42200  0.77597  1.0000
  C   C152      1.0  0.15538  0.42021  0.81364  1.0000
  C   C153      1.0  0.13834  0.41044  0.83540  1.0000
  C   C154      1.0  0.11872  0.40258  0.81905  1.0000
  C   C155      1.0  0.11625  0.40466  0.78136  1.0000
  H   H262      1.0  0.16622  0.42940  0.75967  1.0000
  H   H263      1.0  0.17062  0.42647  0.82603  1.0000
  H   H264      1.0  0.10543  0.39530  0.83552  1.0000
  H   H265      1.0  0.10099  0.39885  0.76903  1.0000
  C   C156      1.0  0.24374  0.44134  0.66193  1.0000
  C   C157      1.0  0.24764  0.46239  0.66219  1.0000
  H   H266      1.0  0.18629  0.38048  0.96101  1.0000
  H   H267      1.0  0.39816  0.49225  0.59797  1.0000
  C   C158      1.0  0.28012  0.44912  0.67184  1.0000
  C   C159      1.0  0.25994  0.43470  0.66731  1.0000
  H   H268      1.0  0.22711  0.42243  0.56944  1.0000
  N   N10       1.0  0.28064  0.44345  0.55651  1.0000
  H   H269      1.0  0.29259  0.44393  0.67568  1.0000
  H   H270      1.0  0.25692  0.41841  0.66731  1.0000
  S   S57       1.0  0.46558  0.27061  0.73260  1.0000
  C   C160      1.0  0.21751  0.34741  0.98807  1.0000
  H   H271      1.0  0.46946  0.31233  0.91477  1.0000
  H   H272      1.0  0.30798  0.42308  0.53636  1.0000
  N   N11       1.0  0.14857  0.35245  0.82766  1.0000
  C   C161      1.0  0.15743  0.36992  0.85509  1.0000
  C   C162      1.0  0.13202  0.35610  0.80561  1.0000
  C   C163      1.0  0.16473  0.35142  0.80228  1.0000
  C   C164      1.0  0.14016  0.33258  0.84777  1.0000
  C   C165      1.0  0.17603  0.37019  0.87815  1.0000
  C   C166      1.0  0.11179  0.35239  0.82523  1.0000
  C   C167      1.0  0.17665  0.37145  0.78230  1.0000
  C   C168      1.0  0.12957  0.31288  0.82403  1.0000
  H   H273      1.0  0.16206  0.38504  0.84179  1.0000
  H   H274      1.0  0.14560  0.36982  0.87477  1.0000
  H   H275      1.0  0.12809  0.34663  0.78000  1.0000
  H   H276      1.0  0.13757  0.37225  0.79624  1.0000
  H   H277      1.0  0.17610  0.34659  0.81678  1.0000
  H   H278      1.0  0.15769  0.33926  0.78083  1.0000
  H   H279      1.0  0.15266  0.32997  0.86313  1.0000
  H   H280      1.0  0.12958  0.33318  0.86955  1.0000
  H   H281      1.0  0.18912  0.37063  0.86148  1.0000
  H   H282      1.0  0.18153  0.38442  0.89552  1.0000
  H   H283      1.0  0.17177  0.35709  0.89686  1.0000
  H   H284      1.0  0.11429  0.36240  0.84984  1.0000
  H   H285      1.0  0.10126  0.35633  0.80672  1.0000
  H   H286      1.0  0.10371  0.33606  0.83236  1.0000
  H   H287      1.0  0.18760  0.36865  0.76360  1.0000
  H   H288      1.0  0.18585  0.38414  0.80129  1.0000
  H   H289      1.0  0.16633  0.37651  0.76534  1.0000
  H   H290      1.0  0.14083  0.30609  0.81588  1.0000
  H   H291      1.0  0.12186  0.31539  0.79922  1.0000
  H   H292      1.0  0.11727  0.30143  0.83976  1.0000
  S   S58       1.0  0.05461  0.34217  0.97037  1.0000
  S   S59       1.0  0.30934  0.48832  0.67084  1.0000
  H   H293      1.0  0.45528  0.31275  0.82154  1.0000
  H   H294      1.0  0.43135  0.29602  0.92681  1.0000
  C   C169      1.0  0.41962  0.32617  0.90278  1.0000
  H   H295      1.0  0.28150  0.35803  0.87126  1.0000
  H   H296      1.0  0.18895  0.49232  0.79760  1.0000
  H   H297      1.0  0.46446  0.32807  0.88120  1.0000
  H   H298      1.0  0.43441  0.28828  0.82688  1.0000
  H   H299      1.0  0.13745  0.49041  0.50564  1.0000
  C   C170      1.0  0.26784  0.47679  0.66618  1.0000
  C   C171      1.0  0.14924  0.46743  0.83915  1.0000
  H   H300      1.0  0.45832  0.33013  0.92845  1.0000
  C   C172      1.0  0.40076  0.29101  0.88038  1.0000
  H   H301      1.0  0.27085  0.49306  0.66525  1.0000
  C   C173      1.0  0.99194  0.30893  0.96723  1.0000
  H   H302      1.0  0.47656  0.25618  0.50225  1.0000
  H   H303      1.0  0.40181  0.33583  0.86190  1.0000
  H   H304      1.0  0.31925  0.43938  0.57595  1.0000
  H   H305      1.0  0.15012  0.48057  0.85717  1.0000
  H   H306      1.0  0.28872  0.41345  0.93597  1.0000
  C   C174      1.0  0.25933  0.44217  0.56560  1.0000
  H   H307      1.0  0.40440  0.34792  0.90592  1.0000
  H   H308      1.0  0.43544  0.47745  0.54925  1.0000
  Fe  Fe28      1.0  0.13471  0.35613  0.97416  1.0000
  C   C175      1.0  0.28293  0.38937  0.87755  1.0000
  C   C176      1.0  0.28339  0.44369  0.51595  1.0000
  C   C177      1.0  0.34910  0.47201  0.53071  1.0000
  H   H309      1.0  0.23632  0.37082  0.85248  1.0000
  N   N12       1.0  0.14831  0.48387  0.77640  1.0000
  C   C178      1.0  0.42743  0.31597  0.84245  1.0000
  H   H310      1.0  0.24386  0.41181  0.58959  1.0000
  H   H311      1.0  0.12958  0.46014  0.71005  1.0000
  C   C179      1.0  0.36025  0.45928  0.53035  1.0000
  H   H312      1.0  0.26508  0.36363  0.83952  1.0000
  C   C180      1.0  0.01171  0.32503  0.96723  1.0000
  H   H313      1.0  0.22610  0.33813  0.99572  1.0000
  C   C181      1.0  0.19480  0.37114  0.96846  1.0000
  H   H314      1.0  0.28421  0.42748  0.60431  1.0000
  C   C182      1.0  0.43833  0.30447  0.81995  1.0000
  H   H315      1.0  0.19606  0.44879  0.52415  1.0000
  H   H316      1.0  0.31163  0.46627  0.56353  1.0000
  C   C183      1.0  0.21649  0.37967  0.96882  1.0000
  C   C184      1.0  0.28410  0.47016  0.67043  1.0000
  H   H317      1.0  0.13407  0.45171  0.79022  1.0000
  H   H318      1.0  0.41214  0.47396  0.50195  1.0000
  H   H319      1.0  0.40015  0.27299  0.83059  1.0000
  H   H320      1.0  0.43944  0.28946  0.88534  1.0000
  H   H321      1.0  0.41208  0.46926  0.57178  1.0000
  N   N13       1.0  0.27893  0.40678  0.85969  1.0000
  C   C185      1.0  0.29081  0.42638  0.88112  1.0000
  C   C186      1.0  0.28704  0.40966  0.82160  1.0000
  H   H322      1.0  0.10799  0.46739  0.71080  1.0000
  C   C187      1.0  0.25646  0.40331  0.86086  1.0000
  H   H323      1.0  0.15716  0.46262  0.74433  1.0000
  C   C188      1.0  0.28389  0.42686  0.79987  1.0000
  H   H324      1.0  0.23518  0.46762  0.65853  1.0000
  C   C189      1.0  0.24145  0.38538  0.83731  1.0000
  H   H325      1.0  0.30765  0.43041  0.87888  1.0000
  H   H326      1.0  0.28784  0.43965  0.87017  1.0000
  H   H327      1.0  0.28033  0.39548  0.80446  1.0000
  H   H328      1.0  0.30380  0.41301  0.82240  1.0000
  H   H329      1.0  0.27054  0.42542  0.92701  1.0000
  C   C190      1.0  0.02987  0.32106  0.97100  1.0000
  H   H330      1.0  0.25089  0.40007  0.88912  1.0000
  H   H331      1.0  0.25379  0.41753  0.85440  1.0000
  C   C191      1.0  0.46636  0.27011  0.78079  1.0000
  H   H332      1.0  0.29260  0.37361  0.83362  1.0000
  H   H333      1.0  0.41375  0.31553  0.82629  1.0000
  H   H334      1.0  0.28927  0.42637  0.77175  1.0000
  H   H335      1.0  0.26750  0.42477  0.79759  1.0000
  H   H336      1.0  0.29326  0.44237  0.81127  1.0000
  H   H337      1.0  0.29714  0.44068  0.93519  1.0000
  C   C192      1.0  0.00801  0.28448  0.97527  1.0000
  H   H338      1.0  0.14895  0.48763  0.56257  1.0000
  Fe  Fe29      1.0  0.18820  0.47736  0.66090  1.0000
  H   H339      1.0  0.24769  0.38311  0.81098  1.0000
  H   H340      1.0  0.22776  0.38888  0.83002  1.0000
  N   N14       1.0  0.42139  0.30865  0.88051  1.0000
  H   H341      1.0  0.45455  0.49173  0.61015  1.0000
  C   C193      1.0  0.29589  0.46349  0.57249  1.0000
  C   C194      1.0  0.22803  0.36795  0.97881  1.0000
  C   C195      1.0  0.02775  0.30056  0.97515  1.0000
  S   S60       1.0  0.25540  0.38007  0.97958  1.0000
  C   C196      1.0  0.13776  0.46719  0.80299  1.0000
  C   C197      1.0  0.18420  0.48092  0.77493  1.0000
  Fe  Fe30      1.0  0.28542  0.37488  0.99123  1.0000
  C   C198      1.0  0.29202  0.48312  0.56349  1.0000
  H   H342      1.0  0.24060  0.41157  0.54055  1.0000
  C   C199      1.0  0.98987  0.28841  0.97114  1.0000
  C   C200      1.0  0.19577  0.33880  0.98726  1.0000
  Fe  Fe31      1.0  0.37862  0.49049  0.69196  1.0000
  H   H343      1.0  0.16470  0.46729  0.83532  1.0000
  S   S61       1.0  0.15680  0.33910  0.97723  1.0000
  H   H344      1.0  0.25417  0.45160  0.54678  1.0000
  H   H345      1.0  0.12120  0.49107  0.59730  1.0000
  H   H346      1.0  0.27912  0.45591  0.50366  1.0000
  H   H347      1.0  0.29985  0.44831  0.50899  1.0000
  C   C201      1.0  0.48413  0.28174  0.80090  1.0000
  S   S62       1.0  0.31030  0.40646  0.99720  1.0000
  H   H348      1.0  0.26857  0.40953  0.50901  1.0000
  C   C202      1.0  0.48429  0.28115  0.83911  1.0000
  C   C203      1.0  0.48475  0.27265  0.50099  1.0000
  C   C204      1.0  0.37738  0.30254  0.98943  1.0000
  C   C205      1.0  0.34426  0.31662  0.99348  1.0000
  H   H349      1.0  0.43500  0.24862  0.78403  1.0000
  H   H350      1.0  0.39584  0.33426  0.97894  1.0000
  C   C206      1.0  0.36417  0.33036  0.98608  1.0000
  C   C207      1.0  0.38055  0.32337  0.98422  1.0000
  S   S63       1.0  0.39888  0.29479  0.98700  1.0000
  S   S64       1.0  0.44561  0.28173  0.99218  1.0000
  H   H351      1.0  0.48665  0.27738  0.55937  1.0000
  Fe  Fe32      1.0  0.41093  0.26838  0.99093  1.0000
  C   C208      1.0  0.35745  0.28878  0.99645  1.0000
  S   S65       1.0  0.32306  0.32465  0.99860  1.0000
  C   C209      1.0  0.34108  0.29578  0.99845  1.0000
  Fe  Fe33      1.0  0.17126  0.62221  0.34884  1.0000
  S   S66       1.0  0.20381  0.63263  0.33018  1.0000
  S   S67       1.0  0.16480  0.60615  0.40312  1.0000
  Fe  Fe34      1.0  0.15567  0.63091  0.27384  1.0000
  S   S68       1.0  0.18715  0.64140  0.25091  1.0000
  S   S69       1.0  0.12872  0.62934  0.23712  1.0000
  Fe  Fe35      1.0  0.18983  0.61449  0.27891  1.0000
  S   S70       1.0  0.20294  0.59365  0.25049  1.0000
  Fe  Fe36      1.0  0.19736  0.65830  0.30414  1.0000
  S   S71       1.0  0.21614  0.69229  0.30567  1.0000
  S   S72       1.0  0.15767  0.60264  0.29860  1.0000
  S   S73       1.0  0.16563  0.64927  0.32635  1.0000
  S   S74       1.0  0.33506  0.52280  0.27481  1.0000
  S   S75       1.0  0.46192  0.59630  0.28624  1.0000
  S   S76       1.0  0.24166  0.49974  0.23266  1.0000
  Fe  Fe37      1.0  0.13333  0.66328  0.02659  1.0000
  S   S77       1.0  0.15119  0.66000  0.07651  1.0000
  S   S78       1.0  0.11782  0.68589  0.02127  1.0000
  H   H352      1.0  0.19601  0.71353  0.06313  1.0000
  C   C210      1.0  0.46060  0.56212  0.45260  1.0000
  H   H353      1.0  0.30162  0.72358  0.47927  1.0000
  H   H354      1.0  0.22423  0.67283  0.39058  1.0000
  C   C211      1.0  0.44942  0.56973  0.29370  1.0000
  C   C212      1.0  0.42792  0.56056  0.29061  1.0000
  C   C213      1.0  0.41756  0.53952  0.29748  1.0000
  C   C214      1.0  0.42869  0.52749  0.30702  1.0000
  C   C215      1.0  0.45018  0.53654  0.30927  1.0000
  C   C216      1.0  0.46048  0.55760  0.30298  1.0000
  H   H355      1.0  0.41920  0.56979  0.28335  1.0000
  H   H356      1.0  0.40096  0.53266  0.29550  1.0000
  H   H357      1.0  0.45885  0.52727  0.31651  1.0000
  H   H358      1.0  0.47695  0.56442  0.30571  1.0000
  C   C217      1.0  0.13419  0.63983  0.19332  1.0000
  C   C218      1.0  0.11860  0.63471  0.16622  1.0000
  C   C219      1.0  0.12322  0.64142  0.13029  1.0000
  C   C220      1.0  0.14352  0.65315  0.12143  1.0000
  C   C221      1.0  0.15885  0.65889  0.14884  1.0000
  C   C222      1.0  0.15417  0.65250  0.18459  1.0000
  H   H359      1.0  0.10301  0.62507  0.17281  1.0000
  H   H360      1.0  0.11126  0.63694  0.10936  1.0000
  H   H361      1.0  0.17455  0.66818  0.14237  1.0000
  H   H362      1.0  0.16609  0.65740  0.20538  1.0000
  C   C223      1.0  0.16765  0.61913  0.44574  1.0000
  H   H363      1.0  0.29966  0.50133  0.16888  1.0000
  C   C224      1.0  0.17021  0.63984  0.44851  1.0000
  C   C225      1.0  0.16884  0.73942  0.13670  1.0000
  H   H364      1.0  0.17074  0.64838  0.42412  1.0000
  C   C226      1.0  0.18882  0.56716  0.25532  1.0000
  C   C227      1.0  0.19915  0.55364  0.25716  1.0000
  C   C228      1.0  0.18844  0.53287  0.26517  1.0000
  C   C229      1.0  0.16733  0.52553  0.27111  1.0000
  C   C230      1.0  0.15676  0.53873  0.26693  1.0000
  C   C231      1.0  0.16748  0.55949  0.25893  1.0000
  H   H365      1.0  0.21561  0.55940  0.25380  1.0000
  H   H366      1.0  0.19669  0.52272  0.26769  1.0000
  H   H367      1.0  0.14038  0.53307  0.27104  1.0000
  H   H368      1.0  0.15927  0.56961  0.25631  1.0000
  C   C232      1.0  0.24080  0.70153  0.28746  1.0000
  C   C233      1.0  0.25153  0.68865  0.28131  1.0000
  H   H369      1.0  0.24400  0.67225  0.28492  1.0000
  H   H370      1.0  0.28051  0.72760  0.34722  1.0000
  H   H371      1.0  0.47610  0.58317  0.36822  1.0000
  H   H372      1.0  0.41499  0.56204  0.41337  1.0000
  H   H373      1.0  0.18867  0.50616  0.39111  1.0000
  H   H374      1.0  0.43296  0.51943  0.20352  1.0000
  C   C234      1.0  0.29361  0.50025  0.28304  1.0000
  H   H375      1.0  0.30789  0.70927  0.38820  1.0000
  C   C235      1.0  0.47846  0.57769  0.39555  1.0000
  H   H376      1.0  0.22585  0.69712  0.40795  1.0000
  C   C236      1.0  0.18669  0.56879  0.35642  1.0000
  N   N15       1.0  0.17734  0.55041  0.38034  1.0000
  H   H377      1.0  0.21129  0.68543  0.48406  1.0000
  H   H378      1.0  0.44114  0.56249  0.36692  1.0000
  C   C237      1.0  0.17837  0.55720  0.41962  1.0000
  C   C238      1.0  0.47097  0.61112  0.43315  1.0000
  H   H379      1.0  0.25009  0.69906  0.35653  1.0000
  H   H380      1.0  0.31119  0.71993  0.34407  1.0000
  H   H381      1.0  0.44501  0.54198  0.38921  1.0000
  H   H382      1.0  0.46065  0.54641  0.44809  1.0000
  H   H383      1.0  0.15336  0.53230  0.34187  1.0000
  C   C239      1.0  0.14209  0.55330  0.36835  1.0000
  H   H384      1.0  0.43791  0.71685  0.29868  1.0000
  H   H385      1.0  0.11399  0.70343  0.13028  1.0000
  H   H386      1.0  0.19973  0.72618  0.10647  1.0000
  H   H387      1.0  0.33226  0.51528  0.18756  1.0000
  C   C240      1.0  0.15493  0.53970  0.36932  1.0000
  C   C241      1.0  0.17909  0.51533  0.39625  1.0000
  C   C242      1.0  0.42360  0.71948  0.29180  1.0000
  C   C243      1.0  0.44986  0.52410  0.20693  1.0000
  H   H388      1.0  0.44599  0.59344  0.39793  1.0000
  N   N16       1.0  0.27028  0.71624  0.40063  1.0000
  H   H389      1.0  0.28088  0.68736  0.26858  1.0000
  H   H390      1.0  0.18052  0.73938  0.06604  1.0000
  C   C244      1.0  0.30298  0.52878  0.24216  1.0000
  H   H391      1.0  0.48726  0.54789  0.25551  1.0000
  H   H392      1.0  0.14072  0.55947  0.39567  1.0000
  H   H393      1.0  0.12184  0.68649  0.15658  1.0000
  H   H394      1.0  0.44662  0.55936  0.46870  1.0000
  H   H395      1.0  0.21396  0.56543  0.33332  1.0000
  C   C245      1.0  0.28245  0.71860  0.26930  1.0000
  H   H396      1.0  0.13675  0.49959  0.19160  1.0000
  H   H397      1.0  0.13274  0.71353  0.16720  1.0000
  C   C246      1.0  0.17160  0.72390  0.07663  1.0000
  H   H398      1.0  0.13716  0.69355  0.09390  1.0000
  H   H399      1.0  0.14816  0.56615  0.34930  1.0000
  H   H400      1.0  0.23746  0.72416  0.36411  1.0000
  C   C247      1.0  0.29950  0.71181  0.36425  1.0000
  H   H401      1.0  0.14313  0.50714  0.46796  1.0000
  H   H402      1.0  0.45348  0.55104  0.17640  1.0000
  C   C248      1.0  0.44206  0.55626  0.39417  1.0000
  H   H403      1.0  0.48308  0.56242  0.14317  1.0000
  C   C249      1.0  0.48725  0.53414  0.14642  1.0000
  H   H404      1.0  0.39552  0.70267  0.25845  1.0000
  H   H405      1.0  0.14689  0.52701  0.38795  1.0000
  H   H406      1.0  0.21925  0.58017  0.37581  1.0000
  C   C250      1.0  0.19987  0.56734  0.43770  1.0000
  N   N17       1.0  0.16916  0.60307  0.13706  1.0000
  C   C251      1.0  0.17262  0.61670  0.10444  1.0000
  C   C252      1.0  0.18430  0.61526  0.16643  1.0000
  C   C253      1.0  0.14744  0.59809  0.14928  1.0000
  C   C254      1.0  0.17231  0.58381  0.12544  1.0000
  C   C255      1.0  0.15625  0.60907  0.07338  1.0000
  C   C256      1.0  0.20717  0.62096  0.15813  1.0000
  C   C257      1.0  0.14246  0.59108  0.18871  1.0000
  C   C258      1.0  0.17231  0.56868  0.15534  1.0000
  H   H407      1.0  0.17351  0.63235  0.11267  1.0000
  H   H408      1.0  0.18760  0.61911  0.09189  1.0000
  H   H409      1.0  0.18184  0.60717  0.19251  1.0000
  H   H410      1.0  0.18205  0.62981  0.17276  1.0000
  H   H411      1.0  0.14335  0.61184  0.14689  1.0000
  H   H412      1.0  0.13625  0.58601  0.13120  1.0000
  H   H413      1.0  0.16014  0.57468  0.10539  1.0000
  H   H414      1.0  0.18673  0.58752  0.11007  1.0000
  H   H415      1.0  0.14114  0.60893  0.08187  1.0000
  H   H416      1.0  0.16111  0.62002  0.05071  1.0000
  H   H417      1.0  0.15451  0.59375  0.06223  1.0000
  H   H418      1.0  0.21655  0.62924  0.18231  1.0000
  H   H419      1.0  0.21081  0.60711  0.15334  1.0000
  H   H420      1.0  0.21213  0.63150  0.13504  1.0000
  H   H421      1.0  0.12576  0.58689  0.19277  1.0000
  H   H422      1.0  0.15040  0.60376  0.20865  1.0000
  H   H423      1.0  0.14593  0.57748  0.19531  1.0000
  H   H424      1.0  0.15668  0.55680  0.15865  1.0000
  H   H425      1.0  0.17835  0.57612  0.18197  1.0000
  H   H426      1.0  0.18276  0.56082  0.14774  1.0000
  H   H427      1.0  0.48717  0.52949  0.22263  1.0000
  H   H428      1.0  0.16270  0.71442  0.05285  1.0000
  H   H429      1.0  0.31080  0.73402  0.43625  1.0000
  Fe  Fe38      1.0  0.34444  0.49874  0.30006  1.0000
  C   C259      1.0  0.46034  0.54750  0.20161  1.0000
  H   H430      1.0  0.45465  0.51494  0.18705  1.0000
  C   C260      1.0  0.23451  0.68689  0.40575  1.0000
  H   H431      1.0  0.44182  0.58744  0.44462  1.0000
  C   C261      1.0  0.29711  0.72899  0.45356  1.0000
  S   S79       1.0  0.30909  0.72954  0.26250  1.0000
  H   H432      1.0  0.15412  0.69628  0.13068  1.0000
  H   H433      1.0  0.48328  0.56326  0.49457  1.0000
  N   N18       1.0  0.15722  0.72518  0.10567  1.0000
  H   H434      1.0  0.28978  0.69689  0.35109  1.0000
  C   C262      1.0  0.26708  0.50689  0.24867  1.0000
  C   C263      1.0  0.21001  0.57656  0.35025  1.0000
  H   H435      1.0  0.18605  0.53041  0.34487  1.0000
  H   H436      1.0  0.26656  0.70634  0.45633  1.0000
  H   H437      1.0  0.34467  0.50351  0.15649  1.0000
  H   H438      1.0  0.13278  0.72287  0.06694  1.0000
  H   H439      1.0  0.28338  0.69797  0.43149  1.0000
  H   H440      1.0  0.41522  0.71759  0.31760  1.0000
  C   C264      1.0  0.28225  0.52364  0.23283  1.0000
  H   H441      1.0  0.38909  0.72790  0.31022  1.0000
  S   S80       1.0  0.36552  0.50552  0.34894  1.0000
  N   N19       1.0  0.45907  0.57187  0.41706  1.0000
  C   C265      1.0  0.25448  0.69664  0.38453  1.0000
  H   H442      1.0  0.18342  0.58216  0.36677  1.0000
  C   C266      1.0  0.14258  0.73370  0.08839  1.0000
  N   N20       1.0  0.42907  0.74081  0.27728  1.0000
  C   C267      1.0  0.41026  0.70147  0.26646  1.0000
  H   H443      1.0  0.17130  0.56883  0.42275  1.0000
  H   H444      1.0  0.21468  0.59099  0.33469  1.0000
  C   C268      1.0  0.45342  0.59040  0.42303  1.0000
  H   H445      1.0  0.48696  0.60792  0.20250  1.0000
  H   H446      1.0  0.16466  0.59210  0.47580  1.0000
  C   C269      1.0  0.27132  0.73120  0.27358  1.0000
  H   H447      1.0  0.26093  0.68451  0.38169  1.0000
  H   H448      1.0  0.43074  0.73161  0.22103  1.0000
  H   H449      1.0  0.41888  0.54065  0.43503  1.0000
  H   H450      1.0  0.20651  0.58410  0.43235  1.0000
  C   C270      1.0  0.25063  0.72273  0.28292  1.0000
  H   H451      1.0  0.46425  0.62252  0.44100  1.0000
  H   H452      1.0  0.40933  0.53822  0.38940  1.0000
  H   H453      1.0  0.47636  0.54702  0.37500  1.0000
  H   H454      1.0  0.16741  0.72570  0.19048  1.0000
  H   H455      1.0  0.16320  0.50536  0.38749  1.0000
  H   H456      1.0  0.31461  0.54171  0.22960  1.0000
  H   H457      1.0  0.23252  0.70917  0.48377  1.0000
  H   H458      1.0  0.24236  0.73272  0.28751  1.0000
  C   C271      1.0  0.27238  0.69722  0.27219  1.0000
  H   H459      1.0  0.12625  0.54377  0.35853  1.0000
  H   H460      1.0  0.17257  0.66509  0.48490  1.0000
  H   H461      1.0  0.16872  0.54449  0.43689  1.0000
  C   C272      1.0  0.42023  0.54914  0.40949  1.0000
  H   H462      1.0  0.47992  0.69451  0.31535  1.0000
  C   C273      1.0  0.27867  0.71128  0.43559  1.0000
  H   H463      1.0  0.17954  0.56540  0.32878  1.0000
  C   C274      1.0  0.18791  0.71533  0.08780  1.0000
  H   H464      1.0  0.20421  0.54203  0.37999  1.0000
  H   H465      1.0  0.18128  0.69990  0.09960  1.0000
  C   C275      1.0  0.14457  0.70375  0.11779  1.0000
  H   H466      1.0  0.44624  0.74016  0.35260  1.0000
  C   C276      1.0  0.47884  0.57421  0.47845  1.0000
  H   H467      1.0  0.13178  0.73543  0.10870  1.0000
  H   H468      1.0  0.23745  0.68198  0.43298  1.0000
  C   C277      1.0  0.25009  0.73763  0.37647  1.0000
  H   H469      1.0  0.24994  0.72690  0.43117  1.0000
  H   H470      1.0  0.41862  0.69992  0.24204  1.0000
  H   H471      1.0  0.40134  0.73527  0.24507  1.0000
  C   C278      1.0  0.48124  0.59211  0.19044  1.0000
  C   C279      1.0  0.12740  0.70202  0.14456  1.0000
  C   C280      1.0  0.17784  0.73005  0.16707  1.0000
  H   H472      1.0  0.18174  0.71684  0.15863  1.0000
  C   C281      1.0  0.16674  0.60814  0.47768  1.0000
  H   H473      1.0  0.19858  0.56533  0.46754  1.0000
  H   H474      1.0  0.27797  0.53259  0.21299  1.0000
  H   H475      1.0  0.40636  0.68687  0.28127  1.0000
  H   H476      1.0  0.48075  0.61022  0.45630  1.0000
  C   C282      1.0  0.30876  0.51692  0.26677  1.0000
  C   C283      1.0  0.18745  0.53517  0.37417  1.0000
  H   H477      1.0  0.45364  0.73670  0.24752  1.0000
  H   H478      1.0  0.48072  0.61749  0.40945  1.0000
  C   C284      1.0  0.28702  0.72510  0.37355  1.0000
  H   H479      1.0  0.21071  0.56022  0.42940  1.0000
  H   H480      1.0  0.45257  0.51994  0.23499  1.0000
  S   S81       1.0  0.15419  0.50041  0.28632  1.0000
  H   H481      1.0  0.16224  0.49837  0.48478  1.0000
  H   H482      1.0  0.19591  0.73095  0.00562  1.0000
  C   C285      1.0  0.17128  0.64928  0.48298  1.0000
  N   N21       1.0  0.48357  0.55664  0.20063  1.0000
  H   H483      1.0  0.48735  0.58057  0.24123  1.0000
  H   H484      1.0  0.48593  0.59363  0.16169  1.0000
  H   H485      1.0  0.17995  0.51862  0.42590  1.0000
  H   H486      1.0  0.15952  0.50319  0.16722  1.0000
  S   S82       1.0  0.41631  0.50133  0.31731  1.0000
  C   C286      1.0  0.44074  0.74199  0.24273  1.0000
  C   C287      1.0  0.33910  0.50352  0.18444  1.0000
  H   H487      1.0  0.45478  0.55460  0.22428  1.0000
  C   C288      1.0  0.48708  0.56067  0.39023  1.0000
  C   C289      1.0  0.26099  0.73191  0.40875  1.0000
  H   H488      1.0  0.35285  0.50854  0.20293  1.0000
  H   H489      1.0  0.46427  0.58620  0.19201  1.0000
  C   C290      1.0  0.14980  0.50344  0.49313  1.0000
  H   H490      1.0  0.47170  0.52703  0.13345  1.0000
  H   H491      1.0  0.29794  0.74065  0.38265  1.0000
  H   H492      1.0  0.29334  0.74248  0.46076  1.0000
  C   C291      1.0  0.27268  0.49532  0.27423  1.0000
  H   H493      1.0  0.19229  0.74207  0.17808  1.0000
  H   H494      1.0  0.43543  0.49583  0.49289  1.0000
  H   H495      1.0  0.47477  0.58439  0.49758  1.0000
  S   S83       1.0  0.48761  0.73676  0.30009  1.0000
  C   C292      1.0  0.39535  0.74354  0.29900  1.0000
  Fe  Fe39      1.0  0.17270  0.63568  0.61138  1.0000
  S   S84       1.0  0.19028  0.61531  0.61948  1.0000
  S   S85       1.0  0.17102  0.65061  0.55755  1.0000
  Fe  Fe40      1.0  0.16513  0.63783  0.69425  1.0000
  S   S86       1.0  0.18254  0.61778  0.70811  1.0000
  S   S87       1.0  0.15202  0.65467  0.73390  1.0000
  Fe  Fe41      1.0  0.20533  0.63624  0.66735  1.0000
  S   S88       1.0  0.23996  0.64860  0.67287  1.0000
  Fe  Fe42      1.0  0.16584  0.59884  0.65906  1.0000
  S   S89       1.0  0.14944  0.56427  0.65847  1.0000
  S   S90       1.0  0.18921  0.65761  0.65704  1.0000
  S   S91       1.0  0.14683  0.61772  0.64750  1.0000
  N   N22       1.0  0.42599  0.50231  0.56686  1.0000
  C   C293      1.0  0.07573  0.66232  0.86579  1.0000
  C   C294      1.0  0.26047  0.73636  0.54910  1.0000
  H   H496      1.0  0.22540  0.67954  0.69903  1.0000
  H   H497      1.0  0.23195  0.68732  0.61559  1.0000
  H   H498      1.0  0.12208  0.50297  0.55471  1.0000
  C   C295      1.0  0.18920  0.55906  0.55948  1.0000
  H   H499      1.0  0.44525  0.66062  0.73176  1.0000
  Fe  Fe43      1.0  0.13220  0.65609  0.94413  1.0000
  S   S92       1.0  0.13889  0.63560  0.90207  1.0000
  S   S93       1.0  0.11731  0.67870  0.93392  1.0000
  C   C296      1.0  0.08768  0.61397  0.84025  1.0000
  C   C297      1.0  0.22888  0.66789  0.56856  1.0000
  H   H500      1.0  0.04564  0.62295  0.87110  1.0000
  C   C298      1.0  0.42582  0.53170  0.69653  1.0000
  C   C299      1.0  0.43656  0.51920  0.68760  1.0000
  C   C300      1.0  0.45637  0.52796  0.67349  1.0000
  C   C301      1.0  0.46553  0.54926  0.66862  1.0000
  C   C302      1.0  0.45497  0.56178  0.67845  1.0000
  C   C303      1.0  0.43521  0.55303  0.69252  1.0000
  C   C304      1.0  0.45974  0.69301  0.72235  1.0000
  H   H501      1.0  0.39767  0.49491  0.53508  1.0000
  H   H502      1.0  0.46199  0.57824  0.67513  1.0000
  H   H503      1.0  0.42712  0.56282  0.70004  1.0000
  C   C305      1.0  0.15013  0.64994  0.78106  1.0000
  C   C306      1.0  0.15106  0.63197  0.79521  1.0000
  C   C307      1.0  0.14800  0.62802  0.83249  1.0000
  C   C308      1.0  0.14424  0.64208  0.85603  1.0000
  C   C309      1.0  0.14374  0.66027  0.84207  1.0000
  C   C310      1.0  0.14652  0.66409  0.80468  1.0000
  H   H504      1.0  0.15377  0.62095  0.77728  1.0000
  H   H505      1.0  0.14843  0.61392  0.84307  1.0000
  H   H506      1.0  0.14107  0.67132  0.85996  1.0000
  H   H507      1.0  0.14582  0.67805  0.79392  1.0000
  C   C311      1.0  0.18776  0.52542  0.67752  1.0000
  C   C312      1.0  0.19732  0.54694  0.67863  1.0000
  C   C313      1.0  0.18566  0.55916  0.67381  1.0000
  C   C314      1.0  0.16436  0.54982  0.66832  1.0000
  C   C315      1.0  0.15476  0.52834  0.66859  1.0000
  C   C316      1.0  0.16643  0.51620  0.67300  1.0000
  H   H508      1.0  0.21382  0.55421  0.68246  1.0000
  H   H509      1.0  0.19316  0.57577  0.67375  1.0000
  H   H510      1.0  0.13827  0.52109  0.66471  1.0000
  C   C317      1.0  0.22464  0.69571  0.50080  1.0000
  C   C318      1.0  0.25124  0.67567  0.67439  1.0000
  C   C319      1.0  0.27089  0.68586  0.66053  1.0000
  H   H511      1.0  0.27960  0.67703  0.65110  1.0000
  H   H512      1.0  0.16965  0.53496  0.50280  1.0000
  C   C320      1.0  0.46319  0.51868  0.54285  1.0000
  S   S94       1.0  0.47055  0.64178  0.70152  1.0000
  H   H513      1.0  0.16720  0.60904  0.53656  1.0000
  H   H514      1.0  0.46612  0.67926  0.57842  1.0000
  H   H515      1.0  0.31113  0.54621  0.74240  1.0000
  C   C321      1.0  0.24019  0.68718  0.68699  1.0000
  H   H516      1.0  0.39928  0.52544  0.62029  1.0000
  H   H517      1.0  0.38950  0.55364  0.66321  1.0000
  C   C322      1.0  0.22407  0.68487  0.58857  1.0000
  H   H518      1.0  0.33865  0.55437  0.77751  1.0000
  H   H519      1.0  0.20045  0.55567  0.54268  1.0000
  H   H520      1.0  0.20749  0.53169  0.59102  1.0000
  H   H521      1.0  0.30457  0.49658  0.57637  1.0000
  H   H522      1.0  0.36522  0.52556  0.74484  1.0000
  N   N23       1.0  0.16710  0.51999  0.55428  1.0000
  S   S95       1.0  0.06110  0.65450  0.97233  1.0000
  H   H523      1.0  0.47065  0.70749  0.50569  1.0000
  C   C323      1.0  0.17313  0.53977  0.57629  1.0000
  H   H524      1.0  0.47486  0.67646  0.51621  1.0000
  H   H525      1.0  0.33497  0.50070  0.77482  1.0000
  C   C324      1.0  0.03424  0.61317  0.98225  1.0000
  H   H526      1.0  0.46322  0.50307  0.53926  1.0000
  H   H527      1.0  0.14541  0.52843  0.52251  1.0000
  C   C325      1.0  0.17018  0.63824  0.51491  1.0000
  H   H528      1.0  0.15957  0.54383  0.58124  1.0000
  H   H529      1.0  0.17854  0.53812  0.60409  1.0000
  H   H530      1.0  0.08001  0.61753  0.78250  1.0000
  C   C326      1.0  0.41461  0.50227  0.53160  1.0000
  H   H531      1.0  0.08668  0.65077  0.82027  1.0000
  H   H532      1.0  0.21511  0.71732  0.52895  1.0000
  H   H533      1.0  0.20064  0.69132  0.53937  1.0000
  H   H534      1.0  0.19084  0.50590  0.60288  1.0000
  H   H535      1.0  0.01310  0.58189  0.99064  1.0000
  H   H536      1.0  0.48739  0.66474  0.82306  1.0000
  C   C327      1.0  0.27890  0.70739  0.65728  1.0000
  C   C328      1.0  0.16816  0.61768  0.51214  1.0000
  N   N24       1.0  0.07689  0.62606  0.85949  1.0000
  H   H537      1.0  0.41752  0.51827  0.52327  1.0000
  H   H538      1.0  0.07748  0.60461  0.94508  1.0000
  H   H539      1.0  0.07159  0.63230  0.91571  1.0000
  H   H540      1.0  0.03122  0.61955  0.81388  1.0000
  C   C329      1.0  0.33462  0.54652  0.70244  1.0000
  C   C330      1.0  0.37322  0.54774  0.67158  1.0000
  C   C331      1.0  0.48531  0.66415  0.59788  1.0000
  H   H541      1.0  0.33386  0.53644  0.67833  1.0000
  H   H542      1.0  0.34331  0.51500  0.71613  1.0000
  C   C332      1.0  0.44665  0.51990  0.56867  1.0000
  H   H543      1.0  0.18156  0.56726  0.54277  1.0000
  H   H544      1.0  0.36796  0.53082  0.67299  1.0000
  C   C333      1.0  0.04662  0.61864  0.81280  1.0000
  H   H545      1.0  0.37500  0.57412  0.70411  1.0000
  C   C334      1.0  0.35236  0.56124  0.76056  1.0000
  H   H546      1.0  0.21147  0.50986  0.57273  1.0000
  C   C335      1.0  0.34989  0.52619  0.73912  1.0000
  H   H547      1.0  0.34514  0.52490  0.79836  1.0000
  H   H548      1.0  0.17659  0.53691  0.78964  1.0000
  H   H549      1.0  0.24526  0.67266  0.56182  1.0000
  C   C336      1.0  0.37181  0.55755  0.70870  1.0000
  H   H550      1.0  0.07845  0.59715  0.84119  1.0000
  H   H551      1.0  0.36835  0.57287  0.81253  1.0000
  C   C337      1.0  0.13063  0.50425  0.58077  1.0000
  C   C338      1.0  0.47311  0.66765  0.70219  1.0000
  C   C339      1.0  0.26715  0.71868  0.66765  1.0000
  H   H552      1.0  0.04789  0.60003  0.85710  1.0000
  H   H553      1.0  0.16803  0.50474  0.81837  1.0000
  H   H554      1.0  0.36430  0.55185  0.65010  1.0000
  N   N25       1.0  0.35187  0.54752  0.72832  1.0000
  H   H555      1.0  0.32160  0.51758  0.77185  1.0000
  C   C340      1.0  0.22439  0.71946  0.59583  1.0000
  H   H556      1.0  0.46179  0.52498  0.51593  1.0000
  H   H557      1.0  0.33744  0.56208  0.69171  1.0000
  H   H558      1.0  0.42957  0.50278  0.69162  1.0000
  H   H559      1.0  0.19048  0.70545  0.58764  1.0000
  H   H560      1.0  0.38506  0.55728  0.72542  1.0000
  C   C341      1.0  0.05406  0.61678  0.85175  1.0000
  S   S96       1.0  0.20267  0.51032  0.68150  1.0000
  C   C342      1.0  0.48255  0.68403  0.58684  1.0000
  S   S97       1.0  0.40085  0.52133  0.71340  1.0000
  H   H561      1.0  0.07600  0.66280  0.89587  1.0000
  H   H562      1.0  0.44817  0.69670  0.73652  1.0000
  H   H563      1.0  0.26076  0.71501  0.59011  1.0000
  H   H564      1.0  0.35171  0.57602  0.75130  1.0000
  C   C343      1.0  0.33709  0.51713  0.77289  1.0000
  C   C344      1.0  0.31273  0.53812  0.71728  1.0000
  H   H565      1.0  0.19517  0.52384  0.52576  1.0000
  H   H566      1.0  0.30212  0.54032  0.69656  1.0000
  N   N26       1.0  0.22936  0.70512  0.57002  1.0000
  C   C345      1.0  0.24798  0.70857  0.68315  1.0000
  H   H567      1.0  0.42348  0.53925  0.60153  1.0000
  C   C346      1.0  0.01442  0.59723  0.98371  1.0000
  H   H568      1.0  0.21866  0.66190  0.54426  1.0000
  C   C347      1.0  0.21662  0.70252  0.53552  1.0000
  H   H569      1.0  0.29371  0.71511  0.64526  1.0000
  H   H570      1.0  0.20740  0.67789  0.59369  1.0000
  S   S98       1.0  0.47791  0.73404  0.71370  1.0000
  C   C348      1.0  0.08035  0.62492  0.89991  1.0000
  H   H571      1.0  0.23890  0.71724  0.69151  1.0000
  C   C349      1.0  0.37141  0.56679  0.78615  1.0000
  H   H572      1.0  0.22546  0.65469  0.58700  1.0000
  H   H573      1.0  0.23462  0.68705  0.50534  1.0000
  H   H574      1.0  0.04537  0.60502  0.79570  1.0000
  H   H575      1.0  0.45332  0.52278  0.59684  1.0000
  C   C350      1.0  0.19944  0.51565  0.58065  1.0000
  H   H576      1.0  0.30717  0.52128  0.72106  1.0000
  H   H577      1.0  0.15911  0.52663  0.75240  1.0000
  H   H578      1.0  0.37549  0.55332  0.79171  1.0000
  H   H579      1.0  0.25119  0.73793  0.52560  1.0000
  C   C351      1.0  0.47187  0.71321  0.53423  1.0000
  H   H580      1.0  0.13172  0.51840  0.59595  1.0000
  C   C352      1.0  0.99858  0.62105  0.96827  1.0000
  H   H581      1.0  0.47147  0.63133  0.78743  1.0000
  H   H582      1.0  0.15887  0.49971  0.67276  1.0000
  H   H583      1.0  0.01966  0.65239  0.96041  1.0000
  H   H584      1.0  0.25733  0.70483  0.54566  1.0000
  C   C353      1.0  0.08632  0.64849  0.84998  1.0000
  H   H585      1.0  0.47496  0.65719  0.62063  1.0000
  C   C354      1.0  0.09328  0.61885  0.80018  1.0000
  C   C355      1.0  0.07444  0.60315  0.91523  1.0000
  H   H586      1.0  0.05968  0.65764  0.85545  1.0000
  H   H587      1.0  0.40093  0.52677  0.57197  1.0000
  S   S99       1.0  0.11086  0.63967  0.98850  1.0000
  H   H588      1.0  0.09971  0.60776  0.78932  1.0000
  C   C356      1.0  0.20222  0.71169  0.60975  1.0000
  C   C357      1.0  0.01837  0.63698  0.96677  1.0000
  H   H589      1.0  0.10559  0.63430  0.79762  1.0000
  H   H590      1.0  0.18185  0.52054  0.75724  1.0000
  H   H591      1.0  0.09681  0.63358  0.90762  1.0000
  C   C358      1.0  0.16930  0.52295  0.77196  1.0000
  H   H592      1.0  0.08419  0.67837  0.85723  1.0000
  H   H593      1.0  0.08392  0.59504  0.90401  1.0000
  C   C359      1.0  0.18540  0.51433  0.54732  1.0000
  C   C360      1.0  0.45811  0.67260  0.71973  1.0000
  H   H594      1.0  0.05633  0.63276  0.79911  1.0000
  H   H595      1.0  0.22703  0.73445  0.58302  1.0000
  C   C361      1.0  0.03645  0.63333  0.97407  1.0000
  S   S100      1.0  0.15895  0.73417  0.97054  1.0000
  C   C362      1.0  0.47619  0.70868  0.70691  1.0000
  H   H596      1.0  0.05788  0.59365  0.91118  1.0000
  H   H597      1.0  0.10250  0.61629  0.85452  1.0000
  H   H598      1.0  0.10277  0.65516  0.85899  1.0000
  H   H599      1.0  0.14503  0.50818  0.80937  1.0000
  H   H600      1.0  0.47084  0.72860  0.53350  1.0000
  C   C363      1.0  0.99634  0.60098  0.97708  1.0000
  Fe  Fe44      1.0  0.09639  0.66293  0.97984  1.0000
  H   H601      1.0  0.15808  0.50220  0.60287  1.0000
  H   H602      1.0  0.99419  0.56468  0.85260  1.0000
  H   H603      1.0  0.99043  0.53277  0.83231  1.0000
  H   H604      1.0  0.45859  0.70314  0.54968  1.0000
  H   H605      1.0  0.13887  0.49660  0.72918  1.0000
  S   S101      1.0  0.15605  0.67735  0.98286  1.0000
  C   C364      1.0  0.40917  0.52543  0.59711  1.0000
  H   H606      1.0  0.46465  0.51827  0.66652  1.0000
  H   H607      1.0  0.48685  0.66653  0.77504  1.0000
  H   H608      1.0  0.19835  0.56967  0.58172  1.0000
  H   H609      1.0  0.44502  0.53463  0.56235  1.0000
  H   H610      1.0  0.04779  0.60991  0.98809  1.0000
  C   C365      1.0  0.15801  0.52275  0.51841  1.0000
  C   C366      1.0  0.15736  0.50456  0.79584  1.0000
  H   H611      1.0  0.38491  0.57907  0.77453  1.0000
  H   H612      1.0  0.19989  0.69992  0.63074  1.0000
  H   H613      1.0  0.19955  0.72469  0.62323  1.0000
  C   C367      1.0  0.41330  0.50535  0.59741  1.0000
  H   H614      1.0  0.18035  0.49823  0.53643  1.0000
  Fe  Fe45      1.0  0.14016  0.69923  0.97621  1.0000
  C   C368      1.0  0.15180  0.50294  0.57535  1.0000
  H   H615      1.0  0.47860  0.52795  0.55498  1.0000
  C   C369      1.0  0.25220  0.71440  0.56409  1.0000
  H   H616      1.0  0.48431  0.69373  0.61187  1.0000
  H   H617      1.0  0.42071  0.50538  0.62406  1.0000
  H   H618      1.0  0.23480  0.72325  0.62027  1.0000
  H   H619      1.0  0.48096  0.65240  0.57554  1.0000
  H   H620      1.0  0.27647  0.74025  0.54008  1.0000
  S   S102      1.0  0.48771  0.61350  0.62372  1.0000
  Fe  Fe46      1.0  0.32446  0.76136  0.28783  1.0000
  S   S103      1.0  0.30819  0.78274  0.29846  1.0000
  Fe  Fe47      1.0  0.27730  0.82774  0.99992  1.0000
  Fe  Fe48      1.0  0.36425  0.79065  0.32395  1.0000
  S   S104      1.0  0.35089  0.81431  0.33706  1.0000
  S   S105      1.0  0.39500  0.79417  0.34847  1.0000
  Fe  Fe49      1.0  0.32321  0.78753  0.35408  1.0000
  S   S106      1.0  0.30444  0.78442  0.40474  1.0000
  Fe  Fe50      1.0  0.33735  0.80723  0.28003  1.0000
  S   S107      1.0  0.33605  0.83261  0.24385  1.0000
  S   S108      1.0  0.33739  0.76437  0.34459  1.0000
  S   S109      1.0  0.35290  0.78552  0.26574  1.0000
  H   H621      1.0  0.27703  0.76349  0.05595  1.0000
  C   C370      1.0  0.36722  0.95658  0.02481  1.0000
  S   S110      1.0  0.29852  0.85322  0.03782  1.0000
  S   S111      1.0  0.33891  0.82741  0.07130  1.0000
  H   H622      1.0  0.37758  0.87271  0.21813  1.0000
  C   C371      1.0  0.27863  0.77044  0.18812  1.0000
  H   H623      1.0  0.43741  0.84497  0.20343  1.0000
  H   H624      1.0  0.38332  0.81369  0.18303  1.0000
  S   S112      1.0  0.24702  0.80241  0.01916  1.0000
  H   H625      1.0  0.46085  0.77518  0.24458  1.0000
  C   C372      1.0  0.33594  0.83042  0.19589  1.0000
  C   C373      1.0  0.33063  0.84421  0.17475  1.0000
  C   C374      1.0  0.33119  0.84337  0.13651  1.0000
  C   C375      1.0  0.33766  0.82908  0.11919  1.0000
  C   C376      1.0  0.34318  0.81546  0.14041  1.0000
  C   C377      1.0  0.34187  0.81579  0.17850  1.0000
  H   H626      1.0  0.32609  0.85563  0.18800  1.0000
  H   H627      1.0  0.32700  0.85400  0.12046  1.0000
  H   H628      1.0  0.34819  0.80436  0.12720  1.0000
  H   H629      1.0  0.34580  0.80496  0.19441  1.0000
  C   C378      1.0  0.41710  0.80133  0.32236  1.0000
  C   C379      1.0  0.41596  0.80078  0.28439  1.0000
  C   C380      1.0  0.43407  0.80687  0.26443  1.0000
  C   C381      1.0  0.45324  0.81309  0.28245  1.0000
  C   C382      1.0  0.45431  0.81316  0.32038  1.0000
  C   C383      1.0  0.43627  0.80731  0.34027  1.0000
  H   H630      1.0  0.40115  0.79532  0.27053  1.0000
  H   H631      1.0  0.43327  0.80642  0.23505  1.0000
  H   H632      1.0  0.46908  0.81799  0.33441  1.0000
  H   H633      1.0  0.43716  0.80757  0.36967  1.0000
  H   H634      1.0  0.35340  0.92363  0.03348  1.0000
  C   C384      1.0  0.31775  0.79097  0.44710  1.0000
  C   C385      1.0  0.33904  0.80150  0.44902  1.0000
  H   H635      1.0  0.22984  0.75785  0.02439  1.0000
  H   H636      1.0  0.34763  0.80552  0.42430  1.0000
  H   H637      1.0  0.23280  0.78404  0.11092  1.0000
  H   H638      1.0  0.27864  0.74751  0.26999  1.0000
  H   H639      1.0  0.24056  0.78263  0.15771  1.0000
  H   H640      1.0  0.29861  0.78798  0.05578  1.0000
  C   C386      1.0  0.25508  0.76924  0.11645  1.0000
  H   H641      1.0  0.27596  0.83310  0.10345  1.0000
  C   C387      1.0  0.34923  0.80728  0.48300  1.0000
  H   H642      1.0  0.44836  0.87276  0.20914  1.0000
  C   C388      1.0  0.23729  0.77468  0.13085  1.0000
  H   H643      1.0  0.29009  0.76358  0.18199  1.0000
  C   C389      1.0  0.41030  0.74537  0.26803  1.0000
  H   H644      1.0  0.29716  0.81223  0.09914  1.0000
  H   H645      1.0  0.45940  0.75905  0.29955  1.0000
  H   H646      1.0  0.37797  0.95945  0.04753  1.0000
  H   H647      1.0  0.27305  0.80089  0.07677  1.0000
  H   H648      1.0  0.27293  0.74662  0.41881  1.0000
  H   H649      1.0  0.39005  0.88176  0.17649  1.0000
  C   C390      1.0  0.29130  0.77512  0.11041  1.0000
  H   H650      1.0  0.45735  0.85694  0.23608  1.0000
  H   H651      1.0  0.40794  0.81602  0.20113  1.0000
  C   C391      1.0  0.28053  0.80422  0.10423  1.0000
  H   H652      1.0  0.16362  0.76660  0.08929  1.0000
  H   H653      1.0  0.40474  0.83609  0.17464  1.0000
  C   C392      1.0  0.45006  0.76345  0.22571  1.0000
  H   H654      1.0  0.25800  0.81471  0.13109  1.0000
  H   H655      1.0  0.29735  0.80033  0.16864  1.0000
  H   H656      1.0  0.37854  0.85476  0.18295  1.0000
  C   C393      1.0  0.47068  0.79970  0.45739  1.0000
  N   N27       1.0  0.27663  0.78452  0.12422  1.0000
  H   H657      1.0  0.15852  0.74576  0.15073  1.0000
  N   N28       1.0  0.40680  0.85546  0.24212  1.0000
  C   C394      1.0  0.39737  0.86165  0.27466  1.0000
  C   C395      1.0  0.40804  0.87046  0.21254  1.0000
  C   C396      1.0  0.42807  0.85700  0.25351  1.0000
  C   C397      1.0  0.39316  0.83369  0.23127  1.0000
  C   C398      1.0  0.39890  0.85140  0.31088  1.0000
  C   C399      1.0  0.38724  0.86969  0.19710  1.0000
  C   C400      1.0  0.44331  0.85790  0.22332  1.0000
  C   C401      1.0  0.39790  0.82463  0.19567  1.0000
  H   H658      1.0  0.40456  0.87859  0.28004  1.0000
  H   H659      1.0  0.38072  0.85818  0.26964  1.0000
  H   H660      1.0  0.41657  0.86830  0.18884  1.0000
  H   H661      1.0  0.41701  0.88651  0.22247  1.0000
  H   H662      1.0  0.43591  0.87117  0.27066  1.0000
  H   H663      1.0  0.42717  0.84391  0.27095  1.0000
  H   H664      1.0  0.39338  0.82300  0.25286  1.0000
  H   H665      1.0  0.37673  0.83175  0.22975  1.0000
  H   H666      1.0  0.38955  0.85539  0.33144  1.0000
  H   H667      1.0  0.39295  0.83440  0.30838  1.0000
  H   H668      1.0  0.41488  0.85711  0.32205  1.0000
  H   H669      1.0  0.30272  0.76488  0.06239  1.0000
  H   H670      1.0  0.42416  0.74730  0.35366  1.0000
  C   C402      1.0  0.29215  0.77281  0.06872  1.0000
  C   C403      1.0  0.28126  0.78911  0.16434  1.0000
  H   H671      1.0  0.27177  0.79687  0.17659  1.0000
  C   C404      1.0  0.44309  0.75668  0.30414  1.0000
  H   H672      1.0  0.25208  0.76694  0.08661  1.0000
  C   C405      1.0  0.27417  0.82066  0.12288  1.0000
  H   H673      1.0  0.24315  0.74849  0.38636  1.0000
  H   H674      1.0  0.44937  0.76630  0.36106  1.0000
  H   H675      1.0  0.18166  0.75295  0.12617  1.0000
  H   H676      1.0  0.38205  0.74675  0.28822  1.0000
  C   C406      1.0  0.15243  0.75494  0.07082  1.0000
  C   C407      1.0  0.35328  0.93611  0.01679  1.0000
  H   H677      1.0  0.28760  0.75947  0.12130  1.0000
  H   H678      1.0  0.28440  0.82797  0.14670  1.0000
  H   H679      1.0  0.15979  0.75388  0.04485  1.0000
  Fe  Fe51      1.0  0.32185  0.83897  0.02927  1.0000
  C   C408      1.0  0.22423  0.78289  0.99966  1.0000
  H   H680      1.0  0.30728  0.78438  0.12008  1.0000
  S   S113      1.0  0.47566  0.82018  0.25724  1.0000
  C   C409      1.0  0.48397  0.81403  0.48813  1.0000
  H   H681      1.0  0.41477  0.76132  0.25829  1.0000
  H   H682      1.0  0.46455  0.78332  0.46453  1.0000
  H   H683      1.0  0.28141  0.77571  0.21708  1.0000
  H   H684      1.0  0.40252  0.75521  0.32088  1.0000
  H   H685      1.0  0.44214  0.77190  0.29996  1.0000
  H   H686      1.0  0.45797  0.80438  0.44853  1.0000
  H   H687      1.0  0.14016  0.76065  0.06376  1.0000
  C   C410      1.0  0.30677  0.78588  0.47945  1.0000
  H   H688      1.0  0.29027  0.77787  0.47813  1.0000
  H   H689      1.0  0.25298  0.75359  0.12576  1.0000
  H   H690      1.0  0.45909  0.76248  0.20178  1.0000
  H   H691      1.0  0.48041  0.80109  0.43329  1.0000
  C   C411      1.0  0.44023  0.75211  0.34506  1.0000
  C   C412      1.0  0.36746  0.97328  0.00374  1.0000
  C   C413      1.0  0.21896  0.76212  0.00889  1.0000
  H   H692      1.0  0.26287  0.75852  0.18587  1.0000
  H   H693      1.0  0.26108  0.74579  0.35533  1.0000
  H   H694      1.0  0.36567  0.81582  0.48422  1.0000
  H   H695      1.0  0.22383  0.76024  0.13509  1.0000
  H   H696      1.0  0.43812  0.76891  0.21577  1.0000
  Fe  Fe52      1.0  0.33944  0.79676  0.61076  1.0000
  S   S114      1.0  0.33267  0.76343  0.62020  1.0000
  S   S115      1.0  0.35164  0.81122  0.55712  1.0000
  Fe  Fe53      1.0  0.33450  0.80599  0.69219  1.0000
  S   S116      1.0  0.32786  0.77338  0.70710  1.0000
  S   S117      1.0  0.33618  0.83167  0.73217  1.0000
  Fe  Fe54      1.0  0.35343  0.77526  0.66952  1.0000
  H   H697      1.0  0.41822  0.80550  0.73004  1.0000
  Fe  Fe55      1.0  0.30793  0.76513  0.65644  1.0000
  C   C414      1.0  0.25474  0.79587  0.90721  1.0000
  S   S118      1.0  0.36150  0.80857  0.65828  1.0000
  S   S119      1.0  0.31314  0.79783  0.64323  1.0000
  S   S120      1.0  0.47031  0.81581  0.64629  1.0000
  Fe  Fe56      1.0  0.31259  0.83347  0.94614  1.0000
  S   S121      1.0  0.28846  0.84711  0.95012  1.0000
  S   S122      1.0  0.31717  0.81375  0.89980  1.0000
  C   C415      1.0  0.43740  0.99359  0.95046  1.0000
  H   H698      1.0  0.35975  0.76933  0.75684  1.0000
  H   H699      1.0  0.44820  0.77151  0.52047  1.0000
  H   H700      1.0  0.36945  0.81332  0.81519  1.0000
  H   H701      1.0  0.33637  0.87147  0.65147  1.0000
  H   H702      1.0  0.39532  0.77392  0.75725  1.0000
  H   H703      1.0  0.37974  0.83558  0.72562  1.0000
  C   C416      1.0  0.43558  0.80364  0.77730  1.0000
  C   C417      1.0  0.33930  0.94859  0.96663  1.0000
  C   C418      1.0  0.46309  0.77338  0.53328  1.0000
  H   H704      1.0  0.26075  0.82172  0.87044  1.0000
  C   C419      1.0  0.39154  0.83338  0.74354  1.0000
  H   H705      1.0  0.44795  0.82437  0.57357  1.0000
  C   C420      1.0  0.33899  0.93187  0.98771  1.0000
  H   H706      1.0  0.33465  0.90601  0.59853  1.0000
  H   H707      1.0  0.36841  0.87102  0.50741  1.0000
  C   C421      1.0  0.34627  0.85640  0.60637  1.0000
  C   C422      1.0  0.44107  0.81017  0.55647  1.0000
  C   C423      1.0  0.33105  0.82671  0.77886  1.0000
  C   C424      1.0  0.32846  0.80764  0.79333  1.0000
  C   C425      1.0  0.32472  0.80421  0.83055  1.0000
  C   C426      1.0  0.32312  0.81963  0.85368  1.0000
  C   C427      1.0  0.32570  0.83873  0.83933  1.0000
  C   C428      1.0  0.32979  0.84228  0.80209  1.0000
  H   H708      1.0  0.32939  0.79553  0.77593  1.0000
  H   H709      1.0  0.32278  0.78940  0.84140  1.0000
  H   H710      1.0  0.32451  0.85073  0.85684  1.0000
  H   H711      1.0  0.33181  0.85710  0.79118  1.0000
  H   H712      1.0  0.36124  0.86947  0.60504  1.0000
  H   H713      1.0  0.23471  0.80312  0.86550  1.0000
  C   C429      1.0  0.20964  0.78803  0.98023  1.0000
  H   H714      1.0  0.30852  0.78727  0.53829  1.0000
  H   H715      1.0  0.36420  0.75404  0.79131  1.0000
  C   C430      1.0  0.44470  0.80086  0.65686  1.0000
  C   C431      1.0  0.43954  0.78198  0.67396  1.0000
  H   H716      1.0  0.37338  0.86247  0.55046  1.0000
  C   C432      1.0  0.40338  0.77737  0.67256  1.0000
  C   C433      1.0  0.40858  0.79611  0.65500  1.0000
  C   C434      1.0  0.42918  0.80796  0.64775  1.0000
  H   H717      1.0  0.39670  0.97365  0.95852  1.0000
  H   H718      1.0  0.33908  0.84171  0.52928  1.0000
  H   H719      1.0  0.39682  0.80156  0.64705  1.0000
  H   H720      1.0  0.43305  0.82260  0.63477  1.0000
  C   C435      1.0  0.39099  0.78157  0.78070  1.0000
  H   H721      1.0  0.35351  0.98126  0.95710  1.0000
  H   H722      1.0  0.38430  0.80233  0.72337  1.0000
  H   H723      1.0  0.31814  0.82323  0.57771  1.0000
  H   H724      1.0  0.41510  0.75590  0.69571  1.0000
  H   H725      1.0  0.26124  0.74787  0.57074  1.0000
  C   C436      1.0  0.34103  0.85737  0.53931  1.0000
  H   H726      1.0  0.44021  0.79662  0.57238  1.0000
  C   C437      1.0  0.38237  0.81375  0.83299  1.0000
  H   H727      1.0  0.36911  0.80463  0.75914  1.0000
  H   H728      1.0  0.26143  0.75024  0.89558  1.0000
  C   C438      1.0  0.41895  0.77036  0.68206  1.0000
  H   H729      1.0  0.36064  0.77706  0.80412  1.0000
  H   H730      1.0  0.41398  0.94702  0.91215  1.0000
  H   H731      1.0  0.40626  0.83990  0.72921  1.0000
  Fe  Fe57      1.0  0.31204  0.87151  0.98747  1.0000
  H   H732      1.0  0.35017  0.84251  0.60372  1.0000
  H   H733      1.0  0.39219  0.84225  0.76904  1.0000
  H   H734      1.0  0.38563  0.82766  0.85069  1.0000
  C   C439      1.0  0.26380  0.76547  0.90849  1.0000
  C   C440      1.0  0.33894  0.85713  0.64547  1.0000
  H   H735      1.0  0.45142  0.77640  0.68130  1.0000
  H   H736      1.0  0.37735  0.80005  0.85041  1.0000
  H   H737      1.0  0.48160  0.83207  0.57435  1.0000
  H   H738      1.0  0.41149  0.83243  0.81027  1.0000
  N   N29       1.0  0.24904  0.77420  0.89226  1.0000
  H   H739      1.0  0.20880  0.76510  0.85763  1.0000
  C   C441      1.0  0.25060  0.77314  0.85147  1.0000
  C   C442      1.0  0.18469  0.75217  0.98052  1.0000
  H   H740      1.0  0.36873  0.88611  0.54716  1.0000
  H   H741      1.0  0.41582  0.95109  0.96129  1.0000
  H   H742      1.0  0.42743  0.82811  0.75789  1.0000
  N   N30       1.0  0.47449  0.81292  0.52498  1.0000
  C   C443      1.0  0.31706  0.79117  0.51352  1.0000
  H   H743      1.0  0.32849  0.94569  0.94398  1.0000
  H   H744      1.0  0.24897  0.79566  0.93523  1.0000
  H   H745      1.0  0.23989  0.77873  0.83708  1.0000
  C   C444      1.0  0.40273  0.97073  0.93221  1.0000
  S   S123      1.0  0.37787  0.76310  0.68502  1.0000
  H   H746      1.0  0.27999  0.77556  0.90307  1.0000
  C   C445      1.0  0.36755  0.77019  0.78360  1.0000
  H   H747      1.0  0.21017  0.78050  0.89880  1.0000
  C   C446      1.0  0.34071  0.89582  0.58330  1.0000
  H   H748      1.0  0.39165  0.93769  0.93934  1.0000
  H   H749      1.0  0.31381  0.87397  0.55777  1.0000
  C   C447      1.0  0.29698  0.83203  0.54634  1.0000
  H   H750      1.0  0.28271  0.77723  0.84225  1.0000
  C   C448      1.0  0.40666  0.95068  0.93626  1.0000
  H   H751      1.0  0.41107  0.81024  0.83138  1.0000
  C   C449      1.0  0.33834  0.80207  0.51533  1.0000
  H   H752      1.0  0.28942  0.84327  0.54619  1.0000
  C   C450      1.0  0.24761  0.81057  0.88496  1.0000
  H   H753      1.0  0.22455  0.74416  0.89502  1.0000
  H   H754      1.0  0.39820  0.77765  0.80511  1.0000
  N   N31       1.0  0.42081  0.98958  0.92148  1.0000
  C   C451      1.0  0.27205  0.78510  0.83640  1.0000
  H   H755      1.0  0.27089  0.78574  0.80633  1.0000
  C   C452      1.0  0.32410  0.87388  0.58095  1.0000
  H   H756      1.0  0.45904  0.76320  0.55708  1.0000
  H   H757      1.0  0.43053  0.78663  0.77595  1.0000
  H   H758      1.0  0.43775  0.97630  0.88774  1.0000
  H   H759      1.0  0.24255  0.82003  0.90406  1.0000
  H   H760      1.0  0.30463  0.83551  0.60322  1.0000
  H   H761      1.0  0.34499  0.90202  0.55574  1.0000
  H   H762      1.0  0.45018  0.80979  0.76232  1.0000
  H   H763      1.0  0.44203  0.98021  0.95290  1.0000
  H   H764      1.0  0.48342  0.84588  0.53375  1.0000
  H   H765      1.0  0.26343  0.77654  0.96519  1.0000
  C   C453      1.0  0.41985  0.81107  0.75884  1.0000
  H   H766      1.0  0.47192  0.76756  0.51442  1.0000
  H   H767      1.0  0.27178  0.80366  0.91006  1.0000
  N   N32       1.0  0.33150  0.85652  0.57616  1.0000
  S   S124      1.0  0.48342  0.76810  0.62885  1.0000
  H   H768      1.0  0.44300  0.79807  0.50377  1.0000
  C   C454      1.0  0.22769  0.76048  0.90298  1.0000
  H   H769      1.0  0.33297  0.86308  0.51845  1.0000
  N   N33       1.0  0.39905  0.80461  0.77607  1.0000
  S   S125      1.0  0.27439  0.74471  0.65665  1.0000
  C   C455      1.0  0.38523  0.81020  0.75024  1.0000
  H   H770      1.0  0.19511  0.75375  0.89688  1.0000
  C   C456      1.0  0.40192  0.81574  0.81239  1.0000
  H   H771      1.0  0.32500  0.84359  0.65161  1.0000
  H   H772      1.0  0.35113  0.85693  0.66486  1.0000
  C   C457      1.0  0.47611  0.79552  0.54659  1.0000
  H   H773      1.0  0.43920  0.80933  0.80583  1.0000
  C   C458      1.0  0.19007  0.77288  0.97107  1.0000
  C   C459      1.0  0.36422  0.87016  0.53649  1.0000
  H   H774      1.0  0.30348  0.83129  0.51934  1.0000
  H   H775      1.0  0.31405  0.87165  0.60487  1.0000
  H   H776      1.0  0.35467  0.89694  0.59883  1.0000
  C   C460      1.0  0.31311  0.83647  0.57765  1.0000
  H   H777      1.0  0.22616  0.76076  0.93292  1.0000
  H   H778      1.0  0.41450  0.97591  0.86741  1.0000
  C   C461      1.0  0.42798  0.98550  0.88477  1.0000
  H   H779      1.0  0.28472  0.81665  0.55031  1.0000
  H   H780      1.0  0.38979  0.96697  0.91207  1.0000
  H   H781      1.0  0.24586  0.75682  0.84182  1.0000
  H   H782      1.0  0.21305  0.80394  0.97378  1.0000
  C   C462      1.0  0.48648  0.83280  0.54564  1.0000
  H   H783      1.0  0.27880  0.80116  0.84712  1.0000
  H   H784      1.0  0.42500  0.80839  0.54996  1.0000
  C   C463      1.0  0.45264  0.81153  0.52080  1.0000
  H   H785      1.0  0.17882  0.77735  0.95713  1.0000
  C   C464      1.0  0.35347  0.96896  0.97421  1.0000
  S   S126      1.0  0.33634  0.85803  0.98095  1.0000
  H   H786      1.0  0.47279  0.79693  0.57577  1.0000
  C   C465      1.0  0.20974  0.76559  0.88770  1.0000
  S   S127      1.0  0.32016  0.90643  0.97676  1.0000
  S   S128      1.0  0.30048  0.81343  0.99381  1.0000
  H   H787      1.0  0.45222  0.82507  0.50597  1.0000
  H   H788      1.0  0.29593  0.98055  0.97531  1.0000
  C   C466      1.0  0.26291  0.76259  0.95004  1.0000
  H   H789      1.0  0.24909  0.74920  0.95757  1.0000
  H   H790      1.0  0.27649  0.75940  0.95931  1.0000
  C   C467      1.0  0.19956  0.74681  0.99867  1.0000
  H   H791      1.0  0.66037  0.08662  0.23525  1.0000
  Fe  Fe58      1.0  0.70099  0.16275  0.27487  1.0000
  S   S129      1.0  0.72691  0.15467  0.29588  1.0000
  S   S130      1.0  0.70352  0.19317  0.25278  1.0000
  Fe  Fe59      1.0  0.66879  0.12052  0.29018  1.0000
  S   S131      1.0  0.69224  0.10921  0.31295  1.0000
  S   S132      1.0  0.63573  0.09868  0.28713  1.0000
  Fe  Fe60      1.0  0.70565  0.14017  0.34174  1.0000
  S   S133      1.0  0.71547  0.14996  0.40065  1.0000
  Fe  Fe61      1.0  0.71080  0.12468  0.26466  1.0000
  S   S134      1.0  0.72570  0.10787  0.22850  1.0000
  S   S135      1.0  0.68068  0.15020  0.32214  1.0000
  S   S136      1.0  0.68634  0.13402  0.24064  1.0000
  Fe  Fe62      1.0  0.50697  0.13675  0.34662  1.0000
  H   H792      1.0  0.49459  0.22904  0.12318  1.0000
  Fe  Fe63      1.0  0.54203  0.12745  0.31540  1.0000
  S   S137      1.0  0.52515  0.09328  0.31921  1.0000
  S   S138      1.0  0.57418  0.14460  0.29627  1.0000
  H   H793      1.0  0.80427  0.14675  0.04872  1.0000
  Fe  Fe64      1.0  0.51644  0.10104  0.37483  1.0000
  H   H794      1.0  0.50058  0.10677  0.20294  1.0000
  S   S139      1.0  0.51543  0.13284  0.28932  1.0000
  S   S140      1.0  0.53517  0.13474  0.37209  1.0000
  H   H795      1.0  0.53980  0.17401  0.42841  1.0000
  H   H796      1.0  0.55930  0.07501  0.47903  1.0000
  H   H797      1.0  0.79273  0.15286  0.10623  1.0000
  H   H798      1.0  0.78431  0.17275  0.48304  1.0000
  C   C468      1.0  0.63254  0.10597  0.47111  1.0000
  S   S141      1.0  0.70365  0.09599  0.05891  1.0000
  N   N34       1.0  0.49927  0.16502  0.48891  1.0000
  H   H799      1.0  0.63630  0.04037  0.19267  1.0000
  H   H800      1.0  0.49177  0.18245  0.44696  1.0000
  H   H801      1.0  0.82938  0.12413  0.08461  1.0000
  C   C469      1.0  0.50953  0.08392  0.46767  1.0000
  C   C470      1.0  0.50261  0.20119  0.36143  1.0000
  C   C471      1.0  0.76758  0.11689  0.06265  1.0000
  C   C472      1.0  0.72042  0.10515  0.18100  1.0000
  C   C473      1.0  0.71334  0.11853  0.16268  1.0000
  C   C474      1.0  0.70878  0.11575  0.12513  1.0000
  C   C475      1.0  0.71139  0.09968  0.10534  1.0000
  C   C476      1.0  0.71872  0.08641  0.12348  1.0000
  C   C477      1.0  0.72326  0.08919  0.16116  1.0000
  H   H802      1.0  0.71136  0.13106  0.17744  1.0000
  H   H803      1.0  0.70300  0.12602  0.11138  1.0000
  H   H804      1.0  0.72045  0.07376  0.10865  1.0000
  H   H805      1.0  0.72869  0.07872  0.17514  1.0000
  C   C478      1.0  0.61838  0.11119  0.28672  1.0000
  C   C479      1.0  0.59753  0.09992  0.29268  1.0000
  C   C480      1.0  0.58375  0.10998  0.29535  1.0000
  C   C481      1.0  0.59075  0.13131  0.29165  1.0000
  C   C482      1.0  0.61152  0.14247  0.28479  1.0000
  C   C483      1.0  0.62534  0.13246  0.28240  1.0000
  H   H806      1.0  0.59207  0.08344  0.29592  1.0000
  H   H807      1.0  0.56774  0.10125  0.30032  1.0000
  H   H808      1.0  0.61699  0.15897  0.28167  1.0000
  H   H809      1.0  0.64136  0.14125  0.27742  1.0000
  C   C484      1.0  0.69395  0.11351  0.43450  1.0000
  C   C485      1.0  0.70229  0.13497  0.43717  1.0000
  H   H810      1.0  0.82508  0.20151  0.17750  1.0000
  H   H811      1.0  0.69460  0.10582  0.40909  1.0000
  H   H812      1.0  0.73362  0.22763  0.39247  1.0000
  H   H813      1.0  0.79402  0.09480  0.07522  1.0000
  C   C486      1.0  0.53358  0.20826  0.31083  1.0000
  C   C487      1.0  0.52371  0.18852  0.32477  1.0000
  C   C488      1.0  0.50796  0.18491  0.34963  1.0000
  H   H814      1.0  0.67105  0.04713  0.16063  1.0000
  C   C489      1.0  0.51274  0.22098  0.34805  1.0000
  H   H815      1.0  0.54560  0.21095  0.29132  1.0000
  H   H816      1.0  0.52827  0.17614  0.31613  1.0000
  H   H817      1.0  0.76297  0.09203  0.13497  1.0000
  C   C490      1.0  0.49546  0.23093  0.23789  1.0000
  H   H818      1.0  0.66404  0.04895  0.22436  1.0000
  C   C491      1.0  0.72726  0.21375  0.24878  1.0000
  C   C492      1.0  0.72717  0.23226  0.23563  1.0000
  C   C493      1.0  0.66563  0.08046  0.21102  1.0000
  H   H819      1.0  0.71153  0.20919  0.34659  1.0000
  C   C494      1.0  0.76447  0.22963  0.25630  1.0000
  C   C495      1.0  0.74598  0.21231  0.25864  1.0000
  H   H820      1.0  0.76592  0.24281  0.42240  1.0000
  C   C496      1.0  0.80473  0.13224  0.05949  1.0000
  H   H821      1.0  0.77887  0.22865  0.26445  1.0000
  H   H822      1.0  0.74617  0.19796  0.26835  1.0000
  H   H823      1.0  0.78590  0.23381  0.41736  1.0000
  N   N35       1.0  0.62076  0.11453  0.40888  1.0000
  C   C497      1.0  0.82003  0.20901  0.20003  1.0000
  H   H824      1.0  0.50793  0.19848  0.19136  1.0000
  C   C498      1.0  0.63546  0.12183  0.44104  1.0000
  C   C499      1.0  0.62631  0.13147  0.38173  1.0000
  C   C500      1.0  0.64396  0.09692  0.38203  1.0000
  H   H825      1.0  0.49061  0.19857  0.38096  1.0000
  C   C501      1.0  0.62507  0.15196  0.39486  1.0000
  H   H826      1.0  0.65250  0.11016  0.36507  1.0000
  C   C502      1.0  0.51279  0.10203  0.48819  1.0000
  H   H827      1.0  0.59806  0.12058  0.44169  1.0000
  H   H828      1.0  0.63455  0.09191  0.46110  1.0000
  H   H829      1.0  0.65171  0.12723  0.43231  1.0000
  H   H830      1.0  0.63411  0.13557  0.45443  1.0000
  H   H831      1.0  0.64230  0.13551  0.37259  1.0000
  H   H832      1.0  0.61699  0.12634  0.35623  1.0000
  H   H833      1.0  0.75912  0.20128  0.17164  1.0000
  H   H834      1.0  0.65308  0.09733  0.40701  1.0000
  H   H835      1.0  0.64271  0.08286  0.36624  1.0000
  H   H836      1.0  0.52060  0.11680  0.47611  1.0000
  C   C503      1.0  0.50963  0.22731  0.12282  1.0000
  Fe  Fe65      1.0  0.49780  0.09913  0.29681  1.0000
  H   H837      1.0  0.64019  0.16263  0.40609  1.0000
  H   H838      1.0  0.61332  0.15007  0.41551  1.0000
  H   H839      1.0  0.62054  0.15929  0.37148  1.0000
  H   H840      1.0  0.51480  0.22956  0.09428  1.0000
  C   C504      1.0  0.78158  0.19551  0.38489  1.0000
  H   H841      1.0  0.79075  0.20332  0.40943  1.0000
  C   C505      1.0  0.80071  0.21303  0.18917  1.0000
  H   H842      1.0  0.73903  0.14365  0.49362  1.0000
  H   H843      1.0  0.75153  0.18625  0.36042  1.0000
  H   H844      1.0  0.61491  0.08181  0.40724  1.0000
  S   S142      1.0  0.91030  0.24043  0.01449  1.0000
  H   H845      1.0  0.83024  0.14950  0.09797  1.0000
  H   H846      1.0  0.67961  0.08526  0.46315  1.0000
  Fe  Fe66      1.0  0.71446  0.08081  0.01270  1.0000
  C   C506      1.0  0.65444  0.10946  0.15811  1.0000
  C   C507      1.0  0.80913  0.22276  0.12484  1.0000
  H   H847      1.0  0.54996  0.23431  0.19465  1.0000
  C   C508      1.0  0.62214  0.09571  0.39064  1.0000
  C   C509      1.0  0.50025  0.06491  0.48412  1.0000
  H   H848      1.0  0.58455  0.12060  0.37816  1.0000
  C   C510      1.0  0.66147  0.05008  0.13918  1.0000
  H   H849      1.0  0.74703  0.21249  0.46226  1.0000
  H   H850      1.0  0.76685  0.20188  0.12456  1.0000
  C   C511      1.0  0.78927  0.10269  0.09787  1.0000
  H   H851      1.0  0.63212  0.05804  0.25073  1.0000
  N   N36       1.0  0.52293  0.24167  0.18820  1.0000
  C   C512      1.0  0.77001  0.08605  0.11336  1.0000
  H   H852      1.0  0.49060  0.15875  0.28139  1.0000
  H   H853      1.0  0.54034  0.19155  0.46437  1.0000
  H   H854      1.0  0.52961  0.19685  0.21299  1.0000
  C   C513      1.0  0.59908  0.10898  0.42168  1.0000
  C   C514      1.0  0.82663  0.13785  0.07554  1.0000
  H   H855      1.0  0.50221  0.22086  0.25128  1.0000
  H   H856      1.0  0.52452  0.15465  0.48285  1.0000
  H   H857      1.0  0.49803  0.05089  0.46888  1.0000
  C   C515      1.0  0.70153  0.14474  0.47046  1.0000
  H   H858      1.0  0.74733  0.12949  0.03617  1.0000
  N   N37       1.0  0.78725  0.12213  0.08477  1.0000
  C   C516      1.0  0.78918  0.13699  0.11602  1.0000
  C   C517      1.0  0.76358  0.21759  0.45641  1.0000
  S   S143      1.0  0.82465  0.24257  0.38702  1.0000
  C   C518      1.0  0.58256  0.10597  0.39162  1.0000
  H   H859      1.0  0.78934  0.19776  0.17986  1.0000
  H   H860      1.0  0.80083  0.20595  0.11956  1.0000
  H   H861      1.0  0.83781  0.14481  0.05384  1.0000
  H   H862      1.0  0.76419  0.21761  0.32865  1.0000
  H   H863      1.0  0.67884  0.09399  0.20201  1.0000
  C   C519      1.0  0.68558  0.10190  0.46522  1.0000
  C   C520      1.0  0.53370  0.22850  0.20318  1.0000
  H   H864      1.0  0.76852  0.20441  0.45797  1.0000
  H   H865      1.0  0.60887  0.03934  0.23186  1.0000
  H   H866      1.0  0.78294  0.24163  0.13378  1.0000
  S   S144      1.0  0.52049  0.08406  0.42460  1.0000
  H   H867      1.0  0.66980  0.05126  0.11336  1.0000
  C   C521      1.0  0.76300  0.13534  0.04883  1.0000
  C   C522      1.0  0.76798  0.22776  0.35333  1.0000
  C   C523      1.0  0.62116  0.05459  0.22722  1.0000
  N   N38       1.0  0.75804  0.21604  0.38643  1.0000
  H   H868      1.0  0.77005  0.14628  0.15267  1.0000
  H   H869      1.0  0.58228  0.09423  0.37090  1.0000
  C   C524      1.0  0.75960  0.19525  0.38512  1.0000
  H   H870      1.0  0.83410  0.21550  0.10220  1.0000
  H   H871      1.0  0.72840  0.20352  0.41161  1.0000
  H   H872      1.0  0.50888  0.23352  0.35812  1.0000
  C   C525      1.0  0.52794  0.22449  0.32215  1.0000
  H   H873      1.0  0.75388  0.10738  0.07771  1.0000
  C   C526      1.0  0.51500  0.16089  0.46612  1.0000
  C   C527      1.0  0.73564  0.21282  0.38778  1.0000
  H   H874      1.0  0.73086  0.20119  0.32995  1.0000
  H   H875      1.0  0.80338  0.12200  0.03543  1.0000
  H   H876      1.0  0.52190  0.18623  0.42704  1.0000
  H   H877      1.0  0.78076  0.17940  0.38451  1.0000
  H   H878      1.0  0.71276  0.23340  0.22774  1.0000
  C   C528      1.0  0.76897  0.22845  0.41973  1.0000
  H   H879      1.0  0.56715  0.10046  0.40396  1.0000
  C   C529      1.0  0.77093  0.13179  0.14183  1.0000
  C   C530      1.0  0.78256  0.23100  0.15608  1.0000
  H   H880      1.0  0.74694  0.24236  0.33478  1.0000
  N   N39       1.0  0.64916  0.07316  0.18146  1.0000
  S   S145      1.0  0.49461  0.16017  0.36608  1.0000
  C   C531      1.0  0.52487  0.20550  0.19203  1.0000
  H   H881      1.0  0.71279  0.18536  0.36099  1.0000
  H   H882      1.0  0.67293  0.08304  0.14139  1.0000
  C   C532      1.0  0.52994  0.17941  0.44566  1.0000
  H   H883      1.0  0.70776  0.16136  0.47260  1.0000
  H   H884      1.0  0.77439  0.07390  0.12554  1.0000
  H   H885      1.0  0.68871  0.06645  0.20919  1.0000
  H   H886      1.0  0.61949  0.04924  0.16910  1.0000
  C   C533      1.0  0.65796  0.07023  0.14558  1.0000
  C   C534      1.0  0.64050  0.08970  0.17693  1.0000
  H   H887      1.0  0.64671  0.03668  0.13567  1.0000
  H   H888      1.0  0.50764  0.21147  0.13000  1.0000
  C   C535      1.0  0.50044  0.23359  0.19720  1.0000
  H   H889      1.0  0.63664  0.09476  0.20373  1.0000
  H   H890      1.0  0.62576  0.08369  0.16082  1.0000
  H   H891      1.0  0.64769  0.07082  0.12258  1.0000
  H   H892      1.0  0.75061  0.21480  0.13898  1.0000
  H   H893      1.0  0.59396  0.09437  0.43682  1.0000
  H   H894      1.0  0.53085  0.20292  0.16543  1.0000
  H   H895      1.0  0.81625  0.19810  0.22279  1.0000
  H   H896      1.0  0.61368  0.06593  0.22681  1.0000
  H   H897      1.0  0.80272  0.13867  0.13372  1.0000
  H   H898      1.0  0.75840  0.07830  0.09157  1.0000
  H   H899      1.0  0.94878  0.23768  0.08311  1.0000
  H   H900      1.0  0.64779  0.12141  0.16118  1.0000
  H   H901      1.0  0.77211  0.22866  0.47852  1.0000
  H   H902      1.0  0.61740  0.10171  0.48397  1.0000
  H   H903      1.0  0.77275  0.14518  0.47430  1.0000
  C   C536      1.0  0.72215  0.20153  0.35442  1.0000
  H   H904      1.0  0.49172  0.21848  0.18383  1.0000
  H   H905      1.0  0.79460  0.21714  0.21459  1.0000
  H   H906      1.0  0.76303  0.14614  0.07111  1.0000
  C   C537      1.0  0.63160  0.05368  0.19107  1.0000
  H   H907      1.0  0.77280  0.12284  0.16526  1.0000
  C   C538      1.0  0.67488  0.06513  0.22468  1.0000
  H   H908      1.0  0.67015  0.11593  0.17010  1.0000
  H   H909      1.0  0.67977  0.06889  0.25367  1.0000
  H   H910      1.0  0.65537  0.10675  0.12850  1.0000
  H   H911      1.0  0.75583  0.12353  0.12844  1.0000
  H   H912      1.0  0.76762  0.10713  0.03847  1.0000
  H   H913      1.0  0.78981  0.20278  0.36020  1.0000
  H   H914      1.0  0.53520  0.22976  0.23334  1.0000
  H   H915      1.0  0.80162  0.10635  0.11923  1.0000
  H   H916      1.0  0.77368  0.14361  0.02741  1.0000
  H   H917      1.0  0.75153  0.18581  0.40820  1.0000
  H   H918      1.0  0.61330  0.09210  0.36436  1.0000
  H   H919      1.0  0.74733  0.17053  0.49555  1.0000
  H   H920      1.0  0.77876  0.23796  0.18087  1.0000
  H   H921      1.0  0.49702  0.10933  0.13602  1.0000
  C   C539      1.0  0.76393  0.21090  0.14724  1.0000
  H   H922      1.0  0.88729  0.23740  0.16420  1.0000
  C   C540      1.0  0.68538  0.11161  0.49881  1.0000
  H   H923      1.0  0.76508  0.16209  0.44791  1.0000
  C   C541      1.0  0.83228  0.22786  0.11928  1.0000
  H   H924      1.0  0.78500  0.23327  0.35585  1.0000
  H   H925      1.0  0.83282  0.22302  0.21023  1.0000
  H   H926      1.0  0.50730  0.14870  0.44502  1.0000
  C   C542      1.0  0.76986  0.15963  0.47580  1.0000
  S   S146      1.0  0.73764  0.06590  0.01422  1.0000
  H   H927      1.0  0.64439  0.11295  0.49293  1.0000
  H   H928      1.0  0.81472  0.23054  0.46088  1.0000
  H   H929      1.0  0.50131  0.16510  0.23782  1.0000
  H   H930      1.0  0.80427  0.23050  0.10237  1.0000
  H   H931      1.0  0.84155  0.22917  0.14432  1.0000
  N   N40       1.0  0.80312  0.22907  0.16096  1.0000
  H   H932      1.0  0.83922  0.24212  0.10354  1.0000
  H   H933      1.0  0.51540  0.19791  0.49727  1.0000
  C   C543      1.0  0.52556  0.24387  0.14755  1.0000
  H   H934      1.0  0.49317  0.24392  0.18623  1.0000
  H   H935      1.0  0.73496  0.21940  0.64718  1.0000
  S   S147      1.0  0.80059  0.20970  0.64290  1.0000
  Fe  Fe67      1.0  0.68776  0.14409  0.64870  1.0000
  S   S148      1.0  0.70404  0.12385  0.63021  1.0000
  S   S149      1.0  0.70421  0.17857  0.65537  1.0000
  Fe  Fe68      1.0  0.64714  0.10812  0.65568  1.0000
  S   S150      1.0  0.66075  0.08532  0.63827  1.0000
  S   S151      1.0  0.61354  0.09426  0.66910  1.0000
  Fe  Fe69      1.0  0.68735  0.10346  0.67550  1.0000
  S   S152      1.0  0.70556  0.09085  0.71316  1.0000
  Fe  Fe70      1.0  0.67592  0.10804  0.59496  1.0000
  S   S153      1.0  0.67558  0.09622  0.53690  1.0000
  S   S154      1.0  0.67267  0.12470  0.69593  1.0000
  S   S155      1.0  0.66059  0.12969  0.61018  1.0000
  C   C544      1.0  0.55975  0.07144  0.50828  1.0000
  S   S156      1.0  0.51948  0.13593  0.61811  1.0000
  H   H936      1.0  0.78181  0.20834  0.56450  1.0000
  C   C545      1.0  0.54139  0.06718  0.58227  1.0000
  S   S157      1.0  0.50792  0.14965  0.69782  1.0000
  H   H937      1.0  0.72573  0.14058  0.55549  1.0000
  H   H938      1.0  0.51201  0.11958  0.76696  1.0000
  Fe  Fe71      1.0  0.52973  0.13615  0.67613  1.0000
  S   S158      1.0  0.56333  0.15126  0.69123  1.0000
  S   S159      1.0  0.50908  0.10355  0.68674  1.0000
  H   H939      1.0  0.52607  0.18541  0.65204  1.0000
  H   H940      1.0  0.85289  0.18928  0.76232  1.0000
  H   H941      1.0  0.60248  0.11674  0.59453  1.0000
  H   H942      1.0  0.73045  0.19167  0.73880  1.0000
  C   C546      1.0  0.50056  0.21209  0.61122  1.0000
  Fe  Fe72      1.0  0.88682  0.22237  0.97104  1.0000
  H   H943      1.0  0.53790  0.10132  0.59157  1.0000
  Fe  Fe73      1.0  0.71019  0.07710  0.92926  1.0000
  S   S160      1.0  0.73330  0.06224  0.92552  1.0000
  S   S161      1.0  0.69119  0.08361  0.88381  1.0000
  C   C547      1.0  0.52528  0.24221  0.52059  1.0000
  H   H944      1.0  0.86452  0.20666  0.89724  1.0000
  H   H945      1.0  0.79035  0.17385  0.54747  1.0000
  H   H946      1.0  0.56825  0.10338  0.52141  1.0000
  C   C548      1.0  0.84555  0.16547  0.96717  1.0000
  C   C549      1.0  0.73876  0.15514  0.56357  1.0000
  C   C550      1.0  0.76526  0.13311  0.58704  1.0000
  S   S162      1.0  0.69268  0.05679  0.97412  1.0000
  H   H947      1.0  0.65389  0.02062  0.79717  1.0000
  H   H948      1.0  0.51290  0.23469  0.77087  1.0000
  H   H949      1.0  0.55609  0.12679  0.54838  1.0000
  C   C551      1.0  0.75241  0.15787  0.50195  1.0000
  H   H950      1.0  0.55728  0.17855  0.78899  1.0000
  H   H951      1.0  0.56250  0.13760  0.59332  1.0000
  H   H952      1.0  0.83126  0.18190  0.82953  1.0000
  C   C552      1.0  0.70128  0.08860  0.76050  1.0000
  C   C553      1.0  0.71533  0.08435  0.78336  1.0000
  C   C554      1.0  0.71267  0.08302  0.82127  1.0000
  C   C555      1.0  0.69577  0.08571  0.83657  1.0000
  C   C556      1.0  0.68173  0.08991  0.81369  1.0000
  C   C557      1.0  0.68446  0.09138  0.77587  1.0000
  H   H953      1.0  0.72840  0.08220  0.77168  1.0000
  H   H954      1.0  0.72362  0.07981  0.83857  1.0000
  H   H955      1.0  0.66856  0.09192  0.82525  1.0000
  H   H956      1.0  0.67346  0.09452  0.75859  1.0000
  H   H957      1.0  0.51696  0.09108  0.79573  1.0000
  H   H958      1.0  0.67619  0.04216  0.78514  1.0000
  H   H959      1.0  0.82520  0.18186  0.97065  1.0000
  H   H960      1.0  0.51043  0.11475  0.54141  1.0000
  H   H961      1.0  0.69240  0.14070  0.52667  1.0000
  C   C558      1.0  0.60037  0.11062  0.67750  1.0000
  C   C559      1.0  0.60982  0.13190  0.67358  1.0000
  C   C560      1.0  0.59843  0.14437  0.67849  1.0000
  C   C561      1.0  0.57754  0.13555  0.68669  1.0000
  C   C562      1.0  0.56822  0.11432  0.69118  1.0000
  C   C563      1.0  0.57965  0.10192  0.68680  1.0000
  H   H962      1.0  0.62583  0.13870  0.66649  1.0000
  H   H963      1.0  0.60574  0.16082  0.67527  1.0000
  H   H964      1.0  0.55221  0.10744  0.69791  1.0000
  H   H965      1.0  0.57238  0.08548  0.69024  1.0000
  H   H966      1.0  0.68060  0.00096  0.91125  1.0000
  N   N41       1.0  0.67043  0.01375  0.86488  1.0000
  Fe  Fe74      1.0  0.71661  0.04282  0.97260  1.0000
  C   C564      1.0  0.50472  0.19518  0.62287  1.0000
  C   C565      1.0  0.52246  0.19836  0.64378  1.0000
  C   C566      1.0  0.53557  0.21837  0.65434  1.0000
  H   H967      1.0  0.64310  0.02497  0.93575  1.0000
  H   H968      1.0  0.53556  0.18282  0.77133  1.0000
  H   H969      1.0  0.69707  0.02595  0.90105  1.0000
  C   C567      1.0  0.77592  0.17582  0.55498  1.0000
  Fe  Fe75      1.0  0.49702  0.10440  0.62961  1.0000
  H   H970      1.0  0.52012  0.17075  0.55962  1.0000
  H   H971      1.0  0.53249  0.14252  0.88873  1.0000
  C   C568      1.0  0.77413  0.20214  0.64917  1.0000
  C   C569      1.0  0.76264  0.18135  0.65506  1.0000
  C   C570      1.0  0.74129  0.17424  0.65758  1.0000
  C   C571      1.0  0.73118  0.18779  0.65432  1.0000
  C   C572      1.0  0.74270  0.20878  0.64953  1.0000
  C   C573      1.0  0.76421  0.21598  0.64682  1.0000
  H   H972      1.0  0.77028  0.17063  0.65722  1.0000
  H   H973      1.0  0.73268  0.15821  0.66194  1.0000
  H   H974      1.0  0.54909  0.22075  0.67114  1.0000
  H   H975      1.0  0.77116  0.12052  0.58697  1.0000
  H   H976      1.0  0.79095  0.20322  0.52237  1.0000
  C   C574      1.0  0.48899  0.14659  0.51214  1.0000
  H   H977      1.0  0.54239  0.16347  0.75041  1.0000
  H   H978      1.0  0.51125  0.15072  0.79258  1.0000
  H   H979      1.0  0.74180  0.15391  0.59290  1.0000
  H   H980      1.0  0.77652  0.17689  0.58518  1.0000
  H   H981      1.0  0.64081  0.99546  0.84008  1.0000
  S   S163      1.0  0.49192  0.07868  0.58810  1.0000
  H   H982      1.0  0.77671  0.14637  0.60226  1.0000
  N   N42       1.0  0.86327  0.20191  0.83858  1.0000
  C   C575      1.0  0.84628  0.18085  0.83645  1.0000
  C   C576      1.0  0.86169  0.21357  0.80538  1.0000
  C   C577      1.0  0.86153  0.21375  0.87206  1.0000
  C   C578      1.0  0.88362  0.19938  0.84069  1.0000
  C   C579      1.0  0.84344  0.16794  0.87094  1.0000
  H   H983      1.0  0.53311  0.07589  0.63628  1.0000
  C   C580      1.0  0.84094  0.21648  0.87632  1.0000
  C   C581      1.0  0.90292  0.21914  0.83527  1.0000
  H   H984      1.0  0.53251  0.19786  0.55554  1.0000
  H   H985      1.0  0.84890  0.17140  0.81399  1.0000
  H   H986      1.0  0.87266  0.22982  0.80740  1.0000
  H   H987      1.0  0.79294  0.14991  0.96827  1.0000
  C   C582      1.0  0.50711  0.10089  0.52515  1.0000
  H   H988      1.0  0.87354  0.22951  0.87268  1.0000
  H   H989      1.0  0.88570  0.19318  0.86748  1.0000
  H   H990      1.0  0.88395  0.18780  0.81993  1.0000
  H   H991      1.0  0.85763  0.16571  0.87937  1.0000
  H   H992      1.0  0.83809  0.17478  0.89396  1.0000
  H   H993      1.0  0.83142  0.15240  0.86546  1.0000
  H   H994      1.0  0.56014  0.10627  0.61945  1.0000
  H   H995      1.0  0.67092  0.04045  0.89554  1.0000
  C   C583      1.0  0.65977  0.02488  0.88692  1.0000
  H   H996      1.0  0.84140  0.22458  0.90272  1.0000
  H   H997      1.0  0.67718  0.16318  0.76632  1.0000
  H   H998      1.0  0.83852  0.22634  0.85500  1.0000
  H   H999      1.0  0.64764  0.02744  0.87040  1.0000
  C   C584      1.0  0.49454  0.23183  0.71992  1.0000
  H   H1000     1.0  0.90877  0.21942  0.80738  1.0000
  N   N43       1.0  0.53189  0.13655  0.81169  1.0000
  C   C585      1.0  0.51666  0.12444  0.83940  1.0000
  C   C586      1.0  0.52792  0.12313  0.77772  1.0000
  C   C587      1.0  0.52732  0.15537  0.80350  1.0000
  C   C588      1.0  0.55338  0.14233  0.82737  1.0000
  C   C589      1.0  0.51690  0.13553  0.87609  1.0000
  C   C590      1.0  0.51365  0.23211  0.62190  1.0000
  H   H1001     1.0  0.82942  0.11309  0.96113  1.0000
  C   C591      1.0  0.57101  0.14697  0.80002  1.0000
  H   H1002     1.0  0.50074  0.11937  0.82805  1.0000
  H   H1003     1.0  0.51902  0.11014  0.84639  1.0000
  H   H1004     1.0  0.86100  0.14438  0.96310  1.0000
  H   H1005     1.0  0.53909  0.18130  0.52522  1.0000
  H   H1006     1.0  0.70985  0.99711  0.88906  1.0000
  H   H1007     1.0  0.52829  0.16472  0.82859  1.0000
  H   H1008     1.0  0.55733  0.15596  0.84616  1.0000
  H   H1009     1.0  0.55414  0.12961  0.84427  1.0000
  Fe  Fe76      1.0  0.82119  0.24323  0.64056  1.0000
  H   H1010     1.0  0.75061  0.12726  0.60183  1.0000
  H   H1011     1.0  0.74926  0.12439  0.53529  1.0000
  H   H1012     1.0  0.66146  0.04508  0.82193  1.0000
  Fe  Fe77      1.0  0.75199  0.08660  0.96728  1.0000
  C   C592      1.0  0.49418  0.06379  0.52033  1.0000
  C   C593      1.0  0.80880  0.12906  0.96446  1.0000
  H   H1013     1.0  0.54465  0.10392  0.79711  1.0000
  H   H1014     1.0  0.72667  0.17566  0.53397  1.0000
  H   H1015     1.0  0.58491  0.15955  0.81149  1.0000
  H   H1016     1.0  0.56805  0.15204  0.77303  1.0000
  H   H1017     1.0  0.57552  0.13354  0.79650  1.0000
  C   C594      1.0  0.73080  0.17272  0.56183  1.0000
  H   H1018     1.0  0.77605  0.13924  0.53297  1.0000
  C   C595      1.0  0.54162  0.17067  0.77697  1.0000
  C   C596      1.0  0.57847  0.08607  0.58444  1.0000
  H   H1019     1.0  0.52649  0.06588  0.56954  1.0000
  C   C597      1.0  0.50907  0.18373  0.51343  1.0000
  H   H1020     1.0  0.49876  0.23318  0.69084  1.0000
  S   S164      1.0  0.78696  0.10510  0.96496  1.0000
  H   H1021     1.0  0.57920  0.08564  0.61455  1.0000
  H   H1022     1.0  0.76400  0.19777  0.52784  1.0000
  H   H1023     1.0  0.75330  0.18628  0.73405  1.0000
  C   C598      1.0  0.55695  0.08870  0.53122  1.0000
  Fe  Fe78      1.0  0.49561  0.14629  0.64069  1.0000
  C   C599      1.0  0.53036  0.10236  0.78209  1.0000
  C   C600      1.0  0.56428  0.12606  0.57405  1.0000
  C   C601      1.0  0.59837  0.10388  0.57413  1.0000
  N   N44       1.0  0.75744  0.15739  0.54186  1.0000
  H   H1024     1.0  0.84629  0.21447  0.80308  1.0000
  H   H1025     1.0  0.70140  0.18409  0.76976  1.0000
  C   C602      1.0  0.55468  0.10459  0.59067  1.0000
  H   H1026     1.0  0.75363  0.20714  0.76231  1.0000
  H   H1027     1.0  0.59784  0.10967  0.54660  1.0000
  H   H1028     1.0  0.82761  0.20165  0.87683  1.0000
  H   H1029     1.0  0.52257  0.22584  0.73128  1.0000
  C   C603      1.0  0.68098  0.02759  0.83425  1.0000
  S   S165      1.0  0.70920  0.00755  0.97096  1.0000
  H   H1030     1.0  0.61113  0.09823  0.57376  1.0000
  N   N45       1.0  0.72319  0.15557  0.78170  1.0000
  C   C604      1.0  0.72761  0.14203  0.80934  1.0000
  C   C605      1.0  0.72399  0.14658  0.74454  1.0000
  C   C606      1.0  0.70161  0.15445  0.78748  1.0000
  C   C607      1.0  0.73871  0.17734  0.78718  1.0000
  C   C608      1.0  0.72466  0.14657  0.84956  1.0000
  C   C609      1.0  0.74374  0.14277  0.73663  1.0000
  C   C610      1.0  0.69391  0.16748  0.76243  1.0000
  C   C611      1.0  0.74403  0.19111  0.75350  1.0000
  H   H1031     1.0  0.71785  0.12562  0.80364  1.0000
  H   H1032     1.0  0.74374  0.14303  0.80761  1.0000
  H   H1033     1.0  0.72179  0.15621  0.72266  1.0000
  H   H1034     1.0  0.71095  0.13151  0.74041  1.0000
  H   H1035     1.0  0.69046  0.13817  0.78474  1.0000
  H   H1036     1.0  0.69992  0.15971  0.81545  1.0000
  H   H1037     1.0  0.73356  0.18562  0.80851  1.0000
  H   H1038     1.0  0.75368  0.17746  0.79777  1.0000
  H   H1039     1.0  0.73174  0.13820  0.86711  1.0000
  H   H1040     1.0  0.73202  0.16318  0.85689  1.0000
  H   H1041     1.0  0.70812  0.14061  0.85624  1.0000
  H   H1042     1.0  0.74364  0.12879  0.75042  1.0000
  H   H1043     1.0  0.74431  0.13970  0.70705  1.0000
  H   H1044     1.0  0.75785  0.15607  0.74481  1.0000
  H   H1045     1.0  0.69578  0.16491  0.73322  1.0000
  H   H1046     1.0  0.71252  0.01388  0.85205  1.0000
  H   H1047     1.0  0.71648  0.16827  0.57760  1.0000
  H   H1048     1.0  0.58087  0.13090  0.56934  1.0000
  H   H1049     1.0  0.53783  0.13105  0.75519  1.0000
  H   H1050     1.0  0.52474  0.04901  0.62708  1.0000
  N   N46       1.0  0.55836  0.08703  0.57189  1.0000
  C   C612      1.0  0.49782  0.08167  0.54132  1.0000
  H   H1051     1.0  0.54176  0.08899  0.52328  1.0000
  C   C613      1.0  0.68699  0.01099  0.88813  1.0000
  C   C614      1.0  0.66704  0.03401  0.80849  1.0000
  H   H1052     1.0  0.54428  0.05358  0.57194  1.0000
  C   C615      1.0  0.53771  0.06395  0.62340  1.0000
  H   H1053     1.0  0.55120  0.06311  0.63815  1.0000
  H   H1054     1.0  0.53093  0.09565  0.75479  1.0000
  H   H1055     1.0  0.57976  0.07133  0.57596  1.0000
  C   C616      1.0  0.80778  0.14871  0.96721  1.0000
  C   C617      1.0  0.86503  0.20460  0.76861  1.0000
  C   C618      1.0  0.84626  0.14585  0.96433  1.0000
  C   C619      1.0  0.76192  0.13820  0.54731  1.0000
  C   C620      1.0  0.82610  0.16686  0.96864  1.0000
  S   S166      1.0  0.86967  0.18708  0.96782  1.0000
  H   H1056     1.0  0.91551  0.21898  0.85373  1.0000
  H   H1057     1.0  0.74177  0.18701  0.57520  1.0000
  S   S167      1.0  0.90780  0.23889  0.92597  1.0000
  C   C621      1.0  0.77790  0.19717  0.54111  1.0000
  H   H1058     1.0  0.90085  0.23369  0.84125  1.0000
  H   H1059     1.0  0.69325  0.04199  0.84526  1.0000
  C   C622      1.0  0.51487  0.23604  0.74119  1.0000
  H   H1060     1.0  0.77303  0.23209  0.64232  1.0000
  C   C623      1.0  0.82823  0.12798  0.96307  1.0000
  H   H1061     1.0  0.88036  0.20369  0.76708  1.0000
  C   C624      1.0  0.52618  0.18312  0.53962  1.0000
  H   H1062     1.0  0.86417  0.21498  0.74669  1.0000
  S   S168      1.0  0.72969  0.10233  0.96790  1.0000
  H   H1063     1.0  0.50714  0.12406  0.89531  1.0000
  H   H1064     1.0  0.68888  0.02012  0.81643  1.0000
  H   H1065     1.0  0.49573  0.19801  0.75541  1.0000
  H   H1066     1.0  0.53480  0.23820  0.50056  1.0000
  H   H1067     1.0  0.50997  0.14724  0.87345  1.0000
  H   H1068     1.0  0.50066  0.14224  0.52663  1.0000
  H   H1069     1.0  0.49735  0.18614  0.53091  1.0000
  C   C625      1.0  0.53091  0.23524  0.64419  1.0000
  C   C626      1.0  0.70104  0.00204  0.86844  1.0000
  C   C627      1.0  0.69298  0.13311  0.50115  1.0000
  H   H1070     1.0  0.63552  0.00016  0.91469  1.0000
  H   H1071     1.0  0.52728  0.23641  0.54760  1.0000
  H   H1072     1.0  0.50895  0.23375  0.51204  1.0000
  H   H1073     1.0  0.65965  0.01142  0.94089  1.0000
  H   H1074     1.0  0.49406  0.19354  0.70797  1.0000
  C   C628      1.0  0.64903  0.01439  0.92139  1.0000
  H   H1075     1.0  0.57474  0.07022  0.51408  1.0000
  H   H1076     1.0  0.54700  0.05638  0.51184  1.0000
  S   S169      1.0  0.87016  0.24380  0.97265  1.0000
  Fe  Fe79      1.0  0.84906  0.44921  0.32527  1.0000
  S   S170      1.0  0.82913  0.42050  0.29439  1.0000
  H   H1077     1.0  0.52488  0.25872  0.13866  1.0000
  Fe  Fe80      1.0  0.85872  0.47343  0.25397  1.0000
  S   S171      1.0  0.83927  0.44619  0.21960  1.0000
  Fe  Fe81      1.0  0.81662  0.44048  0.26403  1.0000
  S   S172      1.0  0.78261  0.42714  0.25187  1.0000
  Fe  Fe82      1.0  0.85357  0.42874  0.25327  1.0000
  S   S173      1.0  0.86258  0.40499  0.22478  1.0000
  S   S174      1.0  0.87483  0.45615  0.28534  1.0000
  Fe  Fe83      1.0  0.85616  0.26804  0.26272  1.0000
  S   S175      1.0  0.84547  0.29335  0.24822  1.0000
  S   S176      1.0  0.87334  0.25470  0.22463  1.0000
  Fe  Fe84      1.0  0.83458  0.26105  0.33608  1.0000
  S   S177      1.0  0.82183  0.28527  0.32621  1.0000
  N   N47       1.0  0.73546  0.46783  0.19250  1.0000
  H   H1078     1.0  0.75571  0.43047  0.44738  1.0000
  Fe  Fe85      1.0  0.85323  0.30396  0.30650  1.0000
  S   S178      1.0  0.86636  0.33637  0.32978  1.0000
  H   H1079     1.0  0.92711  0.30156  0.11024  1.0000
  S   S179      1.0  0.86661  0.28041  0.31982  1.0000
  Fe  Fe86      1.0  0.69891  0.45506  0.33274  1.0000
  S   S180      1.0  0.73297  0.46786  0.34471  1.0000
  Fe  Fe87      1.0  0.65753  0.41926  0.32850  1.0000
  S   S181      1.0  0.64080  0.44002  0.31632  1.0000
  S   S182      1.0  0.64245  0.38454  0.32858  1.0000
  Fe  Fe88      1.0  0.66616  0.45539  0.27718  1.0000
  Fe  Fe89      1.0  0.66146  0.46056  0.36041  1.0000
  H   H1080     1.0  0.71273  0.42483  0.22543  1.0000
  S   S183      1.0  0.68177  0.43337  0.28733  1.0000
  S   S184      1.0  0.67644  0.43871  0.37518  1.0000
  Fe  Fe90      1.0  0.52638  0.31370  0.32896  1.0000
  H   H1081     1.0  0.77310  0.25551  0.32305  1.0000
  S   S185      1.0  0.54543  0.34788  0.33212  1.0000
  Fe  Fe91      1.0  0.52316  0.26998  0.31642  1.0000
  H   H1082     1.0  0.55047  0.32468  0.49214  1.0000
  C   C629      1.0  0.91095  0.45449  0.11371  1.0000
  H   H1083     1.0  0.93649  0.26292  0.10331  1.0000
  H   H1084     1.0  0.74064  0.48052  0.46316  1.0000
  S   S186      1.0  0.52167  0.29405  0.27809  1.0000
  S   S187      1.0  0.53114  0.29072  0.36600  1.0000
  C   C630      1.0  0.71650  0.46521  0.13077  1.0000
  Fe  Fe92      1.0  0.48815  0.28233  0.29108  1.0000
  H   H1085     1.0  0.56065  0.29043  0.21032  1.0000
  C   C631      1.0  0.85278  0.27317  0.43021  1.0000
  C   C632      1.0  0.64928  0.47522  0.45078  1.0000
  H   H1086     1.0  0.49651  0.28212  0.20394  1.0000
  S   S188      1.0  0.78672  0.27004  0.23853  1.0000
  H   H1087     1.0  0.65700  0.44841  0.45468  1.0000
  C   C633      1.0  0.61564  0.37375  0.33382  1.0000
  C   C634      1.0  0.60467  0.35280  0.32542  1.0000
  C   C635      1.0  0.58306  0.34435  0.32634  1.0000
  C   C636      1.0  0.57240  0.35690  0.33559  1.0000
  C   C637      1.0  0.58344  0.37763  0.34528  1.0000
  C   C638      1.0  0.60498  0.38600  0.34464  1.0000
  H   H1088     1.0  0.61286  0.34320  0.31735  1.0000
  H   H1089     1.0  0.57465  0.32833  0.31891  1.0000
  H   H1090     1.0  0.57527  0.38732  0.35296  1.0000
  H   H1091     1.0  0.61331  0.40202  0.35207  1.0000
  C   C639      1.0  0.87791  0.26229  0.17898  1.0000
  H   H1092     1.0  0.69205  0.49311  0.47764  1.0000
  H   H1093     1.0  0.81147  0.32759  0.17200  1.0000
  C   C640      1.0  0.88383  0.27285  0.10511  1.0000
  C   C641      1.0  0.87753  0.28467  0.12966  1.0000
  C   C642      1.0  0.87457  0.27942  0.16639  1.0000
  C   C643      1.0  0.95720  0.25341  0.07307  1.0000
  H   H1094     1.0  0.87495  0.29801  0.12019  1.0000
  H   H1095     1.0  0.86985  0.28874  0.18502  1.0000
  C   C644      1.0  0.76887  0.43830  0.27810  1.0000
  C   C645      1.0  0.74781  0.42761  0.28292  1.0000
  C   C646      1.0  0.73657  0.43663  0.30322  1.0000
  C   C647      1.0  0.74641  0.45640  0.31848  1.0000
  C   C648      1.0  0.76740  0.46716  0.31329  1.0000
  C   C649      1.0  0.77860  0.45812  0.29316  1.0000
  H   H1096     1.0  0.74020  0.41229  0.27119  1.0000
  H   H1097     1.0  0.72042  0.42815  0.30756  1.0000
  H   H1098     1.0  0.91475  0.41968  0.13895  1.0000
  H   H1099     1.0  0.79462  0.46674  0.28842  1.0000
  C   C650      1.0  0.86535  0.38678  0.25418  1.0000
  C   C651      1.0  0.86517  0.38954  0.29186  1.0000
  C   C652      1.0  0.86606  0.37419  0.31492  1.0000
  C   C653      1.0  0.86681  0.35593  0.30039  1.0000
  C   C654      1.0  0.86736  0.35335  0.26273  1.0000
  C   C655      1.0  0.86679  0.36883  0.23965  1.0000
  H   H1100     1.0  0.86420  0.40343  0.30327  1.0000
  H   H1101     1.0  0.86574  0.37628  0.34407  1.0000
  H   H1102     1.0  0.86833  0.33945  0.25143  1.0000
  H   H1103     1.0  0.86709  0.36672  0.21051  1.0000
  H   H1104     1.0  0.55685  0.37382  0.49664  1.0000
  C   C656      1.0  0.94700  0.31249  0.04123  1.0000
  C   C657      1.0  0.56142  0.27155  0.46507  1.0000
  C   C658      1.0  0.86656  0.48155  0.46734  1.0000
  H   H1105     1.0  0.85912  0.28061  0.40522  1.0000
  C   C659      1.0  0.85127  0.45149  0.42729  1.0000
  C   C660      1.0  0.84341  0.43961  0.45791  1.0000
  H   H1106     1.0  0.83449  0.42329  0.45443  1.0000
  C   C661      1.0  0.82052  0.26816  0.15122  1.0000
  Fe  Fe93      1.0  0.49707  0.27918  0.37324  1.0000
  H   H1107     1.0  0.77497  0.48257  0.32467  1.0000
  H   H1108     1.0  0.50404  0.31038  0.43949  1.0000
  H   H1109     1.0  0.77921  0.49016  0.20722  1.0000
  H   H1110     1.0  0.87561  0.29597  0.46444  1.0000
  C   C662      1.0  0.85425  0.27225  0.49645  1.0000
  Fe  Fe94      1.0  0.81526  0.27230  0.26949  1.0000
  H   H1111     1.0  0.86820  0.43301  0.10920  1.0000
  C   C663      1.0  0.70715  0.43200  0.20312  1.0000
  H   H1112     1.0  0.92624  0.48074  0.22081  1.0000
  N   N48       1.0  0.96034  0.29106  0.08499  1.0000
  H   H1113     1.0  0.74522  0.26352  0.22230  1.0000
  C   C664      1.0  0.86209  0.28187  0.46381  1.0000
  H   H1114     1.0  0.71607  0.45807  0.23904  1.0000
  H   H1115     1.0  0.90389  0.46206  0.05906  1.0000
  C   C665      1.0  0.86266  0.47258  0.43204  1.0000
  H   H1116     1.0  0.79617  0.43261  0.34932  1.0000
  S   S189      1.0  0.83481  0.46897  0.29702  1.0000
  S   S190      1.0  0.68513  0.47826  0.32007  1.0000
  H   H1117     1.0  0.98292  0.28818  0.04825  1.0000
  C   C666      1.0  0.89497  0.43673  0.46688  1.0000
  C   C667      1.0  0.85141  0.33720  0.45621  1.0000
  N   N49       1.0  0.59254  0.39679  0.23081  1.0000
  C   C668      1.0  0.61301  0.40063  0.21389  1.0000
  C   C669      1.0  0.57826  0.39968  0.20247  1.0000
  C   C670      1.0  0.58308  0.37521  0.24466  1.0000
  C   C671      1.0  0.59588  0.41170  0.26246  1.0000
  C   C672      1.0  0.62875  0.39568  0.23762  1.0000
  C   C673      1.0  0.58473  0.42161  0.18755  1.0000
  C   C674      1.0  0.58043  0.35768  0.21683  1.0000
  C   C675      1.0  0.57633  0.41240  0.27982  1.0000
  H   H1118     1.0  0.61104  0.39198  0.18759  1.0000
  H   H1119     1.0  0.62075  0.41713  0.20699  1.0000
  H   H1120     1.0  0.56241  0.39506  0.21291  1.0000
  H   H1121     1.0  0.57676  0.38939  0.17839  1.0000
  H   H1122     1.0  0.59216  0.37319  0.26814  1.0000
  H   H1123     1.0  0.56753  0.37207  0.25540  1.0000
  H   H1124     1.0  0.60457  0.40793  0.28471  1.0000
  H   H1125     1.0  0.60567  0.42766  0.25485  1.0000
  H   H1126     1.0  0.64321  0.39951  0.22252  1.0000
  H   H1127     1.0  0.63280  0.40512  0.26305  1.0000
  H   H1128     1.0  0.62347  0.37918  0.24430  1.0000
  H   H1129     1.0  0.57266  0.42196  0.16806  1.0000
  H   H1130     1.0  0.58636  0.43336  0.20910  1.0000
  H   H1131     1.0  0.59921  0.42609  0.17238  1.0000
  H   H1132     1.0  0.57411  0.34280  0.23104  1.0000
  H   H1133     1.0  0.59519  0.35869  0.20523  1.0000
  H   H1134     1.0  0.56925  0.35694  0.19476  1.0000
  H   H1135     1.0  0.56762  0.41849  0.26114  1.0000
  H   H1136     1.0  0.58094  0.42297  0.30403  1.0000
  H   H1137     1.0  0.56602  0.39720  0.28952  1.0000
  C   C676      1.0  0.80748  0.46913  0.39022  1.0000
  C   C677      1.0  0.74051  0.49155  0.48512  1.0000
  C   C678      1.0  0.91455  0.48417  0.20459  1.0000
  C   C679      1.0  0.95330  0.26925  0.09835  1.0000
  C   C680      1.0  0.90364  0.46742  0.08756  1.0000
  H   H1138     1.0  0.80576  0.43201  0.41275  1.0000
  S   S191      1.0  0.65814  0.45772  0.21712  1.0000
  S   S192      1.0  0.88736  0.28036  0.05937  1.0000
  H   H1139     1.0  0.77007  0.42930  0.35988  1.0000
  C   C681      1.0  0.84699  0.44863  0.49305  1.0000
  H   H1140     1.0  0.81357  0.25315  0.20254  1.0000
  C   C682      1.0  0.53282  0.26290  0.20555  1.0000
  C   C683      1.0  0.91520  0.47898  0.16383  1.0000
  H   H1141     1.0  0.71808  0.46250  0.10135  1.0000
  H   H1142     1.0  0.77347  0.47237  0.42906  1.0000
  H   H1143     1.0  0.76594  0.25748  0.36877  1.0000
  C   C684      1.0  0.93769  0.29989  0.13148  1.0000
  H   H1144     1.0  0.53193  0.26229  0.23555  1.0000
  H   H1145     1.0  0.92490  0.44087  0.48860  1.0000
  H   H1146     1.0  0.85105  0.47777  0.16674  1.0000
  H   H1147     1.0  0.53751  0.29935  0.47414  1.0000
  C   C685      1.0  0.88459  0.25064  0.15459  1.0000
  H   H1148     1.0  0.87899  0.43296  0.47528  1.0000
  N   N50       1.0  0.79278  0.45534  0.41702  1.0000
  H   H1149     1.0  0.96084  0.26878  0.12502  1.0000
  C   C686      1.0  0.79078  0.43361  0.40805  1.0000
  H   H1150     1.0  0.72927  0.49070  0.25556  1.0000
  H   H1151     1.0  0.80683  0.27230  0.15252  1.0000
  C   C687      1.0  0.75157  0.46146  0.20978  1.0000
  C   C688      1.0  0.90880  0.43456  0.49823  1.0000
  H   H1152     1.0  0.80089  0.46583  0.36209  1.0000
  C   C689      1.0  0.75315  0.44024  0.42623  1.0000
  C   C690      1.0  0.91774  0.44608  0.17603  1.0000
  H   H1153     1.0  0.71150  0.42712  0.17692  1.0000
  H   H1154     1.0  0.78014  0.42227  0.42618  1.0000
  C   C691      1.0  0.84111  0.32493  0.48971  1.0000
  C   C692      1.0  0.73505  0.46400  0.15197  1.0000
  C   C693      1.0  0.77259  0.45818  0.41397  1.0000
  H   H1155     1.0  0.74224  0.44669  0.43745  1.0000
  H   H1156     1.0  0.56151  0.25639  0.45622  1.0000
  H   H1157     1.0  0.74484  0.43054  0.40239  1.0000
  H   H1158     1.0  0.95307  0.31543  0.01331  1.0000
  H   H1159     1.0  0.82447  0.32146  0.48629  1.0000
  H   H1160     1.0  0.92379  0.41840  0.18386  1.0000
  C   C694      1.0  0.94633  0.29131  0.05369  1.0000
  S   S193      1.0  0.49257  0.30369  0.33978  1.0000
  H   H1161     1.0  0.74838  0.44495  0.20343  1.0000
  H   H1162     1.0  0.96919  0.30299  0.13994  1.0000
  H   H1163     1.0  0.55880  0.27666  0.16837  1.0000
  H   H1164     1.0  0.98707  0.32456  0.03995  1.0000
  H   H1165     1.0  0.54101  0.24450  0.13979  1.0000
  H   H1166     1.0  0.56558  0.26745  0.21065  1.0000
  H   H1167     1.0  0.52452  0.27283  0.19699  1.0000
  H   H1168     1.0  0.70292  0.46110  0.20041  1.0000
  C   C695      1.0  0.66724  0.47261  0.14801  1.0000
  H   H1169     1.0  0.75104  0.46243  0.23980  1.0000
  N   N51       1.0  0.80149  0.34227  0.24182  1.0000
  C   C696      1.0  0.80882  0.35943  0.21490  1.0000
  C   C697      1.0  0.81132  0.32721  0.23218  1.0000
  C   C698      1.0  0.80859  0.35158  0.27942  1.0000
  C   C699      1.0  0.77838  0.33272  0.23888  1.0000
  C   C700      1.0  0.80241  0.37787  0.22192  1.0000
  C   C701      1.0  0.80565  0.31663  0.19429  1.0000
  C   C702      1.0  0.81088  0.33724  0.30903  1.0000
  C   C703      1.0  0.76746  0.31364  0.26179  1.0000
  H   H1170     1.0  0.82590  0.36573  0.21372  1.0000
  H   H1171     1.0  0.80310  0.35372  0.18690  1.0000
  H   H1172     1.0  0.80778  0.31466  0.25185  1.0000
  H   H1173     1.0  0.82832  0.33500  0.23385  1.0000
  H   H1174     1.0  0.82398  0.36428  0.27836  1.0000
  H   H1175     1.0  0.79817  0.35881  0.29023  1.0000
  H   H1176     1.0  0.77171  0.34410  0.24733  1.0000
  H   H1177     1.0  0.77289  0.32889  0.21012  1.0000
  H   H1178     1.0  0.80730  0.38503  0.24922  1.0000
  H   H1179     1.0  0.81011  0.39000  0.20209  1.0000
  H   H1180     1.0  0.78564  0.37362  0.21793  1.0000
  S   S194      1.0  0.84639  0.43896  0.38411  1.0000
  H   H1181     1.0  0.81314  0.30535  0.19154  1.0000
  H   H1182     1.0  0.78888  0.30785  0.19079  1.0000
  H   H1183     1.0  0.79662  0.32373  0.31319  1.0000
  H   H1184     1.0  0.81509  0.34601  0.33531  1.0000
  H   H1185     1.0  0.82360  0.33207  0.30321  1.0000
  H   H1186     1.0  0.76379  0.31820  0.28901  1.0000
  H   H1187     1.0  0.77613  0.30359  0.26519  1.0000
  H   H1188     1.0  0.75290  0.30371  0.24765  1.0000
  H   H1189     1.0  0.76936  0.46065  0.38519  1.0000
  H   H1190     1.0  0.65538  0.45817  0.13911  1.0000
  C   C704      1.0  0.74017  0.49040  0.19944  1.0000
  H   H1191     1.0  0.91444  0.44691  0.20539  1.0000
  H   H1192     1.0  0.69171  0.47395  0.42625  1.0000
  H   H1193     1.0  0.93002  0.28194  0.05974  1.0000
  C   C705      1.0  0.74553  0.24933  0.23267  1.0000
  C   C706      1.0  0.95938  0.30442  0.11689  1.0000
  S   S195      1.0  0.65132  0.47819  0.40296  1.0000
  H   H1194     1.0  0.85083  0.35274  0.45625  1.0000
  C   C707      1.0  0.55577  0.27474  0.19780  1.0000
  H   H1195     1.0  0.87703  0.45945  0.15713  1.0000
  N   N52       1.0  0.90649  0.45635  0.15328  1.0000
  C   C708      1.0  0.80243  0.46169  0.45448  1.0000
  H   H1196     1.0  0.95623  0.32583  0.05858  1.0000
  H   H1197     1.0  0.71590  0.48066  0.13358  1.0000
  H   H1198     1.0  0.51368  0.33165  0.49654  1.0000
  H   H1199     1.0  0.87532  0.41598  0.13749  1.0000
  C   C709      1.0  0.76301  0.24682  0.34496  1.0000
  N   N53       1.0  0.71891  0.48787  0.49635  1.0000
  C   C710      1.0  0.88379  0.44766  0.16084  1.0000
  H   H1200     1.0  0.77596  0.47226  0.16920  1.0000
  H   H1201     1.0  0.83371  0.24971  0.17990  1.0000
  C   C711      1.0  0.91288  0.42313  0.16781  1.0000
  C   C712      1.0  0.86996  0.42883  0.13760  1.0000
  S   S196      1.0  0.82515  0.24625  0.28043  1.0000
  H   H1202     1.0  0.57330  0.28330  0.44909  1.0000
  H   H1203     1.0  0.90400  0.43833  0.10342  1.0000
  H   H1204     1.0  0.90675  0.48726  0.14937  1.0000
  C   C713      1.0  0.81814  0.24964  0.17521  1.0000
  C   C714      1.0  0.71513  0.45559  0.20903  1.0000
  C   C715      1.0  0.50019  0.30316  0.46555  1.0000
  H   H1205     1.0  0.95175  0.25372  0.04485  1.0000
  H   H1206     1.0  0.78416  0.46732  0.21281  1.0000
  H   H1207     1.0  0.85434  0.42291  0.14911  1.0000
  H   H1208     1.0  0.70714  0.45721  0.47188  1.0000
  H   H1209     1.0  0.89742  0.41341  0.17716  1.0000
  H   H1210     1.0  0.71909  0.48362  0.42171  1.0000
  C   C716      1.0  0.78356  0.42592  0.36873  1.0000
  S   S197      1.0  0.48936  0.25683  0.32567  1.0000
  H   H1211     1.0  0.92779  0.45915  0.11000  1.0000
  C   C717      1.0  0.67191  0.47659  0.18543  1.0000
  H   H1212     1.0  0.86878  0.48188  0.40867  1.0000
  C   C718      1.0  0.77389  0.47372  0.19875  1.0000
  H   H1213     1.0  0.83373  0.28181  0.16174  1.0000
  C   C719      1.0  0.86350  0.49033  0.15526  1.0000
  H   H1214     1.0  0.74893  0.47540  0.13951  1.0000
  H   H1215     1.0  0.96588  0.32098  0.11091  1.0000
  H   H1216     1.0  0.88120  0.44350  0.18988  1.0000
  H   H1217     1.0  0.82360  0.26543  0.12257  1.0000
  H   H1218     1.0  0.89236  0.24664  0.09901  1.0000
  H   H1219     1.0  0.90103  0.45246  0.45579  1.0000
  H   H1220     1.0  0.77911  0.40898  0.36686  1.0000
  C   C720      1.0  0.83581  0.25453  0.42896  1.0000
  H   H1221     1.0  0.73589  0.44884  0.14532  1.0000
  H   H1222     1.0  0.69007  0.42563  0.20268  1.0000
  H   H1223     1.0  0.94938  0.28346  0.02936  1.0000
  H   H1224     1.0  0.93870  0.31116  0.15369  1.0000
  H   H1225     1.0  0.93090  0.28442  0.14331  1.0000
  H   H1226     1.0  0.84240  0.30961  0.48745  1.0000
  H   H1227     1.0  0.89458  0.42599  0.44410  1.0000
  H   H1228     1.0  0.86746  0.33829  0.45362  1.0000
  C   C721      1.0  0.65302  0.45969  0.46964  1.0000
  C   C722      1.0  0.85888  0.46960  0.49800  1.0000
  H   H1229     1.0  0.91405  0.48391  0.08917  1.0000
  H   H1230     1.0  0.93466  0.45432  0.17365  1.0000
  C   C723      1.0  0.86590  0.49109  0.11738  1.0000
  H   H1231     1.0  0.82195  0.46616  0.38952  1.0000
  H   H1232     1.0  0.78976  0.43198  0.48274  1.0000
  H   H1233     1.0  0.70172  0.45333  0.13900  1.0000
  C   C724      1.0  0.64376  0.48944  0.47049  1.0000
  H   H1234     1.0  0.80361  0.47751  0.46201  1.0000
  C   C725      1.0  0.48989  0.28182  0.46704  1.0000
  C   C726      1.0  0.55145  0.30931  0.48951  1.0000
  H   H1235     1.0  0.89913  0.47608  0.21584  1.0000
  S   S198      1.0  0.53956  0.24884  0.30294  1.0000
  H   H1236     1.0  0.93116  0.31236  0.03998  1.0000
  C   C727      1.0  0.79152  0.44825  0.48629  1.0000
  H   H1237     1.0  0.49891  0.27787  0.13698  1.0000
  H   H1238     1.0  0.85539  0.47886  0.10013  1.0000
  Fe  Fe95      1.0  0.89467  0.26295  0.01260  1.0000
  H   H1239     1.0  0.84302  0.32889  0.43123  1.0000
  H   H1240     1.0  0.88779  0.46617  0.09295  1.0000
  H   H1241     1.0  0.93148  0.48640  0.15549  1.0000
  C   C728      1.0  0.83683  0.25396  0.49535  1.0000
  H   H1242     1.0  0.81848  0.46241  0.45487  1.0000
  H   H1243     1.0  0.56525  0.31143  0.47341  1.0000
  H   H1244     1.0  0.67441  0.48361  0.09324  1.0000
  C   C729      1.0  0.82776  0.24501  0.46164  1.0000
  C   C730      1.0  0.88742  0.25581  0.11767  1.0000
  H   H1245     1.0  0.54643  0.27179  0.45643  1.0000
  C   C731      1.0  0.81367  0.49249  0.39666  1.0000
  H   H1246     1.0  0.97373  0.25581  0.07297  1.0000
  C   C732      1.0  0.98224  0.29721  0.07302  1.0000
  H   H1247     1.0  0.77659  0.44949  0.49162  1.0000
  H   H1248     1.0  0.50040  0.24594  0.25272  1.0000
  C   C733      1.0  0.67795  0.48705  0.12191  1.0000
  C   C734      1.0  0.76417  0.24818  0.24343  1.0000
  H   H1249     1.0  0.52364  0.26903  0.49605  1.0000
  C   C735      1.0  0.70609  0.48775  0.42998  1.0000
  C   C736      1.0  0.50564  0.31516  0.49790  1.0000
  C   C737      1.0  0.70704  0.46502  0.49843  1.0000
  Fe  Fe96      1.0  0.85848  0.43151  0.64403  1.0000
  S   S199      1.0  0.87689  0.46554  0.64010  1.0000
  S   S200      1.0  0.87509  0.40952  0.64543  1.0000
  Fe  Fe97      1.0  0.81808  0.43692  0.63723  1.0000
  S   S201      1.0  0.78377  0.41979  0.63674  1.0000
  Fe  Fe98      1.0  0.85458  0.46391  0.59435  1.0000
  S   S202      1.0  0.67144  0.49079  0.75171  1.0000
  Fe  Fe99      1.0  0.85402  0.46962  0.67849  1.0000
  S   S203      1.0  0.83774  0.42977  0.59611  1.0000
  S   S204      1.0  0.83728  0.43559  0.68586  1.0000
  Fe  Fe100     1.0  0.83134  0.28929  0.64848  1.0000
  S   S205      1.0  0.86441  0.29693  0.63722  1.0000
  S   S206      1.0  0.81923  0.31457  0.65747  1.0000
  H   H1250     1.0  0.65182  0.44654  0.87668  1.0000
  Fe  Fe101     1.0  0.86199  0.27103  0.67421  1.0000
  S   S207      1.0  0.88746  0.27354  0.71504  1.0000
  Fe  Fe102     1.0  0.85261  0.27315  0.59217  1.0000
  S   S208      1.0  0.86698  0.28343  0.53780  1.0000
  S   S209      1.0  0.82949  0.26497  0.68903  1.0000
  S   S210      1.0  0.81941  0.26671  0.60137  1.0000
  H   H1251     1.0  0.87400  0.32359  0.51971  1.0000
  S   S211      1.0  0.69032  0.45064  0.69837  1.0000
  Fe  Fe103     1.0  0.66010  0.46438  0.61949  1.0000
  S   S212      1.0  0.67528  0.44195  0.61156  1.0000
  N   N54       1.0  0.90738  0.44486  0.53385  1.0000
  Fe  Fe104     1.0  0.66236  0.43007  0.66588  1.0000
  S   S213      1.0  0.64760  0.39580  0.67425  1.0000
  Fe  Fe105     1.0  0.70134  0.46481  0.64445  1.0000
  H   H1252     1.0  0.56956  0.36091  0.52267  1.0000
  S   S214      1.0  0.64529  0.45107  0.67185  1.0000
  H   H1253     1.0  0.60146  0.42396  0.80092  1.0000
  S   S215      1.0  0.54308  0.31306  0.64326  1.0000
  H   H1254     1.0  0.56973  0.26174  0.51606  1.0000
  S   S216      1.0  0.83331  0.47104  0.63209  1.0000
  S   S217      1.0  0.52575  0.29355  0.72222  1.0000
  Fe  Fe106     1.0  0.53523  0.32430  0.69581  1.0000
  S   S218      1.0  0.55461  0.35578  0.71879  1.0000
  Fe  Fe107     1.0  0.53026  0.28183  0.66713  1.0000
  Fe  Fe108     1.0  0.67395  0.47250  0.70131  1.0000
  H   H1255     1.0  0.60738  0.41909  0.75586  1.0000
  C   C738      1.0  0.88823  0.48907  0.81500  1.0000
  S   S219      1.0  0.50318  0.31996  0.67801  1.0000
  H   H1256     1.0  0.54166  0.30420  0.54510  1.0000
  C   C739      1.0  0.58000  0.36645  0.70407  1.0000
  C   C740      1.0  0.59090  0.35408  0.69529  1.0000
  C   C741      1.0  0.61159  0.36322  0.68556  1.0000
  C   C742      1.0  0.62127  0.38468  0.68372  1.0000
  C   C743      1.0  0.61003  0.39691  0.69113  1.0000
  C   C744      1.0  0.58957  0.38784  0.70180  1.0000
  H   H1257     1.0  0.58359  0.33753  0.69709  1.0000
  H   H1258     1.0  0.62019  0.35365  0.67989  1.0000
  H   H1259     1.0  0.61724  0.41337  0.68990  1.0000
  H   H1260     1.0  0.58113  0.39743  0.70843  1.0000
  H   H1261     1.0  0.84532  0.35838  0.78232  1.0000
  C   C745      1.0  0.55606  0.27601  0.56937  1.0000
  H   H1262     1.0  0.51033  0.24507  0.61290  1.0000
  H   H1263     1.0  0.89260  0.32508  0.85211  1.0000
  H   H1264     1.0  0.90099  0.46961  0.50858  1.0000
  C   C746      1.0  0.87911  0.48544  0.77981  1.0000
  C   C747      1.0  0.58743  0.39899  0.59074  1.0000
  C   C748      1.0  0.88317  0.27064  0.76216  1.0000
  H   H1265     1.0  0.89927  0.33558  0.78938  1.0000
  C   C749      1.0  0.89716  0.27248  0.82398  1.0000
  C   C750      1.0  0.89976  0.27319  0.78609  1.0000
  N   N55       1.0  0.63027  0.41962  0.79629  1.0000
  H   H1266     1.0  0.64722  0.42548  0.74645  1.0000
  N   N56       1.0  0.86790  0.32701  0.76900  1.0000
  H   H1267     1.0  0.82879  0.30232  0.72869  1.0000
  S   S220      1.0  0.64174  0.47222  0.57503  1.0000
  H   H1268     1.0  0.86448  0.35166  0.73862  1.0000
  H   H1269     1.0  0.88374  0.30911  0.79312  1.0000
  C   C751      1.0  0.76931  0.43518  0.63085  1.0000
  C   C752      1.0  0.77794  0.45443  0.61501  1.0000
  C   C753      1.0  0.76670  0.46710  0.61250  1.0000
  C   C754      1.0  0.74673  0.46053  0.62559  1.0000
  C   C755      1.0  0.73780  0.44103  0.64046  1.0000
  C   C756      1.0  0.74908  0.42833  0.64294  1.0000
  H   H1270     1.0  0.79320  0.45951  0.60444  1.0000
  H   H1271     1.0  0.78136  0.42739  0.72054  1.0000
  H   H1272     1.0  0.72231  0.43582  0.65039  1.0000
  H   H1273     1.0  0.74228  0.41335  0.65492  1.0000
  H   H1274     1.0  0.55072  0.39995  0.61204  1.0000
  H   H1275     1.0  0.84561  0.29729  0.78331  1.0000
  C   C757      1.0  0.84834  0.35578  0.53129  1.0000
  C   C758      1.0  0.85947  0.38320  0.64880  1.0000
  C   C759      1.0  0.83815  0.37663  0.65119  1.0000
  C   C760      1.0  0.82604  0.35556  0.65401  1.0000
  C   C761      1.0  0.83510  0.34090  0.65415  1.0000
  C   C762      1.0  0.85645  0.34750  0.65149  1.0000
  C   C763      1.0  0.86858  0.36857  0.64891  1.0000
  H   H1276     1.0  0.83096  0.38778  0.65115  1.0000
  H   H1277     1.0  0.80954  0.35062  0.65606  1.0000
  H   H1278     1.0  0.86366  0.33646  0.65150  1.0000
  H   H1279     1.0  0.88508  0.37357  0.64712  1.0000
  C   C764      1.0  0.88620  0.43625  0.54969  1.0000
  H   H1280     1.0  0.64233  0.41475  0.84876  1.0000
  C   C765      1.0  0.86380  0.26682  0.77636  1.0000
  H   H1281     1.0  0.89934  0.34632  0.71867  1.0000
  H   H1282     1.0  0.65426  0.45602  0.83266  1.0000
  H   H1283     1.0  0.58873  0.38794  0.78463  1.0000
  H   H1284     1.0  0.68146  0.43109  0.77235  1.0000
  C   C766      1.0  0.91530  0.48170  0.55987  1.0000
  H   H1285     1.0  0.88315  0.35971  0.57545  1.0000
  H   H1286     1.0  0.56264  0.39013  0.64586  1.0000
  H   H1287     1.0  0.97834  0.31241  0.96384  1.0000
  C   C767      1.0  0.66772  0.42270  0.78844  1.0000
  H   H1288     1.0  0.66408  0.40609  0.78319  1.0000
  H   H1289     1.0  0.84237  0.31786  0.80637  1.0000
  H   H1290     1.0  0.59325  0.36163  0.56221  1.0000
  C   C768      1.0  0.84653  0.31332  0.77968  1.0000
  C   C769      1.0  0.55544  0.37849  0.55475  1.0000
  H   H1291     1.0  0.83041  0.32755  0.74337  1.0000
  S   S221      1.0  0.86518  0.48123  0.54194  1.0000
  H   H1292     1.0  0.80115  0.45410  0.51141  1.0000
  H   H1293     1.0  0.59812  0.38542  0.82981  1.0000
  C   C770      1.0  0.55406  0.38622  0.61931  1.0000
  C   C771      1.0  0.56935  0.36159  0.60118  1.0000
  C   C772      1.0  0.53296  0.36908  0.62637  1.0000
  S   S222      1.0  0.96528  0.26715  0.97184  1.0000
  H   H1294     1.0  0.90693  0.41395  0.58726  1.0000
  H   H1295     1.0  0.56855  0.35970  0.63115  1.0000
  H   H1296     1.0  0.55644  0.34788  0.58968  1.0000
  H   H1297     1.0  0.76834  0.45060  0.75245  1.0000
  H   H1298     1.0  0.52589  0.37388  0.64975  1.0000
  H   H1299     1.0  0.52215  0.36641  0.60280  1.0000
  H   H1300     1.0  0.53415  0.35435  0.63377  1.0000
  H   H1301     1.0  0.62330  0.39316  0.75957  1.0000
  C   C773      1.0  0.69254  0.47923  0.80645  1.0000
  C   C774      1.0  0.88347  0.32481  0.79562  1.0000
  H   H1302     1.0  0.58130  0.38862  0.51696  1.0000
  C   C775      1.0  0.56676  0.37534  0.52123  1.0000
  H   H1303     1.0  0.57838  0.30557  0.59175  1.0000
  H   H1304     1.0  0.60335  0.43152  0.58056  1.0000
  H   H1305     1.0  0.84075  0.43930  0.51630  1.0000
  H   H1306     1.0  0.80174  0.44804  0.70125  1.0000
  H   H1307     1.0  0.83076  0.24641  0.52039  1.0000
  H   H1308     1.0  0.63132  0.45393  0.74848  1.0000
  C   C776      1.0  0.64183  0.48829  0.50829  1.0000
  H   H1309     1.0  0.54444  0.27801  0.58767  1.0000
  H   H1310     1.0  0.48996  0.24507  0.72577  1.0000
  C   C777      1.0  0.68183  0.49160  0.79638  1.0000
  C   C778      1.0  0.87375  0.41286  0.54410  1.0000
  H   H1311     1.0  0.85908  0.36734  0.51331  1.0000
  C   C779      1.0  0.49048  0.28461  0.53333  1.0000
  C   C780      1.0  0.87168  0.31924  0.73236  1.0000
  H   H1312     1.0  0.92752  0.47379  0.51132  1.0000
  C   C781      1.0  0.85983  0.35802  0.79403  1.0000
  H   H1313     1.0  0.49773  0.29135  0.78706  1.0000
  H   H1314     1.0  0.55101  0.39183  0.54954  1.0000
  H   H1315     1.0  0.74871  0.47145  0.70801  1.0000
  C   C782      1.0  0.83859  0.32079  0.55630  1.0000
  S   S223      1.0  0.49820  0.27468  0.64614  1.0000
  S   S224      1.0  0.73362  0.47729  0.62393  1.0000
  H   H1316     1.0  0.81471  0.48182  0.69796  1.0000
  H   H1317     1.0  0.51931  0.26781  0.54267  1.0000
  H   H1318     1.0  0.69560  0.46952  0.78622  1.0000
  H   H1319     1.0  0.87942  0.47276  0.76308  1.0000
  H   H1320     1.0  0.88715  0.35944  0.76627  1.0000
  H   H1321     1.0  0.92285  0.45127  0.58677  1.0000
  H   H1322     1.0  0.91015  0.27493  0.84220  1.0000
  H   H1323     1.0  0.77358  0.48212  0.60073  1.0000
  H   H1324     1.0  0.63098  0.45202  0.85645  1.0000
  H   H1325     1.0  0.88362  0.34491  0.84230  1.0000
  S   S225      1.0  0.87426  0.27048  0.88527  1.0000
  C   C783      1.0  0.55335  0.30158  0.52780  1.0000
  H   H1326     1.0  0.86580  0.31815  0.84644  1.0000
  H   H1327     1.0  0.86142  0.32147  0.71097  1.0000
  H   H1328     1.0  0.91480  0.27613  0.77530  1.0000
  H   H1329     1.0  0.56850  0.31245  0.53844  1.0000
  H   H1330     1.0  0.59019  0.29012  0.56799  1.0000
  Fe  Fe109     1.0  0.92996  0.25919  0.96941  1.0000
  H   H1331     1.0  0.92984  0.48457  0.57532  1.0000
  H   H1332     1.0  0.93409  0.42268  0.58957  1.0000
  H   H1333     1.0  0.58010  0.42626  0.60389  1.0000
  C   C784      1.0  0.89377  0.32930  0.71840  1.0000
  H   H1334     1.0  0.54069  0.36487  0.55498  1.0000
  C   C785      1.0  0.64296  0.44573  0.85100  1.0000
  H   H1335     1.0  0.86393  0.40714  0.56798  1.0000
  C   C786      1.0  0.58961  0.35926  0.59127  1.0000
  H   H1336     1.0  0.60272  0.36998  0.60797  1.0000
  C   C787      1.0  0.63328  0.42323  0.83688  1.0000
  C   C788      1.0  0.65130  0.45867  0.50804  1.0000
  H   H1337     1.0  0.58841  0.34348  0.59779  1.0000
  C   C789      1.0  0.60027  0.38397  0.80030  1.0000
  H   H1338     1.0  0.89556  0.47911  0.82503  1.0000
  C   C790      1.0  0.62249  0.39663  0.78897  1.0000
  H   H1339     1.0  0.63238  0.38975  0.80303  1.0000
  C   C791      1.0  0.69880  0.47905  0.84307  1.0000
  C   C792      1.0  0.82915  0.31221  0.75266  1.0000
  H   H1340     1.0  0.69059  0.46158  0.50327  1.0000
  C   C793      1.0  0.64573  0.47310  0.52746  1.0000
  N   N57       1.0  0.56681  0.38129  0.59079  1.0000
  S   S226      1.0  0.68692  0.48820  0.64941  1.0000
  H   H1341     1.0  0.55485  0.25991  0.57297  1.0000
  C   C794      1.0  0.86129  0.26654  0.81419  1.0000
  H   H1342     1.0  0.59675  0.36742  0.79406  1.0000
  C   C795      1.0  0.77891  0.45702  0.72959  1.0000
  H   H1343     1.0  0.89411  0.32416  0.68984  1.0000
  H   H1344     1.0  0.67219  0.42688  0.81741  1.0000
  C   C796      1.0  0.87796  0.26946  0.83812  1.0000
  H   H1345     1.0  0.57980  0.28343  0.61184  1.0000
  H   H1346     1.0  0.81732  0.34697  0.50509  1.0000
  C   C797      1.0  0.61436  0.42734  0.78177  1.0000
  C   C798      1.0  0.65004  0.42917  0.77615  1.0000
  C   C799      1.0  0.57741  0.28975  0.58544  1.0000
  H   H1347     1.0  0.61831  0.41652  0.85056  1.0000
  H   H1348     1.0  0.59539  0.40053  0.61773  1.0000
  H   H1349     1.0  0.80889  0.30176  0.57741  1.0000
  H   H1350     1.0  0.88107  0.34979  0.50902  1.0000
  H   H1351     1.0  0.88699  0.43985  0.57942  1.0000
  H   H1352     1.0  0.79257  0.48213  0.67661  1.0000
  Fe  Fe110     1.0  0.51059  0.30708  0.62622  1.0000
  H   H1353     1.0  0.60798  0.45404  0.76588  1.0000
  H   H1354     1.0  0.76895  0.45389  0.70467  1.0000
  H   H1355     1.0  0.65623  0.44618  0.77798  1.0000
  H   H1356     1.0  0.82904  0.37287  0.51916  1.0000
  S   S227      1.0  0.91497  0.28239  0.96960  1.0000
  C   C800      1.0  0.58722  0.42032  0.58210  1.0000
  H   H1357     1.0  0.86971  0.37436  0.80033  1.0000
  H   H1358     1.0  0.90459  0.32422  0.73395  1.0000
  Fe  Fe111     1.0  0.89176  0.26113  0.92948  1.0000
  H   H1359     1.0  0.81408  0.30499  0.76583  1.0000
  C   C801      1.0  0.91291  0.46742  0.52639  1.0000
  H   H1360     1.0  0.70657  0.46903  0.85081  1.0000
  H   H1361     1.0  0.59785  0.39625  0.57084  1.0000
  Fe  Fe112     1.0  0.49413  0.28813  0.70034  1.0000
  H   H1362     1.0  0.85087  0.26458  0.75825  1.0000
  C   C802      1.0  0.92319  0.44329  0.56054  1.0000
  C   C803      1.0  0.87056  0.34928  0.76565  1.0000
  H   H1363     1.0  0.80135  0.44419  0.74987  1.0000
  S   S228      1.0  0.54647  0.25992  0.66071  1.0000
  H   H1364     1.0  0.86781  0.30234  0.73258  1.0000
  C   C804      1.0  0.62160  0.45036  0.77281  1.0000
  C   C805      1.0  0.75953  0.48756  0.71307  1.0000
  H   H1365     1.0  0.69077  0.47837  0.55667  1.0000
  H   H1366     1.0  0.81910  0.47956  0.75950  1.0000
  H   H1367     1.0  0.81189  0.29603  0.53093  1.0000
  H   H1368     1.0  0.90209  0.47563  0.57797  1.0000
  H   H1369     1.0  0.76666  0.48239  0.76840  1.0000
  H   H1370     1.0  0.93895  0.45115  0.54996  1.0000
  C   C806      1.0  0.79187  0.44370  0.72525  1.0000
  C   C807      1.0  0.88079  0.32856  0.83620  1.0000
  C   C808      1.0  0.92094  0.42147  0.57129  1.0000
  H   H1371     1.0  0.85673  0.35015  0.82023  1.0000
  H   H1372     1.0  0.62989  0.46083  0.79553  1.0000
  S   S229      1.0  0.50965  0.32128  0.57175  1.0000
  H   H1373     1.0  0.92134  0.41162  0.54776  1.0000
  N   N58       1.0  0.55159  0.27956  0.53027  1.0000
  H   H1374     1.0  0.49813  0.29031  0.85436  1.0000
  H   H1375     1.0  0.84110  0.32943  0.58267  1.0000
  H   H1376     1.0  0.58204  0.28837  0.50875  1.0000
  H   H1377     1.0  0.87612  0.33288  0.58659  1.0000
  H   H1378     1.0  0.84639  0.26420  0.82500  1.0000
  H   H1379     1.0  0.70521  0.43718  0.52565  1.0000
  H   H1380     1.0  0.80674  0.31858  0.54368  1.0000
  H   H1381     1.0  0.79792  0.47136  0.78897  1.0000
  H   H1382     1.0  0.86278  0.40986  0.52066  1.0000
  H   H1383     1.0  0.71284  0.45909  0.55545  1.0000
  H   H1384     1.0  0.88297  0.40327  0.54165  1.0000
  C   C809      1.0  0.50112  0.30588  0.53185  1.0000
  H   H1385     1.0  0.87647  0.44392  0.53770  1.0000
  H   H1386     1.0  0.81880  0.35373  0.55317  1.0000
  C   C810      1.0  0.77537  0.48938  0.74377  1.0000
  C   C811      1.0  0.88291  0.34460  0.56579  1.0000
  H   H1387     1.0  0.65377  0.44651  0.52248  1.0000
  C   C812      1.0  0.69505  0.49171  0.86978  1.0000
  H   H1388     1.0  0.57973  0.42042  0.55542  1.0000
  N   N59       1.0  0.79080  0.47985  0.73551  1.0000
  S   S230      1.0  0.70174  0.48986  0.91607  1.0000
  C   C813      1.0  0.80246  0.48799  0.70143  1.0000
  H   H1389     1.0  0.84507  0.30875  0.56040  1.0000
  C   C814      1.0  0.81522  0.30883  0.55127  1.0000
  H   H1390     1.0  0.89915  0.34618  0.56344  1.0000
  C   C815      1.0  0.80538  0.48271  0.76765  1.0000
  C   C816      1.0  0.52961  0.26545  0.52195  1.0000
  H   H1391     1.0  0.74944  0.48855  0.50807  1.0000
  S   S231      1.0  0.85378  0.24800  0.62775  1.0000
  H   H1392     1.0  0.85388  0.36212  0.55913  1.0000
  C   C817      1.0  0.56684  0.27536  0.50633  1.0000
  C   C818      1.0  0.87196  0.33794  0.52829  1.0000
  C   C819      1.0  0.71470  0.45393  0.52760  1.0000
  H   H1393     1.0  0.52563  0.25200  0.73623  1.0000
  C   C820      1.0  0.82705  0.35705  0.52708  1.0000
  H   H1394     1.0  0.73088  0.45578  0.52390  1.0000
  N   N60       1.0  0.84952  0.33492  0.52626  1.0000
  H   H1395     1.0  0.90521  0.41792  0.50091  1.0000
  Fe  Fe113     1.0  0.53022  0.61763  0.35231  1.0000
  C   C821      1.0  0.59064  0.71616  0.23287  1.0000
  S   S232      1.0  0.53507  0.60573  0.40717  1.0000
  Fe  Fe114     1.0  0.53828  0.61720  0.26979  1.0000
  S   S233      1.0  0.50871  0.63407  0.34480  1.0000
  S   S234      1.0  0.55570  0.60814  0.22570  1.0000
  C   C822      1.0  0.52909  0.70040  0.29743  1.0000
  C   C823      1.0  0.69775  0.50988  0.17045  1.0000
  S   S235      1.0  0.51713  0.63336  0.25707  1.0000
  S   S236      1.0  0.55459  0.63847  0.31651  1.0000
  S   S237      1.0  0.51631  0.59449  0.30672  1.0000
  H   H1396     1.0  0.70956  0.52435  0.17941  1.0000
  H   H1397     1.0  0.65165  0.50621  0.09173  1.0000
  H   H1398     1.0  0.72754  0.49458  0.18844  1.0000
  H   H1399     1.0  0.56399  0.70011  0.13164  1.0000
  H   H1400     1.0  0.51879  0.69220  0.48875  1.0000
  H   H1401     1.0  0.82946  0.50884  0.12731  1.0000
  S   S238      1.0  0.55874  0.64430  0.06764  1.0000
  C   C824      1.0  0.49086  0.55564  0.16262  1.0000
  H   H1402     1.0  0.63565  0.51820  0.11051  1.0000
  C   C825      1.0  0.63448  0.57292  0.04988  1.0000
  C   C826      1.0  0.88199  0.50723  0.10166  1.0000
  H   H1403     1.0  0.53643  0.59523  0.48199  1.0000
  C   C827      1.0  0.50320  0.72244  0.29677  1.0000
  H   H1404     1.0  0.59055  0.65616  0.23202  1.0000
  H   H1405     1.0  0.75414  0.52540  0.49289  1.0000
  C   C828      1.0  0.51624  0.55425  0.22993  1.0000
  C   C829      1.0  0.55167  0.74405  0.46893  1.0000
  Fe  Fe115     1.0  0.70956  0.52805  0.03978  1.0000
  C   C830      1.0  0.87741  0.50550  0.17812  1.0000
  S   S239      1.0  0.70784  0.52453  0.10176  1.0000
  H   H1406     1.0  0.53521  0.69454  0.16172  1.0000
  C   C831      1.0  0.58437  0.67488  0.19028  1.0000
  H   H1407     1.0  0.57967  0.66163  0.17057  1.0000
  H   H1408     1.0  0.54349  0.66611  0.18922  1.0000
  C   C832      1.0  0.83915  0.51770  0.04488  1.0000
  H   H1409     1.0  0.50121  0.56686  0.37404  1.0000
  C   C833      1.0  0.55290  0.68226  0.19817  1.0000
  S   S240      1.0  0.88561  0.50567  0.05429  1.0000
  C   C834      1.0  0.75326  0.51340  0.47226  1.0000
  H   H1410     1.0  0.52181  0.65875  0.47945  1.0000
  H   H1411     1.0  0.85997  0.53516  0.12185  1.0000
  H   H1412     1.0  0.50764  0.58694  0.20995  1.0000
  H   H1413     1.0  0.82330  0.51676  0.03957  1.0000
  C   C835      1.0  0.52476  0.64476  0.48010  1.0000
  H   H1414     1.0  0.87574  0.49780  0.47094  1.0000
  C   C836      1.0  0.53994  0.69528  0.19075  1.0000
  H   H1415     1.0  0.52307  0.55375  0.20321  1.0000
  C   C837      1.0  0.67632  0.62461  0.00472  1.0000
  H   H1416     1.0  0.81918  0.54387  0.06015  1.0000
  H   H1417     1.0  0.49170  0.55599  0.41648  1.0000
  H   H1418     1.0  0.52090  0.54433  0.24831  1.0000
  C   C838      1.0  0.89546  0.52294  0.12430  1.0000
  C   C839      1.0  0.89310  0.52210  0.16238  1.0000
  Fe  Fe116     1.0  0.58212  0.64995  0.02267  1.0000
  H   H1419     1.0  0.48951  0.52349  0.16616  1.0000
  H   H1420     1.0  0.59585  0.68016  0.12094  1.0000
  H   H1421     1.0  0.90816  0.53526  0.11267  1.0000
  H   H1422     1.0  0.90391  0.53401  0.17978  1.0000
  H   H1423     1.0  0.71493  0.51352  0.46904  1.0000
  H   H1424     1.0  0.55842  0.67333  0.13133  1.0000
  H   H1425     1.0  0.63595  0.51375  0.06165  1.0000
  H   H1426     1.0  0.54095  0.72556  0.37054  1.0000
  C   C840      1.0  0.55602  0.61716  0.18101  1.0000
  C   C841      1.0  0.54071  0.62367  0.16838  1.0000
  C   C842      1.0  0.54148  0.63120  0.13310  1.0000
  C   C843      1.0  0.55776  0.63273  0.11025  1.0000
  C   C844      1.0  0.57299  0.62600  0.12262  1.0000
  C   C845      1.0  0.57199  0.61805  0.15781  1.0000
  H   H1427     1.0  0.52823  0.62287  0.18569  1.0000
  H   H1428     1.0  0.52955  0.63622  0.12359  1.0000
  H   H1429     1.0  0.58559  0.62708  0.10523  1.0000
  H   H1430     1.0  0.58387  0.61297  0.16734  1.0000
  H   H1431     1.0  0.91823  0.50095  0.20813  1.0000
  H   H1432     1.0  0.55845  0.72584  0.42675  1.0000
  S   S241      1.0  0.54624  0.68783  0.30109  1.0000
  H   H1433     1.0  0.85005  0.55264  0.14084  1.0000
  H   H1434     1.0  0.58306  0.67578  0.25097  1.0000
  H   H1435     1.0  0.60243  0.71579  0.18008  1.0000
  H   H1436     1.0  0.84359  0.51127  0.02015  1.0000
  C   C846      1.0  0.52741  0.63559  0.44732  1.0000
  C   C847      1.0  0.53170  0.61774  0.44783  1.0000
  S   S242      1.0  0.73155  0.52072  0.00336  1.0000
  H   H1437     1.0  0.52650  0.64254  0.42171  1.0000
  H   H1438     1.0  0.57580  0.73072  0.07426  1.0000
  H   H1439     1.0  0.54785  0.71147  0.20034  1.0000
  H   H1440     1.0  0.52559  0.68889  0.20638  1.0000
  H   H1441     1.0  0.73272  0.61142  0.01623  1.0000
  Fe  Fe117     1.0  0.53204  0.65338  0.30574  1.0000
  C   C848      1.0  0.69329  0.50581  0.13302  1.0000
  H   H1442     1.0  0.55420  0.68176  0.22812  1.0000
  H   H1443     1.0  0.70564  0.49958  0.41070  1.0000
  H   H1444     1.0  0.60135  0.70759  0.12148  1.0000
  H   H1445     1.0  0.74707  0.51469  0.24079  1.0000
  H   H1446     1.0  0.52302  0.57000  0.24198  1.0000
  H   H1447     1.0  0.60131  0.68264  0.18766  1.0000
  H   H1448     1.0  0.49122  0.59092  0.40810  1.0000
  N   N61       1.0  0.65823  0.55813  0.08410  1.0000
  C   C849      1.0  0.66349  0.53917  0.08359  1.0000
  C   C850      1.0  0.67763  0.57606  0.07536  1.0000
  C   C851      1.0  0.64228  0.55535  0.05440  1.0000
  C   C852      1.0  0.65006  0.56026  0.12099  1.0000
  C   C853      1.0  0.64540  0.51832  0.08713  1.0000
  C   C854      1.0  0.69598  0.58008  0.10202  1.0000
  C   C855      1.0  0.58096  0.74059  0.05030  1.0000
  C   C856      1.0  0.65120  0.58195  0.13283  1.0000
  H   H1449     1.0  0.67150  0.53821  0.05819  1.0000
  H   H1450     1.0  0.67444  0.53990  0.10624  1.0000
  H   H1451     1.0  0.67522  0.59066  0.07350  1.0000
  H   H1452     1.0  0.68287  0.57373  0.04781  1.0000
  H   H1453     1.0  0.64814  0.55264  0.02764  1.0000
  H   H1454     1.0  0.62819  0.54154  0.05891  1.0000
  H   H1455     1.0  0.63376  0.54945  0.12283  1.0000
  H   H1456     1.0  0.65859  0.55555  0.14256  1.0000
  H   H1457     1.0  0.85630  0.54799  0.02565  1.0000
  C   C857      1.0  0.58694  0.71123  0.19187  1.0000
  H   H1458     1.0  0.49290  0.58342  0.46422  1.0000
  H   H1459     1.0  0.70273  0.56822  0.09878  1.0000
  H   H1460     1.0  0.70831  0.59505  0.09583  1.0000
  H   H1461     1.0  0.69182  0.58086  0.13073  1.0000
  H   H1462     1.0  0.74716  0.51666  0.44612  1.0000
  C   C858      1.0  0.51951  0.73412  0.39923  1.0000
  H   H1463     1.0  0.62420  0.56950  0.02534  1.0000
  H   H1464     1.0  0.63680  0.58041  0.14672  1.0000
  H   H1465     1.0  0.65291  0.59286  0.11074  1.0000
  H   H1466     1.0  0.66374  0.58905  0.15344  1.0000
  N   N62       1.0  0.85044  0.55223  0.08213  1.0000
  C   C859      1.0  0.86884  0.57237  0.08548  1.0000
  C   C860      1.0  0.83229  0.55745  0.07088  1.0000
  C   C861      1.0  0.85479  0.53984  0.05179  1.0000
  C   C862      1.0  0.84772  0.54139  0.11783  1.0000
  C   C863      1.0  0.88861  0.57148  0.10295  1.0000
  C   C864      1.0  0.82379  0.56777  0.10035  1.0000
  H   H1467     1.0  0.75623  0.60804  0.00873  1.0000
  S   S243      1.0  0.72245  0.56176  0.02654  1.0000
  H   H1468     1.0  0.87286  0.57947  0.05829  1.0000
  H   H1469     1.0  0.86546  0.58390  0.10227  1.0000
  H   H1470     1.0  0.51857  0.72320  0.42114  1.0000
  H   H1471     1.0  0.83638  0.56805  0.04760  1.0000
  H   H1472     1.0  0.54844  0.72975  0.48435  1.0000
  H   H1473     1.0  0.86971  0.53829  0.05638  1.0000
  C   C865      1.0  0.58928  0.69206  0.11691  1.0000
  C   C866      1.0  0.50859  0.69076  0.30721  1.0000
  H   H1474     1.0  0.88688  0.56842  0.13245  1.0000
  H   H1475     1.0  0.89357  0.55997  0.08976  1.0000
  H   H1476     1.0  0.90136  0.58669  0.10029  1.0000
  H   H1477     1.0  0.83482  0.58334  0.10854  1.0000
  H   H1478     1.0  0.81001  0.56983  0.08885  1.0000
  H   H1479     1.0  0.81883  0.55829  0.12472  1.0000
  H   H1480     1.0  0.75638  0.49535  0.25321  1.0000
  H   H1481     1.0  0.82007  0.52618  0.14927  1.0000
  H   H1482     1.0  0.76922  0.51465  0.46746  1.0000
  S   S244      1.0  0.87601  0.50382  0.22623  1.0000
  H   H1483     1.0  0.59997  0.70824  0.24519  1.0000
  C   C867      1.0  0.53641  0.72080  0.28607  1.0000
  H   H1484     1.0  0.56436  0.65330  0.22916  1.0000
  H   H1485     1.0  0.50286  0.67497  0.31582  1.0000
  H   H1486     1.0  0.57615  0.71253  0.24762  1.0000
  H   H1487     1.0  0.58453  0.69084  0.08770  1.0000
  H   H1488     1.0  0.55218  0.72823  0.27804  1.0000
  C   C868      1.0  0.58033  0.66476  0.22787  1.0000
  H   H1489     1.0  0.75398  0.50013  0.18454  1.0000
  H   H1490     1.0  0.58030  0.72202  0.18060  1.0000
  N   N63       1.0  0.57369  0.68933  0.18100  1.0000
  C   C869      1.0  0.57021  0.68848  0.14025  1.0000
  C   C870      1.0  0.50353  0.69346  0.48917  1.0000
  S   S245      1.0  0.91196  0.56490  0.01810  1.0000
  H   H1491     1.0  0.56890  0.73059  0.33970  1.0000
  H   H1492     1.0  0.81536  0.52079  0.10168  1.0000
  H   H1493     1.0  0.62508  0.57396  0.07314  1.0000
  H   H1494     1.0  0.49455  0.68582  0.46426  1.0000
  H   H1495     1.0  0.83967  0.50751  0.06716  1.0000
  H   H1496     1.0  0.50685  0.72583  0.37940  1.0000
  Fe  Fe118     1.0  0.89922  0.53040  0.01199  1.0000
  H   H1497     1.0  0.69619  0.60757  0.00998  1.0000
  H   H1498     1.0  0.57857  0.72992  0.02650  1.0000
  H   H1499     1.0  0.64689  0.58801  0.04539  1.0000
  S   S246      1.0  0.61380  0.67470  0.02456  1.0000
  H   H1500     1.0  0.58182  0.72891  0.38177  1.0000
  C   C871      1.0  0.52346  0.73177  0.28559  1.0000
  H   H1501     1.0  0.59953  0.73292  0.23701  1.0000
  C   C872      1.0  0.53304  0.60901  0.48138  1.0000
  Fe  Fe119     1.0  0.49614  0.61208  0.29718  1.0000
  H   H1502     1.0  0.68624  0.63756  0.02127  1.0000
  H   H1503     1.0  0.69097  0.49869  0.22514  1.0000
  H   H1504     1.0  0.50740  0.56562  0.15996  1.0000
  C   C873      1.0  0.82694  0.52340  0.12376  1.0000
  H   H1505     1.0  0.55181  0.74281  0.04331  1.0000
  C   C874      1.0  0.49564  0.70181  0.30692  1.0000
  C   C875      1.0  0.68728  0.49532  0.19649  1.0000
  H   H1506     1.0  0.49886  0.53570  0.12538  1.0000
  C   C876      1.0  0.74337  0.49785  0.23966  1.0000
  C   C877      1.0  0.54003  0.74035  0.37962  1.0000
  C   C878      1.0  0.49260  0.54632  0.22773  1.0000
  C   C879      1.0  0.58077  0.73937  0.36030  1.0000
  C   C880      1.0  0.56270  0.74249  0.43356  1.0000
  H   H1507     1.0  0.64071  0.50140  0.45635  1.0000
  C   C881      1.0  0.49070  0.57906  0.21212  1.0000
  H   H1508     1.0  0.82230  0.50066  0.37286  1.0000
  H   H1509     1.0  0.82420  0.49820  0.42069  1.0000
  C   C882      1.0  0.70807  0.49640  0.46935  1.0000
  H   H1510     1.0  0.80015  0.49679  0.39935  1.0000
  H   H1511     1.0  0.50578  0.70985  0.48723  1.0000
  Fe  Fe120     1.0  0.53668  0.63190  0.68665  1.0000
  C   C883      1.0  0.88801  0.50548  0.83725  1.0000
  S   S247      1.0  0.56461  0.64392  0.72483  1.0000
  Fe  Fe121     1.0  0.51982  0.63371  0.60930  1.0000
  H   H1512     1.0  0.53961  0.57997  0.69739  1.0000
  S   S248      1.0  0.52334  0.64860  0.55411  1.0000
  H   H1513     1.0  0.80540  0.52046  0.71177  1.0000
  H   H1514     1.0  0.55172  0.55447  0.70199  1.0000
  H   H1515     1.0  0.93077  0.55617  0.85558  1.0000
  S   S249      1.0  0.52533  0.65412  0.65958  1.0000
  S   S250      1.0  0.53449  0.61351  0.63466  1.0000
  C   C884      1.0  0.65105  0.59131  0.96189  1.0000
  S   S251      1.0  0.87688  0.52863  0.96631  1.0000
  C   C885      1.0  0.52598  0.71327  0.60426  1.0000
  C   C886      1.0  0.52615  0.63608  0.51365  1.0000
  Fe  Fe122     1.0  0.58355  0.64346  0.93921  1.0000
  S   S252      1.0  0.61538  0.66773  0.93572  1.0000
  S   S253      1.0  0.56124  0.62525  0.89376  1.0000
  H   H1516     1.0  0.68954  0.50082  0.53481  1.0000
  H   H1517     1.0  0.74366  0.59229  0.89437  1.0000
  H   H1518     1.0  0.70255  0.50328  0.57737  1.0000
  S   S254      1.0  0.57265  0.66332  0.97413  1.0000
  C   C887      1.0  0.52008  0.69667  0.80727  1.0000
  Fe  Fe123     1.0  0.90240  0.53193  0.92799  1.0000
  S   S255      1.0  0.91483  0.56663  0.92884  1.0000
  H   H1519     1.0  0.53132  0.61127  0.53987  1.0000
  Fe  Fe124     1.0  0.70758  0.51579  0.95837  1.0000
  S   S256      1.0  0.72015  0.54854  0.94096  1.0000
  H   H1520     1.0  0.52334  0.72784  0.60594  1.0000
  H   H1521     1.0  0.70746  0.61460  0.93133  1.0000
  S   S257      1.0  0.92377  0.53085  0.97342  1.0000
  N   N64       1.0  0.51746  0.67471  0.79874  1.0000
  H   H1522     1.0  0.57609  0.53848  0.73486  1.0000
  H   H1523     1.0  0.70516  0.57846  0.91083  1.0000
  S   S258      1.0  0.90101  0.51000  0.88034  1.0000
  Fe  Fe125     1.0  0.62197  0.65305  0.98663  1.0000
  H   H1524     1.0  0.51799  0.55163  0.74059  1.0000
  H   H1525     1.0  0.98410  0.54079  0.79002  1.0000
  C   C888      1.0  0.83860  0.59558  0.97979  1.0000
  H   H1526     1.0  0.81400  0.51558  0.66944  1.0000
  H   H1527     1.0  0.56867  0.60572  0.67717  1.0000
  H   H1528     1.0  0.54351  0.69898  0.73054  1.0000
  H   H1529     1.0  0.72244  0.63260  0.89934  1.0000
  H   H1530     1.0  0.77782  0.61547  0.94864  1.0000
  S   S259      1.0  0.77657  0.57608  0.98434  1.0000
  H   H1531     1.0  0.58488  0.55667  0.70024  1.0000
  H   H1532     1.0  0.78282  0.50598  0.75094  1.0000
  H   H1533     1.0  0.71131  0.57595  0.86468  1.0000
  C   C889      1.0  0.80169  0.57540  0.98096  1.0000
  H   H1534     1.0  0.57942  0.61143  0.74049  1.0000
  H   H1535     1.0  0.55475  0.67126  0.86039  1.0000
  Fe  Fe126     1.0  0.89029  0.56301  0.97069  1.0000
  H   H1536     1.0  0.51923  0.66748  0.85537  1.0000
  H   H1537     1.0  0.53641  0.70709  0.80989  1.0000
  Fe  Fe127     1.0  0.50252  0.59468  0.65255  1.0000
  H   H1538     1.0  0.54245  0.59842  0.73251  1.0000
  H   H1539     1.0  0.82540  0.50418  0.80804  1.0000
  H   H1540     1.0  0.54598  0.56847  0.79431  1.0000
  H   H1541     1.0  0.80118  0.50646  0.80286  1.0000
  H   H1542     1.0  0.55614  0.68192  0.73797  1.0000
  H   H1543     1.0  0.96155  0.59961  0.85827  1.0000
  C   C890      1.0  0.87857  0.51831  0.82384  1.0000
  H   H1544     1.0  0.52278  0.68798  0.56752  1.0000
  S   S260      1.0  0.48997  0.56001  0.64957  1.0000
  C   C891      1.0  0.84303  0.57786  0.97562  1.0000
  C   C892      1.0  0.57814  0.57977  0.80455  1.0000
  H   H1545     1.0  0.87841  0.53109  0.84047  1.0000
  H   H1546     1.0  0.67007  0.51405  0.81555  1.0000
  C   C893      1.0  0.81831  0.59437  0.98234  1.0000
  H   H1547     1.0  0.63099  0.60820  0.95710  1.0000
  H   H1548     1.0  0.57645  0.58283  0.83383  1.0000
  C   C894      1.0  0.56313  0.63985  0.77228  1.0000
  C   C895      1.0  0.58096  0.64861  0.79433  1.0000
  C   C896      1.0  0.58055  0.64487  0.83189  1.0000
  C   C897      1.0  0.56234  0.63199  0.84755  1.0000
  C   C898      1.0  0.54450  0.62333  0.82553  1.0000
  C   C899      1.0  0.54480  0.62747  0.78823  1.0000
  H   H1549     1.0  0.59523  0.65822  0.78229  1.0000
  H   H1550     1.0  0.59441  0.65155  0.84856  1.0000
  H   H1551     1.0  0.53037  0.61330  0.83745  1.0000
  H   H1552     1.0  0.53092  0.62067  0.77183  1.0000
  H   H1553     1.0  0.96479  0.51988  0.92029  1.0000
  C   C900      1.0  0.97909  0.53790  0.81857  1.0000
  H   H1554     1.0  0.94776  0.57185  0.82310  1.0000
  C   C901      1.0  0.49465  0.66198  0.79786  1.0000
  C   C902      1.0  0.52019  0.56809  0.74233  1.0000
  Fe  Fe128     1.0  0.93556  0.56562  0.97604  1.0000
  H   H1555     1.0  0.93021  0.52461  0.81811  1.0000
  H   H1556     1.0  0.76118  0.64079  0.89783  1.0000
  H   H1557     1.0  0.50421  0.71610  0.67778  1.0000
  C   C903      1.0  0.96855  0.57529  0.88585  1.0000
  H   H1558     1.0  0.51367  0.69779  0.83437  1.0000
  Fe  Fe129     1.0  0.74297  0.55376  0.98760  1.0000
  H   H1559     1.0  0.72521  0.63844  0.98289  1.0000
  H   H1560     1.0  0.71363  0.64932  0.95078  1.0000
  C   C904      1.0  0.80584  0.55735  0.97695  1.0000
  H   H1561     1.0  0.98632  0.59882  0.84685  1.0000
  C   C905      1.0  0.86965  0.51481  0.78847  1.0000
  H   H1562     1.0  0.59299  0.59517  0.73759  1.0000
  H   H1563     1.0  0.51475  0.67081  0.74019  1.0000
  C   C906      1.0  0.51871  0.70179  0.56746  1.0000
  H   H1564     1.0  0.54806  0.54603  0.74751  1.0000
  H   H1565     1.0  0.55596  0.69893  0.77390  1.0000
  H   H1566     1.0  0.51871  0.70341  0.62725  1.0000
  C   C907      1.0  0.57907  0.55474  0.72837  1.0000
  N   N65       1.0  0.55981  0.57916  0.74232  1.0000
  H   H1567     1.0  0.95623  0.57413  0.90527  1.0000
  H   H1568     1.0  0.76417  0.64419  0.94506  1.0000
  H   H1569     1.0  0.55912  0.67585  0.81346  1.0000
  C   C908      1.0  0.66945  0.59084  0.97668  1.0000
  H   H1570     1.0  0.77656  0.61381  0.89944  1.0000
  H   H1571     1.0  0.82942  0.51677  0.70948  1.0000
  C   C909      1.0  0.97091  0.53561  0.90916  1.0000
  H   H1572     1.0  0.79254  0.63700  0.92252  1.0000
  H   H1573     1.0  0.94601  0.54253  0.78536  1.0000
  C   C910      1.0  0.55962  0.58087  0.78325  1.0000
  C   C911      1.0  0.73444  0.60213  0.89341  1.0000
  H   H1574     1.0  0.81550  0.60842  0.98539  1.0000
  C   C912      1.0  0.73657  0.60315  0.95991  1.0000
  C   C913      1.0  0.53009  0.61803  0.51418  1.0000
  C   C914      1.0  0.81340  0.51151  0.69856  1.0000
  C   C915      1.0  0.68502  0.50461  0.85939  1.0000
  C   C916      1.0  0.52607  0.67202  0.76252  1.0000
  C   C917      1.0  0.65784  0.62504  0.99007  1.0000
  H   H1575     1.0  0.72016  0.59338  0.96400  1.0000
  H   H1576     1.0  0.74409  0.59195  0.95553  1.0000
  H   H1577     1.0  0.98102  0.56925  0.81425  1.0000
  H   H1578     1.0  0.98503  0.62443  0.96309  1.0000
  S   S261      1.0  0.68457  0.52019  0.99633  1.0000
  H   H1579     1.0  0.55478  0.69475  0.84331  1.0000
  H   H1580     1.0  0.94173  0.53804  0.90044  1.0000
  H   H1581     1.0  0.82954  0.54471  0.97082  1.0000
  H   H1582     1.0  0.57848  0.56414  0.80269  1.0000
  H   H1583     1.0  0.52864  0.71181  0.54655  1.0000
  H   H1584     1.0  0.51817  0.57255  0.77065  1.0000
  H   H1585     1.0  0.50167  0.67960  0.67413  1.0000
  C   C918      1.0  0.82648  0.55858  0.97415  1.0000
  S   S262      1.0  0.86963  0.58155  0.97422  1.0000
  C   C919      1.0  0.54106  0.58229  0.72749  1.0000
  S   S263      1.0  0.97152  0.58013  0.97981  1.0000
  S   S264      1.0  0.67568  0.56884  0.96742  1.0000
  C   C920      1.0  0.54646  0.68915  0.75145  1.0000
  H   H1586     1.0  0.73914  0.61126  0.86830  1.0000
  C   C921      1.0  0.95456  0.53800  0.88321  1.0000
  S   S265      1.0  0.59050  0.62774  0.98786  1.0000
  C   C922      1.0  0.93504  0.54036  0.80764  1.0000
  H   H1587     1.0  0.50492  0.72690  0.53678  1.0000
  C   C923      1.0  0.94372  0.55717  0.83762  1.0000
  H   H1588     1.0  0.59296  0.59164  0.79665  1.0000
  H   H1589     1.0  0.57587  0.58364  0.67244  1.0000
  C   C924      1.0  0.71193  0.58729  0.88655  1.0000
  Fe  Fe130     1.0  0.49429  0.63243  0.67538  1.0000
  H   H1590     1.0  0.50761  0.56977  0.72576  1.0000
  N   N66       1.0  0.96173  0.55683  0.86005  1.0000
  C   C925      1.0  0.74532  0.61436  0.99669  1.0000
  Fe  Fe131     1.0  0.60471  0.68721  0.97385  1.0000
  C   C926      1.0  0.72007  0.49854  0.53272  1.0000
  C   C927      1.0  0.55859  0.55810  0.73002  1.0000
  C   C928      1.0  0.86984  0.49836  0.76626  1.0000
  C   C929      1.0  0.52695  0.66701  0.82934  1.0000
  H   H1591     1.0  0.59134  0.56435  0.74749  1.0000
  C   C930      1.0  0.55021  0.67819  0.83646  1.0000
  C   C931      1.0  0.76010  0.63216  0.92336  1.0000
  H   H1592     1.0  0.52837  0.65719  0.76127  1.0000
  C   C932      1.0  0.57934  0.59856  0.68698  1.0000
  H   H1593     1.0  0.52465  0.65066  0.82444  1.0000
  H   H1594     1.0  0.97416  0.54643  0.93289  1.0000
  Fe  Fe132     1.0  0.69866  0.55367  0.98151  1.0000
  N   N67       1.0  0.73870  0.61614  0.92684  1.0000
  H   H1595     1.0  0.92102  0.54157  0.79531  1.0000
  C   C933      1.0  0.72316  0.62618  0.92661  1.0000
  C   C934      1.0  0.49123  0.70387  0.68889  1.0000
  H   H1596     1.0  0.59502  0.60907  0.67960  1.0000
  C   C935      1.0  0.81348  0.50387  0.78758  1.0000
  S   S266      1.0  0.50584  0.61154  0.70596  1.0000
  H   H1597     1.0  0.86266  0.52500  0.77817  1.0000
  C   C936      1.0  0.64520  0.60817  0.96869  1.0000
  C   C937      1.0  0.67829  0.50439  0.82301  1.0000
  C   C938      1.0  0.77751  0.62385  0.92352  1.0000
  H   H1598     1.0  0.74075  0.65721  0.95082  1.0000
  H   H1599     1.0  0.64114  0.57846  0.94512  1.0000
  C   C939      1.0  0.72633  0.64373  0.95462  1.0000
  H   H1600     1.0  0.79321  0.54255  0.97562  1.0000
  C   C940      1.0  0.57844  0.59639  0.72861  1.0000
  H   H1601     1.0  0.50114  0.66716  0.60764  1.0000
  S   S267      1.0  0.60019  0.71761  0.96450  1.0000
  H   H1602     1.0  0.68191  0.51434  0.87960  1.0000
  H   H1603     1.0  0.96400  0.52502  0.81742  1.0000
  H   H1604     1.0  0.70217  0.59556  0.87712  1.0000
  H   H1605     1.0  0.94774  0.52353  0.86691  1.0000
  H   H1606     1.0  0.55840  0.59563  0.79162  1.0000
  C   C941      1.0  0.97951  0.55821  0.83642  1.0000
  C   C942      1.0  0.48981  0.68330  0.68694  1.0000
  H   H1607     1.0  0.82084  0.51676  0.76930  1.0000
  H   H1608     1.0  0.72778  0.51549  0.53036  1.0000
  H   H1609     1.0  0.85106  0.61052  0.98106  1.0000
  H   H1610     1.0  0.54280  0.71738  0.60767  1.0000
  H   H1611     1.0  0.51427  0.70461  0.75147  1.0000
  H   H1612     1.0  0.51515  0.72321  0.78573  1.0000
  H   H1613     1.0  0.98250  0.60863  0.89002  1.0000
  C   C943      1.0  0.50997  0.70643  0.77967  1.0000
  H   H1614     1.0  0.49317  0.72362  0.57928  1.0000
  N   N68       1.0  0.49634  0.69612  0.55746  1.0000
  H   H1615     1.0  0.63722  0.49930  0.52279  1.0000
  C   C944      1.0  0.49254  0.71565  0.55259  1.0000
  H   H1616     1.0  0.49299  0.70005  0.78153  1.0000
  H   H1617     1.0  0.49132  0.63148  0.81826  1.0000
  H   H1618     1.0  0.49543  0.66925  0.52682  1.0000
  C   C945      1.0  0.97504  0.59663  0.86858  1.0000
  H   H1619     1.0  0.98198  0.57590  0.90293  1.0000
  C   C946      1.0  0.49161  0.68309  0.52303  1.0000
  H   H1620     1.0  0.49580  0.63430  0.76981  1.0000
  H   H1621     1.0  0.72977  0.49425  0.55260  1.0000
  H   H1622     1.0  0.75360  0.63115  0.99565  1.0000
  H   H1623     1.0  0.75001  0.49634  0.72125  1.0000
  H   H1624     1.0  0.98542  0.53768  0.89553  1.0000
  S   S268      1.0  0.85857  0.49491  0.72178  1.0000
  H   H1625     1.0  0.76695  0.49418  0.68740  1.0000
  C   C947      1.0  0.69940  0.49479  0.55083  1.0000
  C   C948      1.0  0.48830  0.63848  0.79313  1.0000
  H   H1626     1.0  0.91587  0.49689  0.55066  1.0000
  C   C949      1.0  0.68205  0.60763  0.99828  1.0000
  S   S269      1.0  0.65152  0.64705  0.99892  1.0000
  Fe  Fe133     1.0  0.50594  0.77083  0.29765  1.0000
  S   S270      1.0  0.53904  0.78741  0.31462  1.0000
  H   H1627     1.0  0.58893  0.79358  0.03305  1.0000
  H   H1628     1.0  0.57740  0.77373  0.16657  1.0000
  S   S271      1.0  0.53209  0.83011  0.29867  1.0000
  Fe  Fe134     1.0  0.54078  0.80733  0.26604  1.0000
  S   S272      1.0  0.56857  0.81686  0.22911  1.0000
  Fe  Fe135     1.0  0.52760  0.80859  0.34577  1.0000
  S   S273      1.0  0.53858  0.81988  0.40388  1.0000
  S   S274      1.0  0.50855  0.78856  0.24675  1.0000
  H   H1629     1.0  0.54499  0.77186  0.42970  1.0000
  H   H1630     1.0  0.58485  0.75838  0.11301  1.0000
  C   C950      1.0  0.56811  0.75389  0.04420  1.0000
  S   S275      1.0  0.56694  0.83696  0.06071  1.0000
  C   C951      1.0  0.57548  0.78028  0.14015  1.0000
  C   C952      1.0  0.57701  0.79026  0.42894  1.0000
  H   H1631     1.0  0.50060  0.75889  0.47561  1.0000
  H   H1632     1.0  0.53685  0.74584  0.46517  1.0000
  H   H1633     1.0  0.56202  0.78470  0.14285  1.0000
  H   H1634     1.0  0.59168  0.76792  0.38991  1.0000
  S   S276      1.0  0.62529  0.86021  0.02046  1.0000
  C   C953      1.0  0.57227  0.76405  0.10951  1.0000
  N   N69       1.0  0.55913  0.75359  0.40093  1.0000
  Fe  Fe136     1.0  0.49965  0.81001  0.28213  1.0000
  C   C954      1.0  0.61092  0.78986  0.06952  1.0000
  H   H1635     1.0  0.55120  0.83074  0.47839  1.0000
  C   C955      1.0  0.51145  0.77468  0.47639  1.0000
  C   C956      1.0  0.58939  0.79017  0.06236  1.0000
  H   H1636     1.0  0.61612  0.78347  0.04567  1.0000
  C   C957      1.0  0.56815  0.82378  0.18293  1.0000
  C   C958      1.0  0.58656  0.83077  0.16360  1.0000
  C   C959      1.0  0.58661  0.83514  0.12628  1.0000
  C   C960      1.0  0.56823  0.83272  0.10798  1.0000
  C   C961      1.0  0.54994  0.82617  0.12748  1.0000
  C   C962      1.0  0.54987  0.82169  0.16468  1.0000
  H   H1637     1.0  0.60079  0.83245  0.17749  1.0000
  H   H1638     1.0  0.60080  0.84012  0.11166  1.0000
  H   H1639     1.0  0.53564  0.82428  0.11363  1.0000
  H   H1640     1.0  0.53560  0.81640  0.17915  1.0000
  C   C963      1.0  0.51590  0.78585  0.44401  1.0000
  C   C964      1.0  0.53061  0.80597  0.44438  1.0000
  C   C965      1.0  0.53987  0.81515  0.47777  1.0000
  H   H1641     1.0  0.50847  0.77873  0.41856  1.0000
  C   C966      1.0  0.55760  0.77385  0.41098  1.0000
  H   H1642     1.0  0.54241  0.76866  0.01125  1.0000
  C   C967      1.0  0.54634  0.78177  0.03097  1.0000
  H   H1643     1.0  0.62203  0.80591  0.07447  1.0000
  C   C968      1.0  0.55218  0.77654  0.06907  1.0000
  N   N70       1.0  0.60072  0.90558  0.09200  1.0000
  C   C969      1.0  0.58912  0.91039  0.06079  1.0000
  C   C970      1.0  0.61575  0.92591  0.10713  1.0000
  C   C971      1.0  0.58535  0.89489  0.12049  1.0000
  C   C972      1.0  0.61109  0.89180  0.07778  1.0000
  H   H1644     1.0  0.58377  0.78395  0.45072  1.0000
  C   C973      1.0  0.63153  0.93918  0.07995  1.0000
  C   C974      1.0  0.59387  0.88958  0.15603  1.0000
  C   C975      1.0  0.62979  0.89130  0.10003  1.0000
  H   H1645     1.0  0.58368  0.92280  0.06878  1.0000
  H   H1646     1.0  0.59933  0.91640  0.03731  1.0000
  H   H1647     1.0  0.62464  0.92411  0.13094  1.0000
  H   H1648     1.0  0.60737  0.93538  0.11780  1.0000
  H   H1649     1.0  0.57627  0.90430  0.12799  1.0000
  H   H1650     1.0  0.57406  0.87986  0.10972  1.0000
  H   H1651     1.0  0.59982  0.87570  0.07454  1.0000
  H   H1652     1.0  0.61676  0.89637  0.04994  1.0000
  H   H1653     1.0  0.57524  0.76723  0.35222  1.0000
  H   H1654     1.0  0.58874  0.79769  0.40842  1.0000
  H   H1655     1.0  0.55401  0.79012  0.08679  1.0000
  H   H1656     1.0  0.62424  0.94585  0.05952  1.0000
  H   H1657     1.0  0.64346  0.95231  0.09480  1.0000
  H   H1658     1.0  0.63953  0.93046  0.06568  1.0000
  H   H1659     1.0  0.58089  0.88250  0.17461  1.0000
  H   H1660     1.0  0.60500  0.90327  0.17068  1.0000
  H   H1661     1.0  0.60049  0.87779  0.15130  1.0000
  H   H1662     1.0  0.62878  0.87516  0.10110  1.0000
  H   H1663     1.0  0.63126  0.89696  0.12847  1.0000
  H   H1664     1.0  0.64427  0.89983  0.08586  1.0000
  H   H1665     1.0  0.58891  0.80422  0.07609  1.0000
  N   N71       1.0  0.57104  0.77119  0.07142  1.0000
  H   H1666     1.0  0.58956  0.79415  0.13639  1.0000
  Fe  Fe137     1.0  0.59085  0.84639  0.01608  1.0000
  H   H1667     1.0  0.57348  0.87831  0.04059  1.0000
  H   H1668     1.0  0.53251  0.78570  0.03314  1.0000
  H   H1669     1.0  0.61224  0.78160  0.09404  1.0000
  H   H1670     1.0  0.53846  0.76371  0.07908  1.0000
  H   H1671     1.0  0.55363  0.78091  0.38661  1.0000
  H   H1672     1.0  0.57289  0.80267  0.44135  1.0000
  H   H1673     1.0  0.55692  0.88867  0.06362  1.0000
  C   C976      1.0  0.57701  0.75818  0.37579  1.0000
  H   H1674     1.0  0.55854  0.79550  0.02012  1.0000
  H   H1675     1.0  0.57125  0.75992  0.01622  1.0000
  H   H1676     1.0  0.56196  0.75664  0.48717  1.0000
  C   C977      1.0  0.57018  0.89230  0.04539  1.0000
  H   H1677     1.0  0.57939  0.74865  0.44107  1.0000
  H   H1678     1.0  0.56538  0.89656  0.01883  1.0000
  H   H1679     1.0  0.51641  0.74750  0.40958  1.0000
  S   S277      1.0  0.49444  0.79074  0.33172  1.0000
  H   H1680     1.0  0.48866  0.82988  0.47739  1.0000
  H   H1681     1.0  0.55803  0.75055  0.11535  1.0000
  H   H1682     1.0  0.52922  0.74753  0.27692  1.0000
  H   H1683     1.0  0.53844  0.74825  0.35443  1.0000
  H   H1684     1.0  0.49831  0.81100  0.49042  1.0000
  H   H1685     1.0  0.59762  0.74973  0.05270  1.0000
  H   H1686     1.0  0.59562  0.74482  0.34608  1.0000
  H   H1687     1.0  0.55997  0.77248  0.88175  1.0000
  S   S278      1.0  0.52813  0.76919  0.65772  1.0000
  H   H1688     1.0  0.63285  0.78520  0.82805  1.0000
  C   C978      1.0  0.60152  0.79746  0.77292  1.0000
  S   S279      1.0  0.52378  0.81176  0.63010  1.0000
  Fe  Fe138     1.0  0.51554  0.77953  0.60797  1.0000
  S   S280      1.0  0.51612  0.76858  0.54911  1.0000
  Fe  Fe139     1.0  0.53369  0.80073  0.68199  1.0000
  S   S281      1.0  0.56314  0.81932  0.71446  1.0000
  H   H1689     1.0  0.65824  0.96509  0.86649  1.0000
  S   S282      1.0  0.50273  0.79153  0.70677  1.0000
  Fe  Fe140     1.0  0.59108  0.84612  0.93139  1.0000
  S   S283      1.0  0.62567  0.86029  0.93048  1.0000
  S   S284      1.0  0.56624  0.83171  0.88731  1.0000
  Fe  Fe141     1.0  0.62407  0.88197  0.97621  1.0000
  H   H1690     1.0  0.62836  0.75943  0.86880  1.0000
  C   C979      1.0  0.61830  0.81036  0.87375  1.0000
  H   H1691     1.0  0.57828  0.77285  0.82763  1.0000
  S   S285      1.0  0.58928  0.86862  0.97402  1.0000
  C   C980      1.0  0.64921  0.97459  0.87334  1.0000
  C   C981      1.0  0.68845  0.98277  0.97469  1.0000
  C   C982      1.0  0.61680  0.77905  0.83785  1.0000
  H   H1692     1.0  0.61452  0.80276  0.90027  1.0000
  N   N72       1.0  0.60844  0.79579  0.84212  1.0000
  C   C983      1.0  0.60010  0.75658  0.96397  1.0000
  C   C984      1.0  0.58536  0.78673  0.84569  1.0000
  C   C985      1.0  0.56353  0.82354  0.76235  1.0000
  C   C986      1.0  0.58150  0.83745  0.77992  1.0000
  C   C987      1.0  0.58256  0.84053  0.81808  1.0000
  C   C988      1.0  0.56566  0.82965  0.83907  1.0000
  C   C989      1.0  0.54767  0.81592  0.82145  1.0000
  C   C990      1.0  0.54662  0.81284  0.78341  1.0000
  H   H1693     1.0  0.59465  0.84587  0.76388  1.0000
  H   H1694     1.0  0.59644  0.85127  0.83121  1.0000
  H   H1695     1.0  0.53448  0.80744  0.83737  1.0000
  H   H1696     1.0  0.53273  0.80203  0.77046  1.0000
  S   S286      1.0  0.63598  0.91773  0.98434  1.0000
  H   H1697     1.0  0.64930  0.80940  0.87348  1.0000
  C   C991      1.0  0.61332  0.80830  0.80804  1.0000
  H   H1698     1.0  0.61201  0.82273  0.87515  1.0000
  H   H1699     1.0  0.54256  0.81135  0.53566  1.0000
  C   C992      1.0  0.57689  0.78079  0.88401  1.0000
  H   H1700     1.0  0.60456  0.78356  0.76547  1.0000
  C   C993      1.0  0.64191  0.82080  0.87358  1.0000
  H   H1701     1.0  0.57958  0.79471  0.90135  1.0000
  Fe  Fe142     1.0  0.62393  0.83764  0.97486  1.0000
  H   H1702     1.0  0.64734  0.83141  0.85067  1.0000
  C   C994      1.0  0.65654  0.94255  0.97967  1.0000
  H   H1703     1.0  0.49220  0.79647  0.54767  1.0000
  C   C995      1.0  0.53497  0.80420  0.51032  1.0000
  C   C996      1.0  0.66880  0.98045  0.98617  1.0000
  C   C997      1.0  0.69186  0.96476  0.96555  1.0000
  C   C998      1.0  0.63318  0.75516  0.97758  1.0000
  C   C999      1.0  0.62968  0.78860  0.97456  1.0000
  H   H1704     1.0  0.51685  0.85338  0.56498  1.0000
  H   H1705     1.0  0.62025  0.77492  0.89692  1.0000
  S   S287      1.0  0.64128  0.81599  0.97714  1.0000
  C   C1000     1.0  0.61627  0.76591  0.87118  1.0000
  H   H1706     1.0  0.60669  0.80822  0.75005  1.0000
  Fe  Fe143     1.0  0.49658  0.76076  0.67997  1.0000
  H   H1707     1.0  0.63295  0.96449  0.86719  1.0000
  H   H1708     1.0  0.58392  0.74879  0.95730  1.0000
  H   H1709     1.0  0.64276  0.74640  0.98164  1.0000
  H   H1710     1.0  0.59904  0.78686  0.96282  1.0000
  H   H1711     1.0  0.64731  0.83032  0.89891  1.0000
  C   C1001     1.0  0.52099  0.78378  0.50969  1.0000
  H   H1712     1.0  0.62992  0.81351  0.80186  1.0000
  H   H1713     1.0  0.63806  0.95919  0.99751  1.0000
  H   H1714     1.0  0.57859  0.79783  0.83640  1.0000
  C   C1002     1.0  0.60866  0.77823  0.96706  1.0000
  H   H1715     1.0  0.61036  0.82266  0.81185  1.0000
  H   H1716     1.0  0.58473  0.79348  0.77462  1.0000
  H   H1717     1.0  0.70689  0.96615  0.95664  1.0000
  S   S288      1.0  0.58979  0.82291  0.97338  1.0000
  H   H1718     1.0  0.67926  0.93137  0.96095  1.0000
  H   H1719     1.0  0.58328  0.77062  0.89773  1.0000
  C   C1003     1.0  0.65307  0.96058  0.98857  1.0000
  C   C1004     1.0  0.67613  0.94489  0.96794  1.0000
  H   H1720     1.0  0.60819  0.76791  0.81588  1.0000
  H   H1721     1.0  0.65036  0.97776  0.90296  1.0000
  H   H1722     1.0  0.66155  0.98938  0.82393  1.0000
  C   C1005     1.0  0.64185  0.77691  0.97990  1.0000
  H   H1723     1.0  0.51703  0.84318  0.52033  1.0000
  H   H1724     1.0  0.65813  0.78472  0.98582  1.0000
  H   H1725     1.0  0.60120  0.75294  0.87319  1.0000
  H   H1726     1.0  0.51479  0.82747  0.55972  1.0000
  H   H1727     1.0  0.66579  0.99395  0.99374  1.0000
  C   C1006     1.0  0.65523  0.99368  0.84896  1.0000
  Fe  Fe144     1.0  0.49222  0.79958  0.65359  1.0000
  C   C1007     1.0  0.51007  0.83930  0.54741  1.0000
  H   H1728     1.0  0.69227  0.98842  0.85100  1.0000
  C   C1008     1.0  0.61224  0.74487  0.96927  1.0000
