data_image0
_chemical_formula_structural       H6CHSH2SCHSHCS2CHC6H4C6H4SHC3H2C6H4C6H2CHCSH3CH7NH2SFeH2CH2CHFeHFeCHFeHCH2SHSH3SHSH3C2HFeCS2CHFeNC8H22SCSHCH3CHSHC2HCH4CHCHSH2FeH3CS2HCSH3S2C5NH2CSC6H4SH2C3H2SH3SCS2C4HC3HCH3C7H4SH4CH2SHFeH2CSH3NCH2C2HCHCFeH3NHCHCH2FeH2CH3C2H4SH9C2HCSHCH2FeCH3SH3CH2C3FeH6CHSHCH2FeHCH5CH2C2H4C2HS2CH4SHSH2SCHSH2CH2SC6H4C6H3C2SH3FeSHC6H4C6H4SHNCH2C2H5C2H2CH2CSCHCH3CNHC2HCHFeSHCHFe2HSH7SC3SH2CH3CFeSCHCH4CH7CHC2HC2SHCH2CNHCS2CHCH6CH2FeCH2CHCHCH2CHCHCH5C3H4FeH2FeS2Fe2SH2CSH3FeS2HFeSHSCFeS2H2S2HFeHSHSFeSFeS2C7H5C3SH3C6H4C6H4C6H11C2FeHCNFeCHSCNC4HCH10CHCH3C2H2SH4CH8FeSHC2H4CSH2SCNH3CHFeHC3HC2H2CHCH4NC8H18CHCHSC2SH3SH4C2HCHFeC2H2NH3NH3C2H3NHC2FeCFeH9CHSH2CHCFeSHFeS2HFeS3FeH2SHFeSHFeS3HC6HCH2SC6H4C3H3FeS2HFeHSHFeSCSHSFeHSFeSCHC4H4C6H4NHC3H2CH2CH2C2H2CH2CH3NSCH4CNH3CHCHNH9SHCH4CFeH2C3FeHCH8FeH2CH10NC8HCH2SH5CH4CHNHCHC2H5C2H5NHCH5C3H5C2H2C4HCH4NHCH2CH2CHFeC2H2CHFeS2HFeS2HSHFeSH2FeS2HFeSFeSHFeS2HFeSH2SHFeSCSFeS2FeS2C6H4C6H4C6H4C6H7C3H5CHCH6NC3H4CH5CHCSH7CHSH4CH3CH3NH4CH6CHCH6C3HCHCH3CH2CHNCHCHCH7SCH7C3H4CNC9H3CH2SH3CH3C2SHC2H2CHFeHC2H2CFeH2NHCHCSHFeCSH2FeSCHFeS2H2FeHSCFeS2HFeSHSCH2SFeS2CFeSHSCFeS2FeS2C6H4C2HCH2CNC6H4CHCH2C6H4C6H4CH2CH2NHCNH3SHCH2CHC2NC3H4CH2CH6C3H4CH7CFeHSHC2H3C2SH2SC2H3CFeCH2CHNH2CHCHSH6CHC2H6CH2N2C2HCH2C2H2CH4CH2C3H4CHC3H2CH2CNH4CHCHFeH2CFeH8C2H3C2FeH2SHCNH6SH9SH2CFeS2FeS2HFe2SFeS2FeCSNC4H2C6H2CHC6H4FeSCHFeSHSFeSH2FeSCSCS2FeSC6H4C3H2C4SC3H8CHCNCHCH2SHCFeCHNC2H3C2H2CH3C2H9CH3C2H3CH2CHCHC2H2CH2CHNH8CH2CHCH5CHNC8H23C2HCSH5CH2CHCHCH3C2SNH2FeH10NH5C2H4CH5CHCNH2C2SHCNH4NH5SHC2H4CFeHC2H13FeS2H2FeSNSHCFeS2HFeS2FeSHFeSCSFeHSHFeHSFeSHFeS2FeS2C6H4C6H4SH4C6H4C2SHCH3C6H4C2H5NC3HCH6CH5NH2CH4FeCH3C5HC2H2NH3CH2CH2CH2CHCH2C3HC5H4CH5CHSC2SCH7CHNHC3HC3H4CH3C2H7CH6CH3CSHCH5CNCHC2HNH2C3H2CH3CH3NCNH2FeH2SH4CH3SH3CH2CHFeHS2H2SHS2C2S2HSH4FeH2SHFeC2H2C6H4C6H5CHSC3H4C6H4C4FeC3FeHCH2CSH2C3H4CSH2CH3CSH2CH5C2HC3FeCH5SNC8H15CH4SHCH3C2H3SHCHCH4CH2CH4NHFeSHSH2SFeSC3H2C6H4C6H2CH2SHCHFeSFeS2C3H3CHC4SH3C6H2C2HFeH9CHCH2CHCH3CH2NCH4SC3S2CH11C2HSCHCH7CHC3H3CHCH3CH5SH2NCHFeHC3H4CH3SH2SCSFeH6NHSHS2H2SCHSHCSH2CHS2HSHCHCH2C6H4C6H5C3HCH3C6H4C4H6SC2HCSCSC3HCNH2SHC2NH2SH3FeHCH2FeCHFe2H3CSHSHCH2CH3FeH3C3H5FeCH8C2H3C2H2NHFe2HFeHSCH5CH4CH5CSH3C2H2CH6C
_chemical_formula_sum              "H1536 C896 S256 N64 Fe128"
_cell_length_a       32.0843
_cell_length_b       31.7718
_cell_length_c       46.7073
_cell_angle_alpha    89.9833
_cell_angle_beta     91.5609
_cell_angle_gamma    90.2461

_space_group_name_H-M_alt    "P 1"
_space_group_IT_number       1

loop_
  _space_group_symop_operation_xyz
  'x, y, z'

loop_
  _atom_site_type_symbol
  _atom_site_label
  _atom_site_symmetry_multiplicity
  _atom_site_fract_x
  _atom_site_fract_y
  _atom_site_fract_z
  _atom_site_occupancy
  H   H1        1.0  0.26896  0.34022  0.30078  1.0000
  H   H2        1.0  0.31748  0.12375  0.32194  1.0000
  H   H3        1.0  0.24550  0.47950  0.17165  1.0000
  H   H4        1.0  0.08497  0.50206  0.08704  1.0000
  H   H5        1.0  0.23798  0.40916  0.30213  1.0000
  H   H6        1.0  0.28400  0.13272  0.99959  1.0000
  C   C1        1.0  0.23907  0.39360  0.28087  1.0000
  H   H7        1.0  0.10078  0.05894  0.02003  1.0000
  S   S1        1.0  0.46956  0.34617  0.09806  1.0000
  H   H8        1.0  0.21077  0.40218  0.26811  1.0000
  H   H9        1.0  0.12070  0.19288  0.02808  1.0000
  S   S2        1.0  0.22429  0.44742  0.03178  1.0000
  C   C2        1.0  0.23752  0.50348  0.18789  1.0000
  H   H10       1.0  0.16870  0.13734  0.04601  1.0000
  S   S3        1.0  0.19933  0.49664  0.28915  1.0000
  H   H11       1.0  0.25969  0.07960  0.31404  1.0000
  C   C3        1.0  0.13351  0.17072  0.01323  1.0000
  S   S4        1.0  0.23834  0.12542  0.26579  1.0000
  S   S5        1.0  0.37449  0.08622  0.15938  1.0000
  C   C4        1.0  0.16097  0.13934  0.02335  1.0000
  H   H12       1.0  0.10890  0.34610  0.02505  1.0000
  C   C5        1.0  0.44166  0.39134  0.10800  1.0000
  C   C6        1.0  0.45074  0.41249  0.13371  1.0000
  C   C7        1.0  0.42782  0.44837  0.14103  1.0000
  C   C8        1.0  0.39593  0.46345  0.12267  1.0000
  C   C9        1.0  0.38657  0.44198  0.09715  1.0000
  C   C10       1.0  0.40939  0.40606  0.08985  1.0000
  H   H13       1.0  0.47539  0.40137  0.14794  1.0000
  H   H14       1.0  0.43472  0.46454  0.16100  1.0000
  H   H15       1.0  0.36181  0.45310  0.08297  1.0000
  H   H16       1.0  0.40207  0.38979  0.06998  1.0000
  C   C11       1.0  0.40960  0.12503  0.17221  1.0000
  C   C12       1.0  0.43512  0.14582  0.15276  1.0000
  C   C13       1.0  0.46434  0.17607  0.16238  1.0000
  C   C14       1.0  0.46888  0.18500  0.19161  1.0000
  C   C15       1.0  0.44335  0.16420  0.21104  1.0000
  C   C16       1.0  0.41349  0.13462  0.20136  1.0000
  H   H17       1.0  0.43230  0.13840  0.13017  1.0000
  H   H18       1.0  0.48407  0.19146  0.14723  1.0000
  H   H19       1.0  0.44685  0.17081  0.23373  1.0000
  H   H20       1.0  0.39400  0.11882  0.21654  1.0000
  S   S6        1.0  0.31563  0.52340  0.05362  1.0000
  H   H21       1.0  0.08204  0.19794  0.12033  1.0000
  C   C17       1.0  0.15699  0.46613  0.30095  1.0000
  C   C18       1.0  0.13341  0.44279  0.28075  1.0000
  C   C19       1.0  0.10053  0.41677  0.28939  1.0000
  H   H22       1.0  0.14055  0.44490  0.25829  1.0000
  H   H23       1.0  0.08255  0.39915  0.27359  1.0000
  C   C20       1.0  0.13240  0.21233  0.23595  1.0000
  C   C21       1.0  0.15999  0.19592  0.21610  1.0000
  C   C22       1.0  0.19152  0.16787  0.22490  1.0000
  C   C23       1.0  0.19609  0.15659  0.25374  1.0000
  C   C24       1.0  0.16842  0.17293  0.27364  1.0000
  C   C25       1.0  0.13638  0.20047  0.26474  1.0000
  H   H24       1.0  0.15707  0.20500  0.19381  1.0000
  H   H25       1.0  0.21292  0.15587  0.20947  1.0000
  H   H26       1.0  0.17187  0.16437  0.29600  1.0000
  H   H27       1.0  0.11518  0.21285  0.28019  1.0000
  C   C26       1.0  0.10440  0.38504  0.06255  1.0000
  C   C27       1.0  0.12321  0.41766  0.07856  1.0000
  C   C28       1.0  0.15983  0.43718  0.06921  1.0000
  C   C29       1.0  0.17822  0.42372  0.04398  1.0000
  C   C30       1.0  0.15967  0.39077  0.02816  1.0000
  C   C31       1.0  0.12285  0.37151  0.03739  1.0000
  H   H28       1.0  0.10937  0.42796  0.09821  1.0000
  H   H29       1.0  0.17381  0.46260  0.08155  1.0000
  C   C32       1.0  0.50135  0.30165  0.01692  1.0000
  H   H30       1.0  0.24663  0.52701  0.00158  1.0000
  C   C33       1.0  0.17889  0.11101  0.00429  1.0000
  S   S7        1.0  0.05465  0.24573  0.04725  1.0000
  H   H31       1.0  0.25713  0.33393  0.26385  1.0000
  H   H32       1.0  0.26648  0.40691  0.26994  1.0000
  H   H33       1.0  0.03256  0.17691  0.12981  1.0000
  C   C34       1.0  0.24132  0.25194  0.27745  1.0000
  H   H34       1.0  0.50734  0.36971  0.02410  1.0000
  H   H35       1.0  0.18792  0.25780  0.30320  1.0000
  H   H36       1.0  0.24353  0.48981  0.20944  1.0000
  H   H37       1.0  0.50737  0.48755  0.15885  1.0000
  H   H38       1.0  0.06311  0.32390  0.16681  1.0000
  H   H39       1.0  0.15886  0.32013  0.22201  1.0000
  H   H40       1.0  0.27116  0.26715  0.27197  1.0000
  N   N1        1.0  0.20497  0.32172  0.29153  1.0000
  H   H41       1.0  0.26705  0.22561  0.00444  1.0000
  H   H42       1.0  0.17378  0.38011  0.00870  1.0000
  S   S8        1.0  0.05733  0.36247  0.07400  1.0000
  Fe  Fe1       1.0  0.24972  0.50094  0.05888  1.0000
  H   H43       1.0  0.52146  0.43559  0.08015  1.0000
  H   H44       1.0  0.48168  0.03993  0.22898  1.0000
  C   C35       1.0  0.21634  0.27698  0.29934  1.0000
  H   H45       1.0  0.49681  0.26016  0.07423  1.0000
  H   H46       1.0  0.06389  0.23122  0.16547  1.0000
  C   C36       1.0  0.02552  0.48327  0.06711  1.0000
  H   H47       1.0  0.02520  0.35260  0.18589  1.0000
  Fe  Fe2       1.0  0.04439  0.26995  0.25370  1.0000
  H   H48       1.0  0.12397  0.31568  0.31463  1.0000
  Fe  Fe3       1.0  0.03100  0.31185  0.04495  1.0000
  C   C37       1.0  0.24399  0.34553  0.28409  1.0000
  H   H49       1.0  0.04261  0.51731  0.10824  1.0000
  Fe  Fe4       1.0  0.26405  0.07928  0.23409  1.0000
  H   H50       1.0  0.47812  0.30220  0.03415  1.0000
  C   C38       1.0  0.10077  0.03361  0.00353  1.0000
  H   H51       1.0  0.06456  0.26832  0.13714  1.0000
  H   H52       1.0  0.22227  0.24465  0.25801  1.0000
  S   S9        1.0  0.04701  0.26909  0.30150  1.0000
  H   H53       1.0  0.15014  0.29535  0.26967  1.0000
  S   S10       1.0  0.52059  0.33018  0.17495  1.0000
  H   H54       1.0  0.20807  0.29800  0.23157  1.0000
  H   H55       1.0  0.20114  0.35428  0.23135  1.0000
  H   H56       1.0  0.23529  0.18194  0.99513  1.0000
  S   S11       1.0  0.21480  0.07331  0.01761  1.0000
  H   H57       1.0  0.15143  0.35075  0.26991  1.0000
  S   S12       1.0  0.09498  0.24931  0.22417  1.0000
  H   H58       1.0  0.02756  0.49539  0.04480  1.0000
  H   H59       1.0  0.31540  0.49588  0.21905  1.0000
  H   H60       1.0  0.20364  0.50997  0.18508  1.0000
  C   C39       1.0  0.32668  0.52683  0.22710  1.0000
  C   C40       1.0  0.09076  0.41403  0.31831  1.0000
  H   H61       1.0  0.41473  0.41014  0.31032  1.0000
  Fe  Fe5       1.0  0.32557  0.05959  0.18857  1.0000
  C   C41       1.0  0.18653  0.32370  0.23668  1.0000
  S   S13       1.0  0.25334  0.50175  0.10675  1.0000
  S   S14       1.0  0.26036  0.08527  0.18632  1.0000
  C   C42       1.0  0.17179  0.32268  0.26787  1.0000
  H   H62       1.0  0.49614  0.49402  0.10716  1.0000
  Fe  Fe6       1.0  0.04799  0.24700  0.99955  1.0000
  N   N2        1.0  0.37290  0.28260  0.15561  1.0000
  C   C43       1.0  0.37641  0.28281  0.12339  1.0000
  C   C44       1.0  0.33974  0.31416  0.16280  1.0000
  C   C45       1.0  0.35880  0.23911  0.16418  1.0000
  C   C46       1.0  0.41510  0.29314  0.16889  1.0000
  C   C47       1.0  0.40664  0.25049  0.11069  1.0000
  C   C48       1.0  0.34872  0.36010  0.15395  1.0000
  C   C49       1.0  0.35141  0.23144  0.19619  1.0000
  C   C50       1.0  0.41632  0.30974  0.20010  1.0000
  H   H63       1.0  0.34529  0.27760  0.11272  1.0000
  H   H64       1.0  0.38731  0.31402  0.11574  1.0000
  H   H65       1.0  0.33339  0.31480  0.18594  1.0000
  H   H66       1.0  0.30929  0.30495  0.15247  1.0000
  H   H67       1.0  0.32945  0.23032  0.15224  1.0000
  H   H68       1.0  0.38217  0.21518  0.15838  1.0000
  H   H69       1.0  0.43594  0.26525  0.16830  1.0000
  H   H70       1.0  0.43074  0.31766  0.15585  1.0000
  H   H71       1.0  0.43832  0.25256  0.12066  1.0000
  H   H72       1.0  0.39450  0.21782  0.11212  1.0000
  H   H73       1.0  0.40997  0.25740  0.08754  1.0000
  H   H74       1.0  0.32573  0.38126  0.16389  1.0000
  H   H75       1.0  0.38013  0.37089  0.16117  1.0000
  H   H76       1.0  0.34505  0.36459  0.13045  1.0000
  H   H77       1.0  0.38095  0.23320  0.20902  1.0000
  H   H78       1.0  0.33956  0.19875  0.19882  1.0000
  H   H79       1.0  0.32751  0.25243  0.20503  1.0000
  H   H80       1.0  0.44207  0.29387  0.21229  1.0000
  H   H81       1.0  0.38789  0.30451  0.21236  1.0000
  H   H82       1.0  0.42424  0.34382  0.20053  1.0000
  H   H83       1.0  0.04147  0.45230  0.06712  1.0000
  H   H84       1.0  0.24967  0.22096  0.28705  1.0000
  S   S15       1.0  0.33097  0.05784  0.23672  1.0000
  C   C51       1.0  0.18766  0.34187  0.31798  1.0000
  S   S16       1.0  0.36861  0.50923  0.13209  1.0000
  H   H85       1.0  0.47139  0.35499  0.99620  1.0000
  C   C52       1.0  0.04634  0.24158  0.14584  1.0000
  H   H86       1.0  0.30071  0.05392  0.29748  1.0000
  H   H87       1.0  0.50157  0.20400  0.07089  1.0000
  H   H88       1.0  0.34449  0.52072  0.24740  1.0000
  C   C53       1.0  0.04883  0.20608  0.12343  1.0000
  H   H89       1.0  0.46727  0.23208  0.04692  1.0000
  S   S17       1.0  0.50829  0.21921  0.20489  1.0000
  H   H90       1.0  0.48747  0.28171  0.99941  1.0000
  C   C54       1.0  0.05238  0.51378  0.08589  1.0000
  C   C55       1.0  0.28843  0.06181  0.31889  1.0000
  H   H91       1.0  0.03277  0.45003  0.12384  1.0000
  C   C56       1.0  0.02912  0.32932  0.16845  1.0000
  H   H92       1.0  0.43902  0.04482  0.20390  1.0000
  H   H93       1.0  0.19248  0.24335  0.99990  1.0000
  H   H94       1.0  0.14801  0.03424  0.05292  1.0000
  H   H95       1.0  0.17738  0.37465  0.31346  1.0000
  C   C57       1.0  0.50229  0.34729  0.00611  1.0000
  H   H96       1.0  0.03567  0.21610  0.10247  1.0000
  C   C58       1.0  0.49774  0.23387  0.05874  1.0000
  H   H97       1.0  0.23503  0.27637  0.31983  1.0000
  S   S18       1.0  0.02956  0.31546  0.99689  1.0000
  H   H98       1.0  0.33799  0.12405  0.99390  1.0000
  H   H99       1.0  0.13358  0.03180  0.99639  1.0000
  Fe  Fe7       1.0  0.52221  0.32431  0.12743  1.0000
  H   H100      1.0  0.51101  0.09242  0.17125  1.0000
  H   H101      1.0  0.20869  0.03926  0.29764  1.0000
  H   H102      1.0  0.52214  0.10777  0.13563  1.0000
  C   C59       1.0  0.32502  0.04368  0.56875  1.0000
  S   S19       1.0  0.49797  0.24452  0.37558  1.0000
  S   S20       1.0  0.46318  0.22316  0.45347  1.0000
  H   H103      1.0  0.31359  0.45619  0.43835  1.0000
  C   C60       1.0  0.31938  0.09308  0.33335  1.0000
  S   S21       1.0  0.05030  0.38069  0.32981  1.0000
  H   H104      1.0  0.10294  0.20784  0.53028  1.0000
  H   H105      1.0  0.52022  0.45101  0.59842  1.0000
  H   H106      1.0  0.16426  0.16567  0.54630  1.0000
  S   S22       1.0  0.21703  0.10767  0.51715  1.0000
  S   S23       1.0  0.36099  0.06139  0.41326  1.0000
  C   C61       1.0  0.44164  0.39742  0.35219  1.0000
  C   C62       1.0  0.44343  0.41020  0.38085  1.0000
  C   C63       1.0  0.42035  0.44509  0.38974  1.0000
  C   C64       1.0  0.39487  0.46729  0.37013  1.0000
  C   C65       1.0  0.39266  0.45445  0.34150  1.0000
  N   N3        1.0  0.27314  0.50103  0.45952  1.0000
  H   H107      1.0  0.46280  0.39342  0.39617  1.0000
  H   H108      1.0  0.42220  0.45479  0.41193  1.0000
  C   C66       1.0  0.52187  0.08554  0.44734  1.0000
  S   S24       1.0  0.47166  0.35471  0.34004  1.0000
  C   C67       1.0  0.43418  0.17895  0.44150  1.0000
  C   C68       1.0  0.44174  0.15975  0.41520  1.0000
  C   C69       1.0  0.41861  0.12413  0.40648  1.0000
  C   C70       1.0  0.38794  0.10736  0.42405  1.0000
  C   C71       1.0  0.38029  0.12656  0.45032  1.0000
  C   C72       1.0  0.40349  0.16214  0.45906  1.0000
  H   H109      1.0  0.46581  0.17180  0.40173  1.0000
  H   H110      1.0  0.42481  0.10930  0.38619  1.0000
  H   H111      1.0  0.35662  0.11394  0.46397  1.0000
  H   H112      1.0  0.39747  0.17678  0.47943  1.0000
  S   S25       1.0  0.24629  0.06811  0.43859  1.0000
  H   H113      1.0  0.30328  0.44501  0.51125  1.0000
  H   H114      1.0  0.27956  0.29361  0.64900  1.0000
  C   C73       1.0  0.17257  0.13637  0.50526  1.0000
  C   C74       1.0  0.12249  0.15748  0.46793  1.0000
  C   C75       1.0  0.15710  0.13333  0.47702  1.0000
  H   H115      1.0  0.11125  0.15540  0.44593  1.0000
  H   H116      1.0  0.17209  0.11279  0.46205  1.0000
  S   S26       1.0  0.05990  0.21512  0.47447  1.0000
  H   H117      1.0  0.26102  0.41058  0.50066  1.0000
  H   H118      1.0  0.29447  0.17110  0.64414  1.0000
  H   H119      1.0  0.21216  0.34444  0.33530  1.0000
  S   S27       1.0  0.44882  0.34519  0.59994  1.0000
  C   C76       1.0  0.10271  0.18453  0.48702  1.0000
  S   S28       1.0  0.17395  0.49723  0.52976  1.0000
  S   S29       1.0  0.31853  0.48299  0.63712  1.0000
  C   C77       1.0  0.11768  0.18700  0.51540  1.0000
  C   C78       1.0  0.15254  0.16312  0.52444  1.0000
  C   C79       1.0  0.41374  0.38435  0.61061  1.0000
  C   C80       1.0  0.40925  0.39472  0.63945  1.0000
  H   H120      1.0  0.39164  0.12223  0.64210  1.0000
  C   C81       1.0  0.35558  0.44581  0.62636  1.0000
  C   C82       1.0  0.36038  0.43570  0.59750  1.0000
  C   C83       1.0  0.38930  0.40499  0.58967  1.0000
  H   H121      1.0  0.15790  0.50710  0.65563  1.0000
  C   C84       1.0  0.02479  0.49764  0.52360  1.0000
  H   H122      1.0  0.34152  0.45112  0.58122  1.0000
  H   H123      1.0  0.39255  0.39709  0.56731  1.0000
  H   H124      1.0  0.28514  0.03971  0.38015  1.0000
  C   C85       1.0  0.03173  0.24706  0.37828  1.0000
  C   C86       1.0  0.08285  0.40154  0.56680  1.0000
  C   C87       1.0  0.09042  0.40249  0.53749  1.0000
  C   C88       1.0  0.11868  0.43180  0.52651  1.0000
  C   C89       1.0  0.14019  0.45988  0.54480  1.0000
  C   C90       1.0  0.13330  0.45848  0.57425  1.0000
  C   C91       1.0  0.10448  0.42951  0.58518  1.0000
  H   H125      1.0  0.07414  0.38110  0.52314  1.0000
  H   H126      1.0  0.12384  0.43278  0.50372  1.0000
  H   H127      1.0  0.14951  0.48020  0.58847  1.0000
  H   H128      1.0  0.09867  0.42904  0.60789  1.0000
  S   S30       1.0  0.28800  0.51340  0.55658  1.0000
  H   H129      1.0  0.03381  0.12194  0.44428  1.0000
  H   H130      1.0  0.22513  0.46479  0.41162  1.0000
  H   H131      1.0  0.49125  0.34152  0.54991  1.0000
  H   H132      1.0  0.06342  0.25996  0.38260  1.0000
  C   C92       1.0  0.28607  0.47626  0.43373  1.0000
  H   H133      1.0  0.03341  0.22823  0.35834  1.0000
  H   H134      1.0  0.03948  0.48638  0.50375  1.0000
  S   S31       1.0  0.02869  0.25248  0.55314  1.0000
  H   H135      1.0  0.29014  0.34496  0.60986  1.0000
  Fe  Fe8       1.0  0.50898  0.31406  0.37141  1.0000
  H   H136      1.0  0.47344  0.05394  0.42039  1.0000
  H   H137      1.0  0.05237  0.37296  0.41269  1.0000
  C   C93       1.0  0.14731  0.46346  0.32992  1.0000
  S   S32       1.0  0.51100  0.32594  0.41870  1.0000
  H   H138      1.0  0.37326  0.47149  0.32619  1.0000
  H   H139      1.0  0.51218  0.19696  0.54460  1.0000
  H   H140      1.0  0.31245  0.09889  0.35612  1.0000
  N   N4        1.0  0.33546  0.25604  0.64350  1.0000
  C   C94       1.0  0.14957  0.31968  0.33078  1.0000
  H   H141      1.0  0.15781  0.28889  0.34055  1.0000
  H   H142      1.0  0.45759  0.06804  0.45529  1.0000
  C   C95       1.0  0.25234  0.44706  0.42029  1.0000
  C   C96       1.0  0.37267  0.27848  0.65692  1.0000
  H   H143      1.0  0.28307  0.27046  0.61482  1.0000
  C   C97       1.0  0.43764  0.28855  0.52817  1.0000
  H   H144      1.0  0.47958  0.28852  0.49306  1.0000
  C   C98       1.0  0.25569  0.47340  0.48259  1.0000
  Fe  Fe9       1.0  0.31019  0.03982  0.44234  1.0000
  H   H145      1.0  0.51219  0.11585  0.43722  1.0000
  H   H146      1.0  0.05475  0.19148  0.62182  1.0000
  H   H147      1.0  0.03528  0.28117  0.42863  1.0000
  N   N5        1.0  0.51806  0.28537  0.53168  1.0000
  H   H148      1.0  0.16973  0.45423  0.64673  1.0000
  C   C99       1.0  0.05956  0.33886  0.41124  1.0000
  H   H149      1.0  0.31801  0.07747  0.57192  1.0000
  C   C100      1.0  0.30223  0.28580  0.63215  1.0000
  H   H150      1.0  0.50559  0.28147  0.57715  1.0000
  H   H151      1.0  0.43713  0.28276  0.55153  1.0000
  Fe  Fe10      1.0  0.48981  0.31288  0.63313  1.0000
  H   H152      1.0  0.46764  0.21889  0.56166  1.0000
  H   H153      1.0  0.36582  0.50375  0.45105  1.0000
  C   C101      1.0  0.28179  0.19810  0.65618  1.0000
  H   H154      1.0  0.23570  0.48826  0.65660  1.0000
  H   H155      1.0  0.05311  0.24561  0.61113  1.0000
  H   H156      1.0  0.35224  0.47517  0.48300  1.0000
  C   C102      1.0  0.23623  0.08765  0.59530  1.0000
  C   C103      1.0  0.41620  0.41975  0.33255  1.0000
  H   H157      1.0  0.51527  0.48154  0.64829  1.0000
  H   H158      1.0  0.20305  0.05791  0.37994  1.0000
  H   H159      1.0  0.20176  0.08539  0.59299  1.0000
  H   H160      1.0  0.47613  0.23993  0.51138  1.0000
  S   S33       1.0  0.48740  0.24268  0.63653  1.0000
  H   H161      1.0  0.39990  0.26752  0.60226  1.0000
  H   H162      1.0  0.26837  0.03467  0.54446  1.0000
  H   H163      1.0  0.37166  0.20313  0.62928  1.0000
  H   H164      1.0  0.51465  0.08937  0.38781  1.0000
  H   H165      1.0  0.06205  0.30084  0.64492  1.0000
  H   H166      1.0  0.06800  0.33165  0.38892  1.0000
  H   H167      1.0  0.24214  0.09605  0.37383  1.0000
  H   H168      1.0  0.51281  0.34945  0.51586  1.0000
  H   H169      1.0  0.32837  0.34968  0.63793  1.0000
  C   C104      1.0  0.11418  0.43755  0.33855  1.0000
  C   C105      1.0  0.52104  0.26301  0.56024  1.0000
  H   H170      1.0  0.24926  0.09630  0.57440  1.0000
  C   C106      1.0  0.22778  0.06686  0.36487  1.0000
  S   S34       1.0  0.31278  0.03939  0.49051  1.0000
  H   H171      1.0  0.24332  0.11376  0.61051  1.0000
  C   C107      1.0  0.28220  0.43574  0.49306  1.0000
  H   H172      1.0  0.43198  0.32252  0.52409  1.0000
  H   H173      1.0  0.38678  0.30115  0.64191  1.0000
  Fe  Fe11      1.0  0.24623  0.06219  0.48632  1.0000
  C   C108      1.0  0.05350  0.22436  0.62984  1.0000
  H   H174      1.0  0.22397  0.46134  0.47655  1.0000
  H   H175      1.0  0.10669  0.43572  0.36095  1.0000
  H   H176      1.0  0.34145  0.32595  0.60439  1.0000
  S   S35       1.0  0.36789  0.51187  0.38224  1.0000
  H   H177      1.0  0.41123  0.27097  0.51787  1.0000
  H   H178      1.0  0.21140  0.07418  0.34441  1.0000
  H   H179      1.0  0.08244  0.22994  0.64294  1.0000
  C   C109      1.0  0.35022  0.22737  0.62010  1.0000
  H   H180      1.0  0.32371  0.20977  0.60990  1.0000
  H   H181      1.0  0.49633  0.41733  0.62360  1.0000
  C   C110      1.0  0.47882  0.27433  0.51488  1.0000
  C   C111      1.0  0.31699  0.32867  0.62045  1.0000
  C   C112      1.0  0.38009  0.42519  0.64730  1.0000
  Fe  Fe12      1.0  0.50558  0.25552  0.42258  1.0000
  H   H182      1.0  0.08732  0.33296  0.42539  1.0000
  H   H183      1.0  0.25006  0.49229  0.50199  1.0000
  H   H184      1.0  0.38523  0.22313  0.58122  1.0000
  H   H185      1.0  0.20990  0.51345  0.44363  1.0000
  H   H186      1.0  0.30045  0.42070  0.47621  1.0000
  H   H187      1.0  0.26585  0.43015  0.40192  1.0000
  C   C113      1.0  0.37279  0.24824  0.59512  1.0000
  H   H188      1.0  0.35095  0.26678  0.58139  1.0000
  S   S36       1.0  0.04462  0.36771  0.58073  1.0000
  H   H189      1.0  0.29670  0.49807  0.41678  1.0000
  C   C114      1.0  0.35246  0.50637  0.47268  1.0000
  H   H190      1.0  0.13726  0.33957  0.34818  1.0000
  H   H191      1.0  0.23729  0.03809  0.62659  1.0000
  Fe  Fe13      1.0  0.28762  0.52481  0.60375  1.0000
  H   H192      1.0  0.47525  0.51738  0.38037  1.0000
  C   C115      1.0  0.50217  0.21816  0.56178  1.0000
  H   H193      1.0  0.05039  0.50081  0.53993  1.0000
  H   H194      1.0  0.16521  0.48141  0.34565  1.0000
  H   H195      1.0  0.34564  0.04190  0.55011  1.0000
  H   H196      1.0  0.24180  0.42291  0.43566  1.0000
  H   H197      1.0  0.28677  0.05455  0.61559  1.0000
  C   C116      1.0  0.51772  0.33235  0.53655  1.0000
  H   H198      1.0  0.51245  0.20322  0.58225  1.0000
  H   H199      1.0  0.25725  0.21416  0.64313  1.0000
  C   C117      1.0  0.48413  0.05554  0.44314  1.0000
  C   C118      1.0  0.25517  0.04655  0.60734  1.0000
  H   H200      1.0  0.42797  0.37927  0.65576  1.0000
  H   H201      1.0  0.37390  0.52656  0.48578  1.0000
  H   H202      1.0  0.35201  0.08203  0.33183  1.0000
  H   H203      1.0  0.34350  0.03225  0.58742  1.0000
  C   C119      1.0  0.30923  0.52736  0.47098  1.0000
  C   C120      1.0  0.26041  0.03103  0.36401  1.0000
  H   H204      1.0  0.20283  0.03035  0.56068  1.0000
  S   S37       1.0  0.06666  0.21453  0.72053  1.0000
  S   S38       1.0  0.32081  0.08236  0.66620  1.0000
  C   C121      1.0  0.15768  0.52007  0.72842  1.0000
  H   H205      1.0  0.22532  0.45006  0.68318  1.0000
  H   H206      1.0  0.27368  0.45808  0.73228  1.0000
  H   H207      1.0  0.22065  0.27327  0.97461  1.0000
  H   H208      1.0  0.51674  0.06312  0.93241  1.0000
  S   S39       1.0  0.49697  0.19640  0.95790  1.0000
  H   H209      1.0  0.31224  0.10368  0.80693  1.0000
  S   S40       1.0  0.45965  0.33952  0.85264  1.0000
  H   H210      1.0  0.29269  0.45030  0.69629  1.0000
  H   H211      1.0  0.18043  0.09125  0.96030  1.0000
  S   S41       1.0  0.21066  0.44245  0.78622  1.0000
  C   C122      1.0  0.03022  0.08516  0.69965  1.0000
  H   H212      1.0  0.13414  0.14785  0.94222  1.0000
  S   S42       1.0  0.30836  0.51065  0.80459  1.0000
  H   H213      1.0  0.14057  0.49801  0.74243  1.0000
  H   H214      1.0  0.48016  0.26908  0.81479  1.0000
  C   C123      1.0  0.14151  0.14554  0.96491  1.0000
  H   H215      1.0  0.25607  0.13623  0.90209  1.0000
  H   H216      1.0  0.06337  0.22844  0.86186  1.0000
  S   S43       1.0  0.35306  0.07166  0.91344  1.0000
  C   C124      1.0  0.43090  0.38445  0.86232  1.0000
  C   C125      1.0  0.43782  0.40514  0.88851  1.0000
  C   C126      1.0  0.41532  0.44191  0.89478  1.0000
  C   C127      1.0  0.38588  0.45822  0.87493  1.0000
  C   C128      1.0  0.37857  0.43698  0.84906  1.0000
  C   C129      1.0  0.40104  0.40042  0.84276  1.0000
  H   H217      1.0  0.46064  0.39301  0.90381  1.0000
  H   H218      1.0  0.42079  0.45781  0.91500  1.0000
  H   H219      1.0  0.35575  0.44871  0.83374  1.0000
  H   H220      1.0  0.39533  0.38454  0.82253  1.0000
  C   C130      1.0  0.45547  0.16331  0.94576  1.0000
  C   C131      1.0  0.43911  0.16595  0.91777  1.0000
  C   C132      1.0  0.40762  0.13780  0.90831  1.0000
  C   C133      1.0  0.39179  0.10706  0.92677  1.0000
  C   C134      1.0  0.40759  0.10489  0.95495  1.0000
  C   C135      1.0  0.43934  0.13288  0.96437  1.0000
  H   H221      1.0  0.45108  0.18927  0.90323  1.0000
  H   H222      1.0  0.39563  0.13970  0.88646  1.0000
  H   H223      1.0  0.39592  0.08115  0.96931  1.0000
  C   C136      1.0  0.28830  0.24193  0.94612  1.0000
  C   C137      1.0  0.35874  0.11661  0.68151  1.0000
  S   S44       1.0  0.50428  0.31178  0.93070  1.0000
  H   H224      1.0  0.34084  0.26334  0.97417  1.0000
  H   H225      1.0  0.02596  0.52207  0.87174  1.0000
  H   H226      1.0  0.35766  0.48231  0.98346  1.0000
  Fe  Fe14      1.0  0.48966  0.25242  0.68389  1.0000
  S   S45       1.0  0.16335  0.04991  0.76070  1.0000
  H   H227      1.0  0.19352  0.44092  0.92372  1.0000
  C   C138      1.0  0.08802  0.38441  0.81557  1.0000
  C   C139      1.0  0.10718  0.41671  0.83174  1.0000
  C   C140      1.0  0.14461  0.43522  0.82283  1.0000
  C   C141      1.0  0.16325  0.42106  0.79787  1.0000
  C   C142      1.0  0.14402  0.38882  0.78175  1.0000
  C   C143      1.0  0.10651  0.37058  0.79052  1.0000
  H   H228      1.0  0.09328  0.42706  0.85133  1.0000
  H   H229      1.0  0.15931  0.45996  0.83544  1.0000
  H   H230      1.0  0.15840  0.37761  0.76252  1.0000
  H   H231      1.0  0.09225  0.34544  0.77807  1.0000
  C   C144      1.0  0.09476  0.16986  0.73237  1.0000
  C   C145      1.0  0.08854  0.15243  0.75942  1.0000
  C   C146      1.0  0.10996  0.11577  0.76788  1.0000
  C   C147      1.0  0.13800  0.09650  0.74949  1.0000
  C   C148      1.0  0.14461  0.11418  0.72255  1.0000
  C   C149      1.0  0.12287  0.15066  0.71398  1.0000
  H   H232      1.0  0.06676  0.16673  0.77368  1.0000
  H   H233      1.0  0.10466  0.10221  0.78873  1.0000
  H   H234      1.0  0.16617  0.09958  0.70824  1.0000
  H   H235      1.0  0.12781  0.16397  0.69302  1.0000
  S   S46       1.0  0.03307  0.24449  0.79942  1.0000
  H   H236      1.0  0.47610  0.49513  0.81709  1.0000
  N   N6        1.0  0.22487  0.51462  0.69838  1.0000
  C   C150      1.0  0.49546  0.25503  0.79592  1.0000
  H   H237      1.0  0.52426  0.25266  0.74469  1.0000
  H   H238      1.0  0.18955  0.22847  0.96323  1.0000
  C   C151      1.0  0.31681  0.22855  0.66630  1.0000
  C   C152      1.0  0.22506  0.45203  0.93073  1.0000
  H   H239      1.0  0.24207  0.46101  0.91134  1.0000
  H   H240      1.0  0.18967  0.09558  0.85400  1.0000
  H   H241      1.0  0.26069  0.25707  0.93552  1.0000
  H   H242      1.0  0.05671  0.33705  0.90918  1.0000
  H   H243      1.0  0.47044  0.25092  0.77918  1.0000
  C   C153      1.0  0.36422  0.30271  0.68480  1.0000
  C   C154      1.0  0.52416  0.49456  0.90330  1.0000
  H   H244      1.0  0.36330  0.28076  0.70332  1.0000
  H   H245      1.0  0.23986  0.14579  0.95121  1.0000
  C   C155      1.0  0.21100  0.24085  0.98020  1.0000
  H   H246      1.0  0.04905  0.24294  0.92181  1.0000
  H   H247      1.0  0.47519  0.30370  0.73989  1.0000
  C   C156      1.0  0.24852  0.21153  0.98633  1.0000
  S   S47       1.0  0.09327  0.21580  0.97004  1.0000
  C   C157      1.0  0.20265  0.50354  0.72548  1.0000
  H   H248      1.0  0.06329  0.36015  0.67775  1.0000
  C   C158      1.0  0.29068  0.47269  0.71442  1.0000
  H   H249      1.0  0.30327  0.24799  0.68354  1.0000
  H   H250      1.0  0.18094  0.03678  0.82104  1.0000
  H   H251      1.0  0.45182  0.13052  0.98606  1.0000
  C   C159      1.0  0.41544  0.17821  0.70262  1.0000
  N   N7        1.0  0.27573  0.20214  0.96125  1.0000
  H   H252      1.0  0.32320  0.47849  0.72227  1.0000
  C   C160      1.0  0.21629  0.48196  0.67551  1.0000
  C   C161      1.0  0.30850  0.13496  0.98340  1.0000
  H   H253      1.0  0.39015  0.32520  0.68935  1.0000
  C   C162      1.0  0.38509  0.16110  0.72041  1.0000
  H   H254      1.0  0.34133  0.20926  0.67714  1.0000
  Fe  Fe15      1.0  0.30884  0.52754  0.85122  1.0000
  S   S48       1.0  0.44743  0.22007  0.71526  1.0000
  H   H255      1.0  0.15065  0.46462  0.68141  1.0000
  C   C163      1.0  0.29426  0.48625  0.96644  1.0000
  H   H256      1.0  0.29140  0.28669  0.98257  1.0000
  Fe  Fe16      1.0  0.24808  0.03082  0.98695  1.0000
  Fe  Fe17      1.0  0.24048  0.49676  0.81026  1.0000
  H   H257      1.0  0.28510  0.46801  0.98572  1.0000
  S   S49       1.0  0.35984  0.50582  0.88259  1.0000
  H   H258      1.0  0.48087  0.19339  0.81292  1.0000
  H   H259      1.0  0.38280  0.17234  0.74217  1.0000
  H   H260      1.0  0.46548  0.35724  0.74958  1.0000
  H   H261      1.0  0.33480  0.32082  0.68346  1.0000
  H   H262      1.0  0.35256  0.51595  0.95323  1.0000
  H   H263      1.0  0.30992  0.23476  0.92854  1.0000
  H   H264      1.0  0.07101  0.29813  0.88299  1.0000
  S   S50       1.0  0.48615  0.32258  0.68016  1.0000
  C   C164      1.0  0.35687  0.13027  0.70993  1.0000
  C   C165      1.0  0.19996  0.02987  0.84080  1.0000
  C   C166      1.0  0.06579  0.30373  0.90603  1.0000
  S   S51       1.0  0.24567  0.04529  0.94030  1.0000
  H   H265      1.0  0.22045  0.51613  0.74442  1.0000
  H   H266      1.0  0.47660  0.45747  0.84567  1.0000
  C   C167      1.0  0.03937  0.30015  0.66251  1.0000
  H   H267      1.0  0.24088  0.42495  0.94134  1.0000
  H   H268      1.0  0.52427  0.47802  0.83162  1.0000
  H   H269      1.0  0.20950  0.47561  0.97227  1.0000
  C   C168      1.0  0.49221  0.48607  0.83752  1.0000
  Fe  Fe18      1.0  0.50795  0.31157  0.88303  1.0000
  S   S52       1.0  0.27978  0.04201  0.74146  1.0000
  C   C169      1.0  0.26015  0.06817  0.82339  1.0000
  H   H270      1.0  0.04379  0.03506  0.97400  1.0000
  C   C170      1.0  0.18880  0.06339  0.86320  1.0000
  H   H271      1.0  0.19467  0.50871  0.94312  1.0000
  H   H272      1.0  0.33296  0.11809  0.72358  1.0000
  H   H273      1.0  0.05670  0.52560  0.80970  1.0000
  H   H274      1.0  0.31842  0.30299  0.95154  1.0000
  C   C171      1.0  0.27132  0.51497  0.70477  1.0000
  H   H275      1.0  0.13924  0.52240  0.70818  1.0000
  H   H276      1.0  0.44195  0.17538  0.66087  1.0000
  H   H277      1.0  0.24157  0.07757  0.80387  1.0000
  H   H278      1.0  0.25508  0.09312  0.83956  1.0000
  H   H279      1.0  0.09276  0.04605  0.95740  1.0000
  H   H280      1.0  0.02647  0.47694  0.84748  1.0000
  H   H281      1.0  0.33890  0.17917  0.95570  1.0000
  C   C172      1.0  0.17080  0.47744  0.66455  1.0000
  H   H282      1.0  0.20900  0.06166  0.88272  1.0000
  C   C173      1.0  0.07484  0.04960  0.97728  1.0000
  C   C174      1.0  0.48914  0.52266  0.85909  1.0000
  H   H283      1.0  0.02794  0.09483  0.74452  1.0000
  C   C175      1.0  0.51002  0.32603  0.77846  1.0000
  C   C176      1.0  0.47124  0.32514  0.75823  1.0000
  S   S53       1.0  0.52381  0.24261  0.87991  1.0000
  H   H284      1.0  0.26679  0.18436  0.67524  1.0000
  C   C177      1.0  0.25137  0.17462  0.94042  1.0000
  H   H285      1.0  0.07340  0.50327  0.85802  1.0000
  H   H286      1.0  0.32667  0.07030  0.83616  1.0000
  C   C178      1.0  0.16824  0.11367  0.97511  1.0000
  N   N8        1.0  0.25948  0.51553  0.95714  1.0000
  H   H287      1.0  0.45931  0.51748  0.87023  1.0000
  C   C179      1.0  0.38973  0.13295  0.66400  1.0000
  S   S54       1.0  0.04109  0.36169  0.82704  1.0000
  S   S55       1.0  0.24194  0.50844  0.85750  1.0000
  C   C180      1.0  0.33714  0.50639  0.97322  1.0000
  H   H288      1.0  0.30041  0.46259  0.94955  1.0000
  C   C181      1.0  0.30666  0.07215  0.81643  1.0000
  H   H289      1.0  0.27862  0.18737  0.89844  1.0000
  H   H290      1.0  0.50064  0.34269  0.79826  1.0000
  H   H291      1.0  0.15628  0.05783  0.86995  1.0000
  H   H292      1.0  0.03253  0.11956  0.69569  1.0000
  H   H293      1.0  0.44301  0.31580  0.76998  1.0000
  H   H294      1.0  0.27587  0.04068  0.87487  1.0000
  C   C182      1.0  0.41817  0.16332  0.67457  1.0000
  H   H295      1.0  0.06963  0.08399  0.97965  1.0000
  H   H296      1.0  0.09606  0.29924  0.91776  1.0000
  Fe  Fe19      1.0  0.28483  0.03756  0.69400  1.0000
  C   C183      1.0  0.27471  0.16081  0.91358  1.0000
  H   H297      1.0  0.05578  0.28525  0.68123  1.0000
  H   H298      1.0  0.28805  0.51783  0.91576  1.0000
  C   C184      1.0  0.03320  0.27331  0.91837  1.0000
  H   H299      1.0  0.49171  0.48821  0.90996  1.0000
  C   C185      1.0  0.22077  0.48908  0.95180  1.0000
  H   H300      1.0  0.39804  0.25561  0.66213  1.0000
  C   C186      1.0  0.12409  0.17426  0.98391  1.0000
  H   H301      1.0  0.37655  0.43288  0.66967  1.0000
  H   H302      1.0  0.31683  0.04882  0.80050  1.0000
  C   C187      1.0  0.03297  0.34692  0.66989  1.0000
  H   H303      1.0  0.20174  0.46877  0.72842  1.0000
  C   C188      1.0  0.03991  0.50839  0.85241  1.0000
  H   H304      1.0  0.28869  0.52628  0.68590  1.0000
  C   C189      1.0  0.50822  0.20977  0.80390  1.0000
  H   H305      1.0  0.51679  0.19163  0.78464  1.0000
  H   H306      1.0  0.22277  0.19081  0.93232  1.0000
  H   H307      1.0  0.30550  0.14696  0.91884  1.0000
  H   H308      1.0  0.49672  0.11085  0.89372  1.0000
  H   H309      1.0  0.06270  0.07311  0.70067  1.0000
  C   C190      1.0  0.31092  0.27526  0.96500  1.0000
  C   C191      1.0  0.03348  0.21535  0.86945  1.0000
  C   C192      1.0  0.31462  0.18021  0.97230  1.0000
  H   H310      1.0  0.32933  0.19808  0.99042  1.0000
  H   H311      1.0  0.03953  0.19675  0.88905  1.0000
  H   H312      1.0  0.30141  0.11279  0.96560  1.0000
  H   H313      1.0  0.02642  0.28436  0.94030  1.0000
  Fe  Fe20      1.0  0.02439  0.24606  0.75182  1.0000
  H   H314      1.0  0.52430  0.04065  0.98246  1.0000
  H   H315      1.0  0.45799  0.95410  0.30101  1.0000
  Fe  Fe21      1.0  0.28833  0.58825  0.05353  1.0000
  S   S56       1.0  0.29403  0.59725  0.10149  1.0000
  S   S57       1.0  0.29924  0.63582  0.01806  1.0000
  Fe  Fe22      1.0  0.03545  0.83517  0.99580  1.0000
  Fe  Fe23      1.0  0.23005  0.56821  0.10315  1.0000
  S   S58       1.0  0.17453  0.58261  0.13048  1.0000
  H   H316      1.0  0.04925  0.87434  0.18257  1.0000
  H   H317      1.0  0.22867  0.78404  0.08817  1.0000
  C   C193      1.0  0.21801  0.76361  0.03338  1.0000
  S   S59       1.0  0.30552  0.66773  0.28374  1.0000
  H   H318      1.0  0.29457  0.53396  0.17615  1.0000
  H   H319      1.0  0.35200  0.60727  0.20304  1.0000
  H   H320      1.0  0.22082  0.64927  0.23029  1.0000
  Fe  Fe24      1.0  0.45387  0.80726  0.13387  1.0000
  S   S60       1.0  0.46126  0.80371  0.18196  1.0000
  S   S61       1.0  0.40038  0.85056  0.12014  1.0000
  H   H321      1.0  0.11603  0.83703  0.14404  1.0000
  Fe  Fe25      1.0  0.47657  0.73569  0.17561  1.0000
  S   S62       1.0  0.46121  0.67939  0.20333  1.0000
  H   H322      1.0  0.32913  0.86820  0.29986  1.0000
  S   S63       1.0  0.46382  0.73749  0.12801  1.0000
  C   C194      1.0  0.29006  0.55661  0.23336  1.0000
  Fe  Fe26      1.0  0.30498  0.99229  0.23237  1.0000
  S   S64       1.0  0.30461  0.99190  0.18409  1.0000
  S   S65       1.0  0.31695  0.93321  0.25880  1.0000
  H   H323      1.0  0.15227  0.97056  0.01949  1.0000
  H   H324      1.0  0.11777  0.94248  0.04177  1.0000
  S   S66       1.0  0.17916  0.99571  0.16391  1.0000
  S   S67       1.0  0.23865  0.01375  0.23397  1.0000
  H   H325      1.0  0.05517  0.74047  0.12492  1.0000
  Fe  Fe27      1.0  0.10314  0.82680  0.04336  1.0000
  H   H326      1.0  0.43062  0.82625  0.25516  1.0000
  S   S68       1.0  0.15835  0.85155  0.07019  1.0000
  H   H327      1.0  0.30149  0.77515  0.02498  1.0000
  S   S69       1.0  0.10017  0.75636  0.04076  1.0000
  Fe  Fe28      1.0  0.10653  0.81901  0.28978  1.0000
  S   S70       1.0  0.09774  0.83264  0.24292  1.0000
  Fe  Fe29      1.0  0.10054  0.76281  0.23636  1.0000
  S   S71       1.0  0.14870  0.74890  0.20291  1.0000
  S   S72       1.0  0.11199  0.74940  0.28296  1.0000
  C   C195      1.0  0.11835  0.76126  0.12261  1.0000
  C   C196      1.0  0.17389  0.95705  0.13693  1.0000
  C   C197      1.0  0.20849  0.93652  0.12624  1.0000
  C   C198      1.0  0.20301  0.90456  0.10571  1.0000
  C   C199      1.0  0.16305  0.89327  0.09518  1.0000
  C   C200      1.0  0.12842  0.91464  0.10526  1.0000
  C   C201      1.0  0.13387  0.94622  0.12624  1.0000
  H   H328      1.0  0.23948  0.94557  0.13362  1.0000
  H   H329      1.0  0.23013  0.88899  0.09784  1.0000
  H   H330      1.0  0.09755  0.90687  0.09704  1.0000
  H   H331      1.0  0.10700  0.96252  0.13421  1.0000
  H   H332      1.0  0.34891  0.53993  0.21177  1.0000
  C   C202      1.0  0.42986  0.93517  0.30075  1.0000
  C   C203      1.0  0.39557  0.94706  0.28315  1.0000
  C   C204      1.0  0.35958  0.92222  0.28227  1.0000
  S   S73       1.0  0.03096  0.75479  0.23889  1.0000
  H   H333      1.0  0.47105  0.71391  0.32231  1.0000
  H   H334      1.0  0.39722  0.97498  0.27001  1.0000
  H   H335      1.0  0.20701  0.55392  0.22598  1.0000
  C   C205      1.0  0.38403  0.86300  0.08458  1.0000
  C   C206      1.0  0.35761  0.89767  0.07977  1.0000
  C   C207      1.0  0.34277  0.90787  0.05197  1.0000
  C   C208      1.0  0.35324  0.88269  0.02874  1.0000
  C   C209      1.0  0.37907  0.84756  0.03364  1.0000
  C   C210      1.0  0.39491  0.83806  0.06132  1.0000
  H   H336      1.0  0.34792  0.91649  0.09764  1.0000
  H   H337      1.0  0.32227  0.93450  0.04865  1.0000
  H   H338      1.0  0.38652  0.82727  0.01602  1.0000
  H   H339      1.0  0.41441  0.81075  0.06481  1.0000
  C   C211      1.0  0.34862  0.66985  0.26123  1.0000
  C   C212      1.0  0.35247  0.70424  0.24257  1.0000
  C   C213      1.0  0.38654  0.70734  0.22438  1.0000
  C   C214      1.0  0.41704  0.67606  0.22487  1.0000
  C   C215      1.0  0.41301  0.64152  0.24339  1.0000
  C   C216      1.0  0.37887  0.63836  0.26155  1.0000
  H   H340      1.0  0.32898  0.72856  0.24212  1.0000
  H   H341      1.0  0.38934  0.73395  0.21009  1.0000
  H   H342      1.0  0.43652  0.61719  0.24379  1.0000
  H   H343      1.0  0.37610  0.61173  0.27582  1.0000
  C   C217      1.0  0.16762  0.62918  0.15026  1.0000
  C   C218      1.0  0.19696  0.66174  0.15007  1.0000
  C   C219      1.0  0.19090  0.69797  0.16666  1.0000
  C   C220      1.0  0.15570  0.70176  0.18373  1.0000
  C   C221      1.0  0.12655  0.66903  0.18415  1.0000
  C   C222      1.0  0.13246  0.63291  0.16735  1.0000
  H   H344      1.0  0.22437  0.65887  0.13726  1.0000
  H   H345      1.0  0.21365  0.72307  0.16625  1.0000
  H   H346      1.0  0.09932  0.67164  0.19720  1.0000
  H   H347      1.0  0.10979  0.60760  0.16773  1.0000
  H   H348      1.0  0.14412  0.77283  0.13690  1.0000
  H   H349      1.0  0.25150  0.84407  0.06374  1.0000
  H   H350      1.0  0.47161  0.89035  0.21538  1.0000
  H   H351      1.0  0.06625  0.92959  0.00492  1.0000
  H   H352      1.0  0.17452  0.71250  0.06697  1.0000
  H   H353      1.0  0.48316  0.82748  0.24361  1.0000
  H   H354      1.0  0.33609  0.64505  0.17722  1.0000
  C   C223      1.0  0.14119  0.00126  0.05900  1.0000
  C   C224      1.0  0.21648  0.61741  0.23954  1.0000
  Fe  Fe30      1.0  0.29194  0.61439  0.31430  1.0000
  H   H355      1.0  0.50324  0.77965  0.31775  1.0000
  C   C225      1.0  0.28419  0.61515  0.19811  1.0000
  N   N9        1.0  0.08807  0.99207  0.01645  1.0000
  Fe  Fe31      1.0  0.04220  0.74777  0.28625  1.0000
  C   C226      1.0  0.48047  0.99095  0.19634  1.0000
  H   H356      1.0  0.47102  0.83762  0.28080  1.0000
  S   S74       1.0  0.03345  0.83410  0.04366  1.0000
  C   C227      1.0  0.22776  0.79621  0.01007  1.0000
  N   N10       1.0  0.25384  0.74951  0.05275  1.0000
  C   C228      1.0  0.24305  0.70628  0.06390  1.0000
  C   C229      1.0  0.29318  0.74548  0.03594  1.0000
  C   C230      1.0  0.08884  0.83135  0.15784  1.0000
  C   C231      1.0  0.25919  0.77865  0.07802  1.0000
  H   H357      1.0  0.42105  0.95125  0.11985  1.0000
  C   C232      1.0  0.33272  0.73238  0.05325  1.0000
  H   H358      1.0  0.19232  0.77667  0.04610  1.0000
  H   H359      1.0  0.30222  0.82301  0.05699  1.0000
  H   H360      1.0  0.24049  0.68334  0.04592  1.0000
  H   H361      1.0  0.26786  0.69416  0.07874  1.0000
  H   H362      1.0  0.48365  0.74675  0.06042  1.0000
  H   H363      1.0  0.28819  0.72267  0.01811  1.0000
  H   H364      1.0  0.20327  0.72091  0.10049  1.0000
  H   H365      1.0  0.40880  0.91073  0.18530  1.0000
  H   H366      1.0  0.03173  0.79649  0.09979  1.0000
  H   H367      1.0  0.27876  0.76429  0.09547  1.0000
  C   C233      1.0  0.47662  0.85871  0.00253  1.0000
  H   H368      1.0  0.17098  0.98762  0.06735  1.0000
  C   C234      1.0  0.20856  0.00881  0.30922  1.0000
  H   H369      1.0  0.46911  0.87354  0.02326  1.0000
  H   H370      1.0  0.34020  0.75449  0.07104  1.0000
  H   H371      1.0  0.33056  0.69978  0.06154  1.0000
  C   C235      1.0  0.30556  0.77332  0.30144  1.0000
  C   C236      1.0  0.50778  0.95422  0.14019  1.0000
  H   H372      1.0  0.22680  0.77778  0.23911  1.0000
  H   H373      1.0  0.51573  0.57682  0.08913  1.0000
  S   S75       1.0  0.03713  0.81665  0.29704  1.0000
  H   H374      1.0  0.46263  0.93465  0.23873  1.0000
  H   H375      1.0  0.43691  0.69704  0.29296  1.0000
  H   H376      1.0  0.26353  0.62971  0.18139  1.0000
  H   H377      1.0  0.03154  0.78412  0.18286  1.0000
  C   C237      1.0  0.07638  0.76121  0.13797  1.0000
  H   H378      1.0  0.10123  0.89161  0.17806  1.0000
  H   H379      1.0  0.33778  0.99677  0.32016  1.0000
  H   H380      1.0  0.18178  0.89341  0.24225  1.0000
  H   H381      1.0  0.15059  0.91479  0.21373  1.0000
  H   H382      1.0  0.24479  0.78089  0.99260  1.0000
  H   H383      1.0  0.20310  0.93192  0.21800  1.0000
  H   H384      1.0  0.49623  0.69773  0.04415  1.0000
  H   H385      1.0  0.28473  0.75703  0.28571  1.0000
  Fe  Fe32      1.0  0.23955  0.01746  0.18607  1.0000
  S   S76       1.0  0.10542  0.83414  0.99575  1.0000
  H   H386      1.0  0.50380  0.97278  0.20936  1.0000
  C   C238      1.0  0.05296  0.99769  0.03695  1.0000
  C   C239      1.0  0.42530  0.93558  0.19808  1.0000
  H   H387      1.0  0.40004  0.00392  0.17281  1.0000
  H   H388      1.0  0.18811  0.81769  0.24561  1.0000
  H   H389      1.0  0.51807  0.74214  0.23049  1.0000
  H   H390      1.0  0.24022  0.71835  0.30949  1.0000
  C   C240      1.0  0.38538  0.63382  0.01487  1.0000
  S   S77       1.0  0.52113  0.82421  0.12733  1.0000
  H   H391      1.0  0.20152  0.59130  0.19796  1.0000
  H   H392      1.0  0.26841  0.98530  0.29722  1.0000
  S   S78       1.0  0.16469  0.84446  0.31291  1.0000
  C   C241      1.0  0.35751  0.88649  0.29986  1.0000
  N   N11       1.0  0.26568  0.57401  0.20790  1.0000
  H   H393      1.0  0.44401  0.76708  0.28652  1.0000
  H   H394      1.0  0.22903  0.80875  0.27094  1.0000
  H   H395      1.0  0.20396  0.73629  0.02158  1.0000
  C   C242      1.0  0.42818  0.89879  0.31787  1.0000
  H   H396      1.0  0.25979  0.81594  0.31800  1.0000
  Fe  Fe33      1.0  0.02927  0.82398  0.24920  1.0000
  H   H397      1.0  0.33113  0.59090  0.16808  1.0000
  C   C243      1.0  0.22157  0.58268  0.21683  1.0000
  C   C244      1.0  0.47910  0.93291  0.16200  1.0000
  C   C245      1.0  0.50232  0.70664  0.28118  1.0000
  H   H398      1.0  0.29023  0.83622  0.09210  1.0000
  C   C246      1.0  0.42332  0.64557  0.00259  1.0000
  C   C247      1.0  0.34764  0.64756  0.00260  1.0000
  H   H399      1.0  0.38542  0.61459  0.03400  1.0000
  H   H400      1.0  0.07175  0.83475  0.10316  1.0000
  C   C248      1.0  0.20196  0.70278  0.08022  1.0000
  H   H401      1.0  0.50166  0.55627  0.13863  1.0000
  C   C249      1.0  0.46526  0.77117  0.26831  1.0000
  H   H402      1.0  0.46037  0.90793  0.15086  1.0000
  H   H403      1.0  0.11711  0.77995  0.10262  1.0000
  H   H404      1.0  0.28640  0.63822  0.21601  1.0000
  H   H405      1.0  0.49389  0.98247  0.13001  1.0000
  N   N12       1.0  0.23955  0.85310  0.20283  1.0000
  C   C250      1.0  0.24451  0.81394  0.18514  1.0000
  C   C251      1.0  0.24994  0.84283  0.23372  1.0000
  C   C252      1.0  0.26860  0.88737  0.19325  1.0000
  C   C253      1.0  0.19528  0.86851  0.19918  1.0000
  C   C254      1.0  0.23775  0.81943  0.15251  1.0000
  C   C255      1.0  0.22156  0.80983  0.24769  1.0000
  C   C256      1.0  0.31494  0.87506  0.19083  1.0000
  C   C257      1.0  0.18256  0.90406  0.21965  1.0000
  H   H406      1.0  0.27559  0.79935  0.18923  1.0000
  H   H407      1.0  0.22194  0.78954  0.19160  1.0000
  H   H408      1.0  0.24973  0.87172  0.24721  1.0000
  H   H409      1.0  0.28219  0.83048  0.23616  1.0000
  H   H410      1.0  0.25816  0.90047  0.17223  1.0000
  H   H411      1.0  0.26782  0.91447  0.20822  1.0000
  H   H412      1.0  0.18946  0.88088  0.17713  1.0000
  H   H413      1.0  0.17261  0.84221  0.20144  1.0000
  H   H414      1.0  0.25960  0.84255  0.14331  1.0000
  H   H415      1.0  0.24340  0.78878  0.14197  1.0000
  H   H416      1.0  0.20519  0.82844  0.14686  1.0000
  H   H417      1.0  0.19800  0.80813  0.00056  1.0000
  H   H418      1.0  0.19671  0.66925  0.08598  1.0000
  H   H419      1.0  0.43813  0.00533  0.23175  1.0000
  H   H420      1.0  0.31983  0.85052  0.17441  1.0000
  H   H421      1.0  0.32901  0.86513  0.21166  1.0000
  H   H422      1.0  0.33270  0.90309  0.18389  1.0000
  H   H423      1.0  0.23797  0.61292  0.25823  1.0000
  C   C258      1.0  0.27640  0.82290  0.07199  1.0000
  H   H424      1.0  0.30279  0.58272  0.24694  1.0000
  C   C259      1.0  0.46873  0.69450  0.30273  1.0000
  H   H425      1.0  0.24561  0.82375  0.01814  1.0000
  S   S79       1.0  0.30376  0.54553  0.30817  1.0000
  C   C260      1.0  0.32828  0.61353  0.18595  1.0000
  C   C261      1.0  0.42408  0.98814  0.15995  1.0000
  S   S80       1.0  0.22394  0.60743  0.32370  1.0000
  H   H426      1.0  0.10120  0.81531  0.17744  1.0000
  H   H427      1.0  0.26936  0.53847  0.24772  1.0000
  H   H428      1.0  0.19353  0.98553  0.29444  1.0000
  S   S81       1.0  0.22194  0.56522  0.05540  1.0000
  H   H429      1.0  0.18416  0.61625  0.24751  1.0000
  H   H430      1.0  0.35968  0.73286  0.03880  1.0000
  H   H431      1.0  0.32053  0.79918  0.28954  1.0000
  H   H432      1.0  0.50032  0.91468  0.17646  1.0000
  C   C262      1.0  0.44797  0.91266  0.22300  1.0000
  C   C263      1.0  0.07465  0.87539  0.16706  1.0000
  H   H433      1.0  0.42455  0.89418  0.23478  1.0000
  C   C264      1.0  0.04401  0.82199  0.11408  1.0000
  H   H434      1.0  0.44120  0.01451  0.14979  1.0000
  Fe  Fe34      1.0  0.03059  0.76357  0.03786  1.0000
  C   C265      1.0  0.12495  0.97453  0.03338  1.0000
  C   C266      1.0  0.39999  0.96406  0.13613  1.0000
  H   H435      1.0  0.45246  0.63511  0.01235  1.0000
  H   H436      1.0  0.45732  0.79958  0.01830  1.0000
  N   N13       1.0  0.45232  0.96195  0.17908  1.0000
  H   H437      1.0  0.08151  0.74439  0.15870  1.0000
  H   H438      1.0  0.40008  0.95467  0.20756  1.0000
  H   H439      1.0  0.12614  0.72836  0.11680  1.0000
  N   N14       1.0  0.50775  0.75316  0.27526  1.0000
  H   H440      1.0  0.45064  0.75415  0.24977  1.0000
  H   H441      1.0  0.47301  0.66110  0.30918  1.0000
  H   H442      1.0  0.49449  0.68914  0.26108  1.0000
  C   C267      1.0  0.39165  0.87465  0.31760  1.0000
  C   C268      1.0  0.45807  0.02173  0.21628  1.0000
  H   H443      1.0  0.06598  0.89538  0.14849  1.0000
  H   H444      1.0  0.33104  0.75208  0.30872  1.0000
  H   H445      1.0  0.45935  0.73095  0.02639  1.0000
  N   N15       1.0  0.05677  0.80377  0.14276  1.0000
  H   H446      1.0  0.49945  0.01074  0.18193  1.0000
  C   C269      1.0  0.48439  0.81121  0.00627  1.0000
  C   C270      1.0  0.46325  0.81840  0.26156  1.0000
  Fe  Fe35      1.0  0.09936  0.76380  0.99293  1.0000
  C   C271      1.0  0.48866  0.73121  0.03956  1.0000
  Fe  Fe36      1.0  0.23649  0.53808  0.31993  1.0000
  H   H447      1.0  0.49762  0.81927  0.06051  1.0000
  H   H448      1.0  0.38070  0.93833  0.14487  1.0000
  H   H449      1.0  0.37840  0.98617  0.12482  1.0000
  H   H450      1.0  0.05457  0.54522  0.07563  1.0000
  H   H451      1.0  0.11944  0.00071  0.07704  1.0000
  H   H452      1.0  0.24922  0.55977  0.16372  1.0000
  H   H453      1.0  0.20850  0.76388  0.31193  1.0000
  H   H454      1.0  0.21316  0.59989  0.99197  1.0000
  H   H455      1.0  0.50270  0.87553  0.99256  1.0000
  C   C272      1.0  0.26322  0.54390  0.18293  1.0000
  H   H456      1.0  0.17222  0.69744  0.32269  1.0000
  S   S82       1.0  0.33250  0.89201  0.99373  1.0000
  H   H457      1.0  0.51341  0.93197  0.12237  1.0000
  H   H458      1.0  0.04630  0.96736  0.04801  1.0000
  C   C273      1.0  0.25262  0.99321  0.31745  1.0000
  H   H459      1.0  0.06177  0.02064  0.05406  1.0000
  C   C274      1.0  0.07563  0.95947  0.99428  1.0000
  Fe  Fe37      1.0  0.31675  0.52999  0.10158  1.0000
  S   S83       1.0  0.31143  0.61322  0.36070  1.0000
  H   H460      1.0  0.33556  0.78826  0.49730  1.0000
  Fe  Fe38      1.0  0.24419  0.60086  0.37002  1.0000
  S   S84       1.0  0.22778  0.63217  0.41217  1.0000
  S   S85       1.0  0.25057  0.53036  0.36700  1.0000
  H   H461      1.0  0.08928  0.94263  0.46525  1.0000
  Fe  Fe39      1.0  0.45119  0.77278  0.41885  1.0000
  S   S86       1.0  0.45550  0.76550  0.37106  1.0000
  S   S87       1.0  0.39046  0.75273  0.43931  1.0000
  S   S88       1.0  0.47305  0.88416  0.33824  1.0000
  Fe  Fe40      1.0  0.48097  0.83140  0.37085  1.0000
  H   H462      1.0  0.40997  0.65035  0.36994  1.0000
  H   H463      1.0  0.19485  0.92087  0.44935  1.0000
  S   S89       1.0  0.47142  0.84087  0.41790  1.0000
  H   H464      1.0  0.17132  0.85499  0.40845  1.0000
  Fe  Fe41      1.0  0.28572  0.97431  0.48613  1.0000
  S   S90       1.0  0.28782  0.97275  0.43798  1.0000
  H   H465      1.0  0.20273  0.93507  0.57095  1.0000
  Fe  Fe42      1.0  0.22401  0.00105  0.43774  1.0000
  S   S91       1.0  0.16720  0.98360  0.41029  1.0000
  S   S92       1.0  0.21957  0.99728  0.48548  1.0000
  S   S93       1.0  0.08118  0.75572  0.44482  1.0000
  H   H466      1.0  0.43334  0.64603  0.51097  1.0000
  C   C275      1.0  0.16714  0.94487  0.38329  1.0000
  C   C276      1.0  0.20347  0.92355  0.37630  1.0000
  C   C277      1.0  0.20228  0.89330  0.35435  1.0000
  C   C278      1.0  0.16458  0.88325  0.33986  1.0000
  C   C279      1.0  0.12812  0.90403  0.34719  1.0000
  C   C280      1.0  0.12951  0.93500  0.36871  1.0000
  H   H467      1.0  0.23243  0.93050  0.38767  1.0000
  C   C281      1.0  0.28154  0.79155  0.32680  1.0000
  H   H468      1.0  0.10127  0.95140  0.37406  1.0000
  H   H469      1.0  0.47502  0.77424  0.48632  1.0000
  S   S94       1.0  0.51552  0.74789  0.42853  1.0000
  C   C282      1.0  0.18397  0.66236  0.42175  1.0000
  C   C283      1.0  0.18297  0.67937  0.44953  1.0000
  C   C284      1.0  0.15051  0.70637  0.45750  1.0000
  C   C285      1.0  0.11929  0.71736  0.43743  1.0000
  C   C286      1.0  0.12023  0.70020  0.40971  1.0000
  C   C287      1.0  0.15177  0.67197  0.40212  1.0000
  H   H470      1.0  0.20777  0.67194  0.46480  1.0000
  H   H471      1.0  0.15028  0.71956  0.47883  1.0000
  H   H472      1.0  0.09647  0.70882  0.39392  1.0000
  H   H473      1.0  0.15156  0.65840  0.38089  1.0000
  C   C288      1.0  0.33431  0.66117  0.48562  1.0000
  C   C289      1.0  0.34223  0.69379  0.46602  1.0000
  C   C290      1.0  0.38279  0.70972  0.46278  1.0000
  H   H474      1.0  0.30303  0.64880  0.48747  1.0000
  H   H475      1.0  0.31671  0.70658  0.45317  1.0000
  H   H476      1.0  0.16279  0.84585  0.52841  1.0000
  Fe  Fe43      1.0  0.30284  0.58232  0.55214  1.0000
  S   S95       1.0  0.30723  0.59217  0.59980  1.0000
  S   S96       1.0  0.35941  0.60184  0.52632  1.0000
  H   H477      1.0  0.11045  0.95780  0.59555  1.0000
  Fe  Fe44      1.0  0.23880  0.60692  0.59720  1.0000
  H   H478      1.0  0.48858  0.87228  0.49807  1.0000
  S   S97       1.0  0.23538  0.60102  0.54895  1.0000
  H   H479      1.0  0.16176  0.96236  0.63635  1.0000
  Fe  Fe45      1.0  0.47428  0.82189  0.62624  1.0000
  S   S98       1.0  0.44877  0.87868  0.60139  1.0000
  C   C291      1.0  0.26358  0.77714  0.56523  1.0000
  S   S99       1.0  0.45255  0.75449  0.63054  1.0000
  H   H480      1.0  0.44704  0.70373  0.47649  1.0000
  S   S100      1.0  0.29838  0.91546  0.51287  1.0000
  Fe  Fe46      1.0  0.05019  0.83409  0.53787  1.0000
  H   H481      1.0  0.49501  0.75056  0.56725  1.0000
  S   S101      1.0  0.08316  0.89019  0.55912  1.0000
  Fe  Fe47      1.0  0.05147  0.77326  0.48674  1.0000
  S   S102      1.0  0.07081  0.76679  0.53325  1.0000
  C   C292      1.0  0.17817  0.89688  0.63456  1.0000
  H   H482      1.0  0.33649  0.96642  0.60173  1.0000
  C   C293      1.0  0.12723  0.92994  0.60244  1.0000
  C   C294      1.0  0.11975  0.89155  0.58817  1.0000
  C   C295      1.0  0.14124  0.85565  0.59743  1.0000
  C   C296      1.0  0.17009  0.85834  0.62068  1.0000
  H   H483      1.0  0.18946  0.00331  0.59248  1.0000
  H   H484      1.0  0.47531  0.58976  0.47041  1.0000
  H   H485      1.0  0.13539  0.82587  0.58682  1.0000
  H   H486      1.0  0.32066  0.77731  0.38170  1.0000
  C   C297      1.0  0.40611  0.88911  0.57751  1.0000
  C   C298      1.0  0.40414  0.92822  0.56332  1.0000
  C   C299      1.0  0.37159  0.93724  0.54332  1.0000
  C   C300      1.0  0.34048  0.90726  0.53763  1.0000
  C   C301      1.0  0.34232  0.86867  0.55206  1.0000
  C   C302      1.0  0.37483  0.85935  0.57185  1.0000
  H   H487      1.0  0.42823  0.95153  0.56757  1.0000
  H   H488      1.0  0.37080  0.96717  0.53227  1.0000
  H   H489      1.0  0.31837  0.84600  0.54736  1.0000
  H   H490      1.0  0.37582  0.82928  0.58266  1.0000
  N   N16       1.0  0.25789  0.76017  0.34458  1.0000
  H   H491      1.0  0.40893  0.63068  0.43461  1.0000
  C   C303      1.0  0.36703  0.64408  0.50218  1.0000
  C   C304      1.0  0.41564  0.69212  0.47894  1.0000
  C   C305      1.0  0.40774  0.65946  0.49851  1.0000
  H   H492      1.0  0.14194  0.96306  0.46618  1.0000
  H   H493      1.0  0.21812  0.83201  0.44317  1.0000
  C   C306      1.0  0.31186  0.97033  0.61772  1.0000
  H   H494      1.0  0.15514  0.91090  0.50872  1.0000
  H   H495      1.0  0.25647  0.85790  0.46551  1.0000
  C   C307      1.0  0.50189  0.78965  0.49771  1.0000
  H   H496      1.0  0.12386  0.81984  0.48538  1.0000
  H   H497      1.0  0.34569  0.77691  0.54725  1.0000
  C   C308      1.0  0.45463  0.79006  0.53896  1.0000
  C   C309      1.0  0.30801  0.77565  0.50849  1.0000
  H   H498      1.0  0.30271  0.53937  0.49281  1.0000
  H   H499      1.0  0.24650  0.76801  0.61024  1.0000
  C   C310      1.0  0.22851  0.76161  0.39606  1.0000
  H   H500      1.0  0.12611  0.90546  0.43172  1.0000
  H   H501      1.0  0.35736  0.68076  0.60228  1.0000
  C   C311      1.0  0.26829  0.97075  0.60316  1.0000
  H   H502      1.0  0.42739  0.78212  0.52473  1.0000
  H   H503      1.0  0.30463  0.80963  0.34012  1.0000
  H   H504      1.0  0.27013  0.70327  0.36922  1.0000
  N   N17       1.0  0.25612  0.01004  0.58681  1.0000
  S   S103      1.0  0.03570  0.84169  0.49078  1.0000
  C   C312      1.0  0.17953  0.67186  0.64470  1.0000
  H   H505      1.0  0.20696  0.79840  0.35959  1.0000
  H   H506      1.0  0.37511  0.66961  0.39594  1.0000
  H   H507      1.0  0.07310  0.72878  0.63248  1.0000
  H   H508      1.0  0.38808  0.59670  0.40767  1.0000
  C   C313      1.0  0.22637  0.56486  0.47129  1.0000
  N   N18       1.0  0.27979  0.02224  0.33555  1.0000
  H   H509      1.0  0.43017  0.57603  0.36936  1.0000
  H   H510      1.0  0.47455  0.72396  0.53529  1.0000
  H   H511      1.0  0.50934  0.84758  0.56088  1.0000
  C   C314      1.0  0.28700  0.72705  0.35646  1.0000
  H   H512      1.0  0.36574  0.87661  0.64663  1.0000
  C   C315      1.0  0.32392  0.74405  0.37507  1.0000
  H   H513      1.0  0.09543  0.86483  0.44685  1.0000
  N   N19       1.0  0.48700  0.81445  0.52294  1.0000
  H   H514      1.0  0.45988  0.87614  0.52989  1.0000
  H   H515      1.0  0.21235  0.90451  0.48364  1.0000
  H   H516      1.0  0.30230  0.95748  0.37515  1.0000
  H   H517      1.0  0.29167  0.71390  0.60033  1.0000
  H   H518      1.0  0.17060  0.73306  0.35204  1.0000
  H   H519      1.0  0.15815  0.60788  0.64072  1.0000
  H   H520      1.0  0.10663  0.88818  0.49958  1.0000
  H   H521      1.0  0.48123  0.64567  0.43961  1.0000
  H   H522      1.0  0.10720  0.77211  0.62352  1.0000
  S   S104      1.0  0.22031  0.66717  0.62007  1.0000
  H   H523      1.0  0.48275  0.53978  0.42765  1.0000
  C   C316      1.0  0.06412  0.84062  0.64753  1.0000
  H   H524      1.0  0.19229  0.73755  0.65290  1.0000
  H   H525      1.0  0.08304  0.74042  0.59615  1.0000
  H   H526      1.0  0.11794  0.84524  0.40008  1.0000
  H   H527      1.0  0.28291  0.80377  0.57346  1.0000
  C   C317      1.0  0.45465  0.55959  0.42961  1.0000
  Fe  Fe48      1.0  0.22081  0.53286  0.55755  1.0000
  H   H528      1.0  0.22915  0.95846  0.54123  1.0000
  H   H529      1.0  0.31408  0.94246  0.63197  1.0000
  C   C318      1.0  0.46083  0.58497  0.37949  1.0000
  C   C319      1.0  0.04010  0.78473  0.61494  1.0000
  C   C320      1.0  0.07812  0.75511  0.61736  1.0000
  Fe  Fe49      1.0  0.31687  0.54327  0.35559  1.0000
  H   H530      1.0  0.21190  0.84112  0.51026  1.0000
  C   C321      1.0  0.22727  0.71371  0.52626  1.0000
  H   H531      1.0  0.24830  0.54785  0.42993  1.0000
  H   H532      1.0  0.25129  0.58878  0.47472  1.0000
  H   H533      1.0  0.21422  0.73857  0.58509  1.0000
  H   H534      1.0  0.33537  0.66580  0.56817  1.0000
  H   H535      1.0  0.19860  0.58180  0.46254  1.0000
  H   H536      1.0  0.35474  0.82288  0.63725  1.0000
  H   H537      1.0  0.24591  0.78929  0.54634  1.0000
  H   H538      1.0  0.48991  0.02326  0.45091  1.0000
  Fe  Fe50      1.0  0.52155  0.74477  0.38080  1.0000
  H   H539      1.0  0.17419  0.96588  0.54533  1.0000
  H   H540      1.0  0.32928  0.75427  0.59535  1.0000
  C   C322      1.0  0.21228  0.00365  0.57490  1.0000
  H   H541      1.0  0.28610  0.68237  0.53344  1.0000
  H   H542      1.0  0.24548  0.00213  0.37242  1.0000
  H   H543      1.0  0.11025  0.96697  0.49697  1.0000
  H   H544      1.0  0.18616  0.83042  0.62815  1.0000
  H   H545      1.0  0.16975  0.80787  0.46814  1.0000
  H   H546      1.0  0.52094  0.55078  0.38399  1.0000
  H   H547      1.0  0.24325  0.87829  0.43102  1.0000
  H   H548      1.0  0.14390  0.81112  0.42460  1.0000
  H   H549      1.0  0.18085  0.79551  0.51799  1.0000
  H   H550      1.0  0.25727  0.75862  0.40962  1.0000
  N   N20       1.0  0.15471  0.87504  0.46891  1.0000
  C   C323      1.0  0.13393  0.90376  0.49009  1.0000
  C   C324      1.0  0.15608  0.83178  0.48222  1.0000
  C   C325      1.0  0.12799  0.87382  0.44181  1.0000
  C   C326      1.0  0.19748  0.89271  0.46336  1.0000
  C   C327      1.0  0.11819  0.94649  0.47863  1.0000
  C   C328      1.0  0.17952  0.82900  0.51138  1.0000
  C   C329      1.0  0.14179  0.84432  0.41778  1.0000
  C   C330      1.0  0.22991  0.86299  0.45013  1.0000
  H   H551      1.0  0.23365  0.73491  0.50824  1.0000
  C   C331      1.0  0.46820  0.74764  0.55202  1.0000
  H   H552      1.0  0.35220  0.94708  0.36073  1.0000
  H   H553      1.0  0.42882  0.82587  0.47651  1.0000
  S   S105      1.0  0.21918  0.54009  0.60530  1.0000
  H   H554      1.0  0.31828  0.99817  0.63141  1.0000
  H   H555      1.0  0.47226  0.61197  0.36656  1.0000
  H   H556      1.0  0.51512  0.81125  0.48157  1.0000
  H   H557      1.0  0.29464  0.98738  0.55279  1.0000
  H   H558      1.0  0.04643  0.80669  0.59703  1.0000
  C   C332      1.0  0.15624  0.93263  0.62558  1.0000
  H   H559      1.0  0.38989  0.84681  0.33086  1.0000
  H   H560      1.0  0.02938  0.83432  0.42198  1.0000
  H   H561      1.0  0.09400  0.82476  0.65341  1.0000
  H   H562      1.0  0.44266  0.80959  0.55668  1.0000
  C   C333      1.0  0.46690  0.85452  0.51188  1.0000
  H   H563      1.0  0.21741  0.55146  0.49205  1.0000
  N   N21       1.0  0.29079  0.74063  0.55744  1.0000
  H   H564      1.0  0.39941  0.84135  0.50742  1.0000
  C   C334      1.0  0.23154  0.76834  0.58852  1.0000
  H   H565      1.0  0.20128  0.72674  0.53856  1.0000
  C   C335      1.0  0.41404  0.61930  0.41252  1.0000
  C   C336      1.0  0.48976  0.54746  0.37363  1.0000
  H   H566      1.0  0.49148  0.65469  0.40366  1.0000
  H   H567      1.0  0.32115  0.86386  0.62483  1.0000
  H   H568      1.0  0.30681  0.93254  0.34035  1.0000
  H   H569      1.0  0.32653  0.72529  0.39510  1.0000
  H   H570      1.0  0.24520  0.96417  0.62002  1.0000
  C   C337      1.0  0.23703  0.78504  0.36782  1.0000
  C   C338      1.0  0.42611  0.84941  0.49384  1.0000
  H   H571      1.0  0.28698  0.80268  0.51151  1.0000
  H   H572      1.0  0.26792  0.94272  0.58889  1.0000
  H   H573      1.0  0.30000  0.70817  0.33883  1.0000
  H   H574      1.0  0.21504  0.73007  0.39271  1.0000
  H   H575      1.0  0.20577  0.68805  0.35295  1.0000
  N   N22       1.0  0.03000  0.80871  0.64174  1.0000
  H   H576      1.0  0.42838  0.53851  0.42295  1.0000
  C   C339      1.0  0.20466  0.96332  0.55708  1.0000
  H   H577      1.0  0.45340  0.53837  0.47385  1.0000
  H   H578      1.0  0.34254  0.72756  0.52980  1.0000
  H   H579      1.0  0.03697  0.79521  0.39528  1.0000
  H   H580      1.0  0.09899  0.89662  0.33606  1.0000
  H   H581      1.0  0.44222  0.73469  0.56451  1.0000
  C   C340      1.0  0.40722  0.65794  0.39298  1.0000
  C   C341      1.0  0.34050  0.85296  0.64346  1.0000
  C   C342      1.0  0.26588  0.70387  0.54563  1.0000
  H   H582      1.0  0.20819  0.79389  0.58806  1.0000
  H   H583      1.0  0.25579  0.81322  0.37433  1.0000
  H   H584      1.0  0.23070  0.87777  0.34849  1.0000
  H   H585      1.0  0.21533  0.68378  0.51682  1.0000
  H   H586      1.0  0.35373  0.74010  0.36384  1.0000
  C   C343      1.0  0.32123  0.00061  0.34069  1.0000
  C   C344      1.0  0.31980  0.95693  0.35507  1.0000
  H   H587      1.0  0.25395  0.68437  0.56341  1.0000
  H   H588      1.0  0.37542  0.70575  0.57075  1.0000
  C   C345      1.0  0.32332  0.75468  0.53661  1.0000
  C   C346      1.0  0.48922  0.62878  0.41960  1.0000
  C   C347      1.0  0.19187  0.71324  0.33947  1.0000
  C   C348      1.0  0.34728  0.69287  0.58087  1.0000
  H   H589      1.0  0.29367  0.75244  0.49358  1.0000
  C   C349      1.0  0.31370  0.72689  0.58455  1.0000
  H   H590      1.0  0.07043  0.85908  0.62804  1.0000
  H   H591      1.0  0.41829  0.88001  0.48351  1.0000
  H   H592      1.0  0.20570  0.77953  0.40846  1.0000
  H   H593      1.0  0.18856  0.01033  0.32821  1.0000
  N   N23       1.0  0.45573  0.59780  0.41042  1.0000
  H   H594      1.0  0.42854  0.68417  0.39902  1.0000
  C   C350      1.0  0.23905  0.53082  0.44961  1.0000
  H   H595      1.0  0.31342  0.55596  0.45745  1.0000
  H   H596      1.0  0.24737  0.96287  0.32857  1.0000
  C   C351      1.0  0.28489  0.01775  0.56227  1.0000
  H   H597      1.0  0.32130  0.76551  0.65037  1.0000
  H   H598      1.0  0.49423  0.54498  0.35018  1.0000
  C   C352      1.0  0.45048  0.56850  0.46189  1.0000
  H   H599      1.0  0.41944  0.58138  0.46680  1.0000
  Fe  Fe51      1.0  0.52090  0.73811  0.62618  1.0000
  C   C353      1.0  0.15402  0.63770  0.65140  1.0000
  C   C354      1.0  0.52179  0.82758  0.54351  1.0000
  H   H600      1.0  0.34223  0.02005  0.35477  1.0000
  H   H601      1.0  0.51501  0.53023  0.61281  1.0000
  C   C355      1.0  0.22544  0.73977  0.32502  1.0000
  H   H602      1.0  0.16828  0.76467  0.73632  1.0000
  Fe  Fe52      1.0  0.28944  0.57761  0.79712  1.0000
  S   S106      1.0  0.29410  0.59658  0.84366  1.0000
  S   S107      1.0  0.30741  0.60786  0.75509  1.0000
  H   H603      1.0  0.16226  0.74733  0.83372  1.0000
  Fe  Fe53      1.0  0.22692  0.57574  0.84645  1.0000
  S   S108      1.0  0.16921  0.60806  0.86361  1.0000
  S   S109      1.0  0.22124  0.56216  0.79926  1.0000
  H   H604      1.0  0.38617  0.70258  0.94600  1.0000
  S   S110      1.0  0.48670  0.82997  0.67356  1.0000
  H   H605      1.0  0.20667  0.62289  0.70042  1.0000
  Fe  Fe54      1.0  0.46988  0.76142  0.67765  1.0000
  S   S111      1.0  0.43924  0.74635  0.71974  1.0000
  H   H606      1.0  0.26343  0.66522  0.79154  1.0000
  H   H607      1.0  0.18170  0.70645  0.85685  1.0000
  Fe  Fe55      1.0  0.48218  0.73106  0.92696  1.0000
  S   S112      1.0  0.47429  0.71641  0.88006  1.0000
  S   S113      1.0  0.47242  0.68560  0.96375  1.0000
  H   H608      1.0  0.49013  0.87548  0.78670  1.0000
  Fe  Fe56      1.0  0.45158  0.78328  0.87553  1.0000
  S   S114      1.0  0.39238  0.79232  0.84828  1.0000
  Fe  Fe57      1.0  0.29983  0.95200  0.97863  1.0000
  S   S115      1.0  0.45548  0.79591  0.92296  1.0000
  H   H609      1.0  0.21950  0.74336  0.73642  1.0000
  Fe  Fe58      1.0  0.29482  0.97286  0.74237  1.0000
  S   S116      1.0  0.30442  0.96993  0.69501  1.0000
  S   S117      1.0  0.34690  0.95483  0.77425  1.0000
  H   H610      1.0  0.15555  0.67946  0.81304  1.0000
  Fe  Fe59      1.0  0.23589  0.95486  0.69026  1.0000
  S   S118      1.0  0.22777  0.95257  0.73805  1.0000
  H   H611      1.0  0.18580  0.63953  0.75752  1.0000
  H   H612      1.0  0.15558  0.74341  0.78463  1.0000
  S   S119      1.0  0.29997  0.96136  0.93060  1.0000
  H   H613      1.0  0.14753  0.61880  0.78062  1.0000
  Fe  Fe60      1.0  0.23196  0.97660  0.93411  1.0000
  S   S120      1.0  0.17401  0.96508  0.90592  1.0000
  C   C356      1.0  0.07516  0.84406  0.90439  1.0000
  S   S121      1.0  0.15286  0.73354  0.96906  1.0000
  Fe  Fe61      1.0  0.08311  0.80385  0.78712  1.0000
  S   S122      1.0  0.07827  0.80709  0.73899  1.0000
  S   S123      1.0  0.14281  0.82458  0.81071  1.0000
  Fe  Fe62      1.0  0.05970  0.73900  0.74027  1.0000
  S   S124      1.0  0.07953  0.68342  0.71308  1.0000
  S   S125      1.0  0.06932  0.73423  0.78790  1.0000
  C   C357      1.0  0.16535  0.92562  0.87974  1.0000
  C   C358      1.0  0.12945  0.92749  0.86184  1.0000
  C   C359      1.0  0.12168  0.89663  0.84064  1.0000
  C   C360      1.0  0.15011  0.86399  0.83707  1.0000
  C   C361      1.0  0.18617  0.86246  0.85476  1.0000
  C   C362      1.0  0.19347  0.89280  0.87627  1.0000
  H   H614      1.0  0.10753  0.95294  0.86435  1.0000
  H   H615      1.0  0.09402  0.89843  0.82691  1.0000
  H   H616      1.0  0.20844  0.83760  0.85177  1.0000
  H   H617      1.0  0.22066  0.89102  0.89021  1.0000
  C   C363      1.0  0.37910  0.83847  0.82890  1.0000
  C   C364      1.0  0.34230  0.83889  0.81179  1.0000
  C   C365      1.0  0.33095  0.87488  0.79579  1.0000
  C   C366      1.0  0.35694  0.91030  0.79614  1.0000
  C   C367      1.0  0.39309  0.91024  0.81386  1.0000
  C   C368      1.0  0.40401  0.87463  0.83035  1.0000
  H   H618      1.0  0.32251  0.81125  0.81094  1.0000
  H   H619      1.0  0.30240  0.87512  0.78300  1.0000
  H   H620      1.0  0.41309  0.93777  0.81456  1.0000
  H   H621      1.0  0.43199  0.87500  0.84380  1.0000
  C   C369      1.0  0.16490  0.64055  0.89421  1.0000
  C   C370      1.0  0.19981  0.65303  0.91063  1.0000
  C   C371      1.0  0.19527  0.68075  0.93388  1.0000
  C   C372      1.0  0.15586  0.69632  0.94091  1.0000
  C   C373      1.0  0.12081  0.68323  0.92480  1.0000
  C   C374      1.0  0.12540  0.65561  0.90148  1.0000
  H   H622      1.0  0.23025  0.64154  0.90522  1.0000
  H   H623      1.0  0.22247  0.69021  0.94653  1.0000
  H   H624      1.0  0.09027  0.69441  0.93023  1.0000
  H   H625      1.0  0.09817  0.64589  0.88895  1.0000
  C   C375      1.0  0.34897  0.64190  0.74640  1.0000
  C   C376      1.0  0.36993  0.66644  0.76708  1.0000
  C   C377      1.0  0.39831  0.69770  0.75858  1.0000
  C   C378      1.0  0.40718  0.70353  0.72950  1.0000
  C   C379      1.0  0.38807  0.67729  0.70902  1.0000
  C   C380      1.0  0.35846  0.64721  0.71740  1.0000
  H   H626      1.0  0.36288  0.66272  0.78946  1.0000
  H   H627      1.0  0.41304  0.71780  0.77463  1.0000
  H   H628      1.0  0.39511  0.68101  0.68665  1.0000
  H   H629      1.0  0.34252  0.62818  0.70126  1.0000
  H   H630      1.0  0.17514  0.70910  0.73668  1.0000
  H   H631      1.0  0.05572  0.86236  0.91930  1.0000
  H   H632      1.0  0.24104  0.54636  0.91720  1.0000
  C   C381      1.0  0.11732  0.68067  0.68613  1.0000
  C   C382      1.0  0.14187  0.71529  0.67869  1.0000
  C   C383      1.0  0.05647  0.87291  0.67136  1.0000
  H   H633      1.0  0.39429  0.82454  0.68133  1.0000
  H   H634      1.0  0.24135  0.67958  0.75811  1.0000
  H   H635      1.0  0.13709  0.74539  0.68885  1.0000
  H   H636      1.0  0.36984  0.82033  0.91156  1.0000
  H   H637      1.0  0.34165  0.80585  0.97385  1.0000
  C   C384      1.0  0.24818  0.99421  0.81017  1.0000
  H   H638      1.0  0.48143  0.83248  0.80989  1.0000
  C   C385      1.0  0.08273  0.77867  0.87750  1.0000
  H   H639      1.0  0.20172  0.75892  0.86023  1.0000
  H   H640      1.0  0.13761  0.66784  0.76383  1.0000
  H   H641      1.0  0.30497  0.72626  0.79558  1.0000
  H   H642      1.0  0.20203  0.77311  0.78349  1.0000
  H   H643      1.0  0.27129  0.75801  0.77305  1.0000
  H   H644      1.0  0.30255  0.71819  0.75754  1.0000
  N   N24       1.0  0.30436  0.80848  0.91845  1.0000
  C   C386      1.0  0.47975  0.57427  0.91375  1.0000
  C   C387      1.0  0.29711  0.82027  0.88743  1.0000
  C   C388      1.0  0.30568  0.76107  0.92162  1.0000
  H   H645      1.0  0.11508  0.81081  0.93635  1.0000
  H   H646      1.0  0.12726  0.86558  0.93156  1.0000
  H   H647      1.0  0.05316  0.56801  0.83447  1.0000
  H   H648      1.0  0.24425  0.74406  0.90135  1.0000
  C   C389      1.0  0.22703  0.81103  0.93309  1.0000
  H   H649      1.0  0.29110  0.88921  0.89371  1.0000
  H   H650      1.0  0.30878  0.95600  0.85988  1.0000
  H   H651      1.0  0.26487  0.81275  0.88007  1.0000
  H   H652      1.0  0.31728  0.80106  0.87368  1.0000
  H   H653      1.0  0.24318  0.92723  0.80060  1.0000
  C   C390      1.0  0.33863  0.75720  0.67040  1.0000
  H   H654      1.0  0.06080  0.76533  0.93030  1.0000
  C   C391      1.0  0.25050  0.54503  0.98138  1.0000
  S   S126      1.0  0.23063  0.96269  0.98122  1.0000
  H   H655      1.0  0.44892  0.86338  0.98814  1.0000
  H   H656      1.0  0.03259  0.83862  0.85493  1.0000
  H   H657      1.0  0.25878  0.60382  0.70297  1.0000
  H   H658      1.0  0.28837  0.73575  0.87890  1.0000
  H   H659      1.0  0.08378  0.89448  0.67316  1.0000
  H   H660      1.0  0.45040  0.56995  0.90097  1.0000
  H   H661      1.0  0.42321  0.85040  0.77406  1.0000
  C   C392      1.0  0.34810  0.67261  0.97779  1.0000
  H   H662      1.0  0.21493  0.81415  0.91082  1.0000
  S   S127      1.0  0.21676  0.02251  0.68553  1.0000
  H   H663      1.0  0.10410  0.61524  0.67751  1.0000
  H   H664      1.0  0.51435  0.76493  0.80371  1.0000
  H   H665      1.0  0.25055  0.99088  0.87363  1.0000
  H   H666      1.0  0.33561  0.76700  0.71594  1.0000
  C   C393      1.0  0.31252  0.84970  0.66987  1.0000
  H   H667      1.0  0.43777  0.79653  0.77436  1.0000
  H   H668      1.0  0.12373  0.97658  0.96300  1.0000
  H   H669      1.0  0.27052  0.86257  0.93379  1.0000
  C   C394      1.0  0.39050  0.88230  0.70554  1.0000
  H   H670      1.0  0.02877  0.89272  0.66685  1.0000
  H   H671      1.0  0.30310  0.88255  0.67454  1.0000
  H   H672      1.0  0.38957  0.81765  0.71852  1.0000
  N   N25       1.0  0.05215  0.80543  0.89331  1.0000
  H   H673      1.0  0.33993  0.87316  0.87935  1.0000
  H   H674      1.0  0.22468  0.77783  0.94017  1.0000
  H   H675      1.0  0.09748  0.79760  0.86043  1.0000
  H   H676      1.0  0.32335  0.57803  0.94599  1.0000
  C   C395      1.0  0.02762  0.77960  0.66714  1.0000
  H   H677      1.0  0.05882  0.76650  0.67303  1.0000
  H   H678      1.0  0.14166  0.82870  0.90493  1.0000
  H   H679      1.0  0.22997  0.00529  0.79104  1.0000
  H   H680      1.0  0.09143  0.72271  0.85194  1.0000
  H   H681      1.0  0.33755  0.74912  0.91734  1.0000
  H   H682      1.0  0.18274  0.55461  0.98212  1.0000
  C   C396      1.0  0.11712  0.83632  0.92031  1.0000
  H   H683      1.0  0.28311  0.83357  0.66280  1.0000
  C   C397      1.0  0.21132  0.57268  0.97704  1.0000
  H   H684      1.0  0.24402  0.75365  0.82110  1.0000
  H   H685      1.0  0.45382  0.83159  0.74588  1.0000
  H   H686      1.0  0.42439  0.88588  0.70195  1.0000
  H   H687      1.0  0.15779  0.55066  0.73992  1.0000
  H   H688      1.0  0.10847  0.76780  0.89209  1.0000
  H   H689      1.0  0.19963  0.64622  0.81292  1.0000
  C   C398      1.0  0.23233  0.94952  0.81708  1.0000
  C   C399      1.0  0.42385  0.67095  0.97793  1.0000
  C   C400      1.0  0.30591  0.86655  0.87939  1.0000
  H   H690      1.0  0.29351  0.87266  0.85735  1.0000
  C   C401      1.0  0.27177  0.82796  0.93699  1.0000
  H   H691      1.0  0.27910  0.70127  0.90797  1.0000
  C   C402      1.0  0.44893  0.82866  0.76913  1.0000
  H   H692      1.0  0.37382  0.90483  0.69130  1.0000
  H   H693      1.0  0.24657  0.70145  0.83470  1.0000
  H   H694      1.0  0.28016  0.99099  0.80248  1.0000
  C   C403      1.0  0.38604  0.68406  0.96538  1.0000
  H   H695      1.0  0.05694  0.61359  0.79828  1.0000
  H   H696      1.0  0.31894  0.68291  0.96805  1.0000
  C   C404      1.0  0.37711  0.83613  0.70001  1.0000
  H   H697      1.0  0.20610  0.82957  0.94681  1.0000
  N   N26       1.0  0.33086  0.82875  0.69637  1.0000
  C   C405      1.0  0.31071  0.84666  0.72254  1.0000
  H   H698      1.0  0.33461  0.00115  0.87352  1.0000
  C   C406      1.0  0.32243  0.78194  0.69605  1.0000
  H   H699      1.0  0.29896  0.75169  0.94403  1.0000
  C   C407      1.0  0.26369  0.83783  0.72536  1.0000
  H   H700      1.0  0.20800  0.58531  0.95499  1.0000
  H   H701      1.0  0.04073  0.74432  0.84741  1.0000
  H   H702      1.0  0.39032  0.82865  0.96430  1.0000
  H   H703      1.0  0.32662  0.83456  0.74238  1.0000
  H   H704      1.0  0.31418  0.88155  0.72331  1.0000
  H   H705      1.0  0.28840  0.77518  0.69578  1.0000
  H   H706      1.0  0.22129  0.58803  0.72916  1.0000
  S   S128      1.0  0.51496  0.81039  0.86759  1.0000
  C   C408      1.0  0.36453  0.80784  0.95662  1.0000
  H   H707      1.0  0.37272  0.76073  0.66806  1.0000
  H   H708      1.0  0.08167  0.86615  0.88664  1.0000
  H   H709      1.0  0.25828  0.80558  0.73337  1.0000
  H   H710      1.0  0.25064  0.85959  0.74138  1.0000
  H   H711      1.0  0.24596  0.84241  0.70497  1.0000
  H   H712      1.0  0.19773  0.94821  0.81633  1.0000
  H   H713      1.0  0.13402  0.92832  0.98249  1.0000
  C   C409      1.0  0.12332  0.64203  0.67218  1.0000
  C   C410      1.0  0.29419  0.58056  0.93303  1.0000
  C   C411      1.0  0.03519  0.78213  0.91859  1.0000
  H   H714      1.0  0.37804  0.77621  0.95363  1.0000
  H   H715      1.0  0.49706  0.76153  0.76737  1.0000
  H   H716      1.0  0.27936  0.53755  0.72223  1.0000
  H   H717      1.0  0.48155  0.79623  0.98473  1.0000
  C   C412      1.0  0.22574  0.59495  0.70623  1.0000
  N   N27       1.0  0.21096  0.70732  0.79468  1.0000
  C   C413      1.0  0.22534  0.72430  0.82356  1.0000
  C   C414      1.0  0.24915  0.69230  0.77974  1.0000
  C   C415      1.0  0.18256  0.67032  0.80003  1.0000
  C   C416      1.0  0.18848  0.74166  0.77820  1.0000
  C   C417      1.0  0.19056  0.73486  0.84460  1.0000
  C   C418      1.0  0.28370  0.72590  0.77639  1.0000
  C   C419      1.0  0.16281  0.64836  0.77362  1.0000
  C   C420      1.0  0.18809  0.73892  0.74516  1.0000
  C   C421      1.0  0.52301  0.77337  0.78144  1.0000
  H   H718      1.0  0.05550  0.71499  0.87954  1.0000
  H   H719      1.0  0.24413  0.93799  0.83808  1.0000
  H   H720      1.0  0.34481  0.86076  0.93094  1.0000
  C   C422      1.0  0.48809  0.84061  0.78728  1.0000
  H   H721      1.0  0.51681  0.59651  0.87954  1.0000
  H   H722      1.0  0.51663  0.81274  0.73300  1.0000
  S   S129      1.0  0.02893  0.76486  0.98969  1.0000
  H   H723      1.0  0.27490  0.60569  0.94233  1.0000
  H   H724      1.0  0.38543  0.89139  0.72816  1.0000
  H   H725      1.0  0.28000  0.82426  0.96003  1.0000
  C   C423      1.0  0.27730  0.73473  0.90120  1.0000
  H   H726      1.0  0.47882  0.60656  0.92289  1.0000
  H   H727      1.0  0.30306  0.59145  0.91143  1.0000
  H   H728      1.0  0.09472  0.92979  0.95480  1.0000
  C   C424      1.0  0.34623  0.82591  0.92820  1.0000
  C   C425      1.0  0.31198  0.99042  0.85663  1.0000
  S   S130      1.0  0.21699  0.89874  0.66223  1.0000
  H   H729      1.0  0.18760  0.99963  0.84898  1.0000
  C   C426      1.0  0.03704  0.53887  0.82682  1.0000
  C   C427      1.0  0.06581  0.73812  0.86346  1.0000
  H   H730      1.0  0.48315  0.55203  0.84661  1.0000
  H   H731      1.0  0.33229  0.72321  0.67386  1.0000
  C   C428      1.0  0.51888  0.57033  0.89534  1.0000
  H   H732      1.0  0.48043  0.55224  0.93217  1.0000
  Fe  Fe63      1.0  0.21342  0.02175  0.73356  1.0000
  H   H733      1.0  0.22864  0.56300  0.66591  1.0000
  C   C429      1.0  0.21348  0.55750  0.68677  1.0000
  C   C430      1.0  0.10933  0.94834  0.97260  1.0000
  H   H734      1.0  0.04757  0.96861  0.98152  1.0000
  H   H735      1.0  0.05346  0.85766  0.69239  1.0000
  C   C431      1.0  0.26987  0.53854  0.92991  1.0000
  Fe  Fe64      1.0  0.52103  0.81758  0.91524  1.0000
  H   H736      1.0  0.17972  0.56032  0.68183  1.0000
  H   H737      1.0  0.27710  0.56637  0.98593  1.0000
  N   N28       1.0  0.24559  0.02591  0.83405  1.0000
  H   H738      1.0  0.32707  0.99626  0.83605  1.0000
  C   C432      1.0  0.26971  0.01289  0.86081  1.0000
  H   H739      1.0  0.50679  0.89147  0.74184  1.0000
  C   C433      1.0  0.17303  0.71079  0.65821  1.0000
  S   S131      1.0  0.31754  0.01928  0.98879  1.0000
  H   H740      1.0  0.33594  0.53306  0.98841  1.0000
  Fe  Fe65      1.0  0.31352  0.02932  0.94118  1.0000
  C   C434      1.0  0.64352  0.20701  0.31868  1.0000
  S   S132      1.0  0.96364  0.29304  0.04850  1.0000
  H   H741      1.0  0.63898  0.08420  0.17447  1.0000
  H   H742      1.0  0.55230  0.45670  0.15657  1.0000
  Fe  Fe66      1.0  0.98707  0.22670  0.04657  1.0000
  S   S133      1.0  0.96973  0.16830  0.07150  1.0000
  C   C435      1.0  0.84773  0.20288  0.03421  1.0000
  H   H743      1.0  0.86633  0.29492  0.26767  1.0000
  Fe  Fe67      1.0  0.95863  0.31107  0.25057  1.0000
  S   S134      1.0  0.95427  0.31411  0.29866  1.0000
  S   S135      1.0  0.90469  0.32239  0.21897  1.0000
  H   H744      1.0  0.92544  0.30340  0.10978  1.0000
  H   H745      1.0  0.55467  0.48597  0.20286  1.0000
  Fe  Fe68      1.0  0.97984  0.24853  0.29904  1.0000
  H   H746      1.0  0.75292  0.12355  0.13333  1.0000
  S   S136      1.0  0.97946  0.24372  0.25113  1.0000
  C   C436      1.0  0.61043  0.47269  0.32409  1.0000
  Fe  Fe69      1.0  0.82928  0.50032  0.11122  1.0000
  S   S137      1.0  0.83505  0.49220  0.06394  1.0000
  S   S138      1.0  0.88433  0.48559  0.14113  1.0000
  H   H747      1.0  0.71370  0.09409  0.07576  1.0000
  Fe  Fe70      1.0  0.76713  0.47417  0.06304  1.0000
  S   S139      1.0  0.75130  0.41477  0.03758  1.0000
  H   H748      1.0  0.75853  0.48799  0.00165  1.0000
  S   S140      1.0  0.76314  0.47705  0.11099  1.0000
  C   C437      1.0  0.57126  0.27978  0.00286  1.0000
  H   H749      1.0  0.78954  0.24207  0.06964  1.0000
  H   H750      1.0  0.86261  0.50650  0.20286  1.0000
  S   S141      1.0  0.74883  0.41612  0.29449  1.0000
  Fe  Fe71      1.0  0.80819  0.09831  0.18978  1.0000
  S   S142      1.0  0.81641  0.10186  0.23752  1.0000
  S   S143      1.0  0.82750  0.15393  0.16256  1.0000
  C   C438      1.0  0.56102  0.30861  0.05211  1.0000
  Fe  Fe72      1.0  0.74671  0.10060  0.23900  1.0000
  S   S144      1.0  0.71761  0.15828  0.25848  1.0000
  H   H751      1.0  0.55349  0.37477  0.31913  1.0000
  S   S145      1.0  0.73871  0.09956  0.19151  1.0000
  C   C439      1.0  0.53668  0.09646  0.15606  1.0000
  Fe  Fe73      1.0  0.58855  0.34687  0.17319  1.0000
  S   S146      1.0  0.58851  0.34596  0.12507  1.0000
  S   S147      1.0  0.60871  0.40726  0.19580  1.0000
  Fe  Fe74      1.0  0.60535  0.27740  0.12911  1.0000
  S   S148      1.0  0.65691  0.25391  0.10058  1.0000
  S   S149      1.0  0.61013  0.27978  0.17751  1.0000
  C   C440      1.0  0.66500  0.13975  0.04026  1.0000
  C   C441      1.0  0.62985  0.14466  0.05734  1.0000
  C   C442      1.0  0.62655  0.17939  0.07599  1.0000
  C   C443      1.0  0.65838  0.20960  0.07753  1.0000
  C   C444      1.0  0.69319  0.20469  0.06027  1.0000
  C   C445      1.0  0.69661  0.17002  0.04177  1.0000
  H   H752      1.0  0.60537  0.12112  0.05645  1.0000
  H   H753      1.0  0.59968  0.18257  0.08929  1.0000
  H   H754      1.0  0.71779  0.22777  0.06152  1.0000
  H   H755      1.0  0.72386  0.16624  0.02893  1.0000
  C   C446      1.0  0.68048  0.16234  0.28536  1.0000
  C   C447      1.0  0.66059  0.12700  0.29640  1.0000
  H   H756      1.0  0.85234  0.37836  0.03264  1.0000
  C   C448      1.0  0.78404  0.06508  0.31411  1.0000
  H   H757      1.0  0.81122  0.43114  0.21386  1.0000
  H   H758      1.0  0.66661  0.09627  0.28755  1.0000
  C   C449      1.0  0.80039  0.10275  0.07695  1.0000
  N   N29       1.0  0.00296  0.25539  0.15300  1.0000
  C   C450      1.0  0.70981  0.41437  0.26710  1.0000
  C   C451      1.0  0.70151  0.37614  0.25301  1.0000
  C   C452      1.0  0.67045  0.37335  0.23124  1.0000
  C   C453      1.0  0.64735  0.40895  0.22345  1.0000
  C   C454      1.0  0.65525  0.44715  0.23783  1.0000
  C   C455      1.0  0.68624  0.44982  0.25968  1.0000
  H   H759      1.0  0.71919  0.34854  0.25892  1.0000
  H   H760      1.0  0.66452  0.34375  0.22040  1.0000
  H   H761      1.0  0.63736  0.47478  0.23197  1.0000
  H   H762      1.0  0.69179  0.47917  0.27084  1.0000
  C   C456      1.0  0.70581  0.40725  0.01584  1.0000
  H   H763      1.0  0.64140  0.40024  0.30144  1.0000
  C   C457      1.0  0.80025  0.27415  0.06367  1.0000
  H   H764      1.0  0.74789  0.27651  0.01631  1.0000
  H   H765      1.0  0.57964  0.28837  0.06710  1.0000
  C   C458      1.0  0.89963  0.36786  0.19741  1.0000
  C   C459      1.0  0.86563  0.37093  0.17789  1.0000
  C   C460      1.0  0.86047  0.40675  0.16041  1.0000
  C   C461      1.0  0.88934  0.43977  0.16240  1.0000
  C   C462      1.0  0.92327  0.43669  0.18194  1.0000
  C   C463      1.0  0.92851  0.40083  0.19932  1.0000
  H   H766      1.0  0.84314  0.34549  0.17632  1.0000
  H   H767      1.0  0.83418  0.40880  0.14548  1.0000
  H   H768      1.0  0.94553  0.46228  0.18379  1.0000
  H   H769      1.0  0.95468  0.39890  0.21437  1.0000
  C   C464      1.0  0.92965  0.16464  0.09640  1.0000
  C   C465      1.0  0.92620  0.12785  0.11288  1.0000
  C   C466      1.0  0.89508  0.12397  0.13335  1.0000
  C   C467      1.0  0.86728  0.15697  0.13742  1.0000
  C   C468      1.0  0.87072  0.19378  0.12094  1.0000
  C   C469      1.0  0.90181  0.19763  0.10048  1.0000
  H   H770      1.0  0.94784  0.10229  0.10987  1.0000
  H   H771      1.0  0.89278  0.09562  0.14606  1.0000
  H   H772      1.0  0.84929  0.21946  0.12414  1.0000
  H   H773      1.0  0.90440  0.22610  0.08800  1.0000
  C   C470      1.0  0.84350  0.09018  0.06616  1.0000
  H   H774      1.0  0.58016  0.31110  0.99447  1.0000
  H   H775      1.0  0.73672  0.30176  0.05925  1.0000
  C   C471      1.0  0.67362  0.43674  0.01492  1.0000
  H   H776      1.0  0.70099  0.52824  0.99600  1.0000
  H   H777      1.0  0.98709  0.41339  0.08959  1.0000
  N   N30       1.0  0.81184  0.27558  0.03256  1.0000
  H   H778      1.0  0.77624  0.33801  0.07237  1.0000
  C   C472      1.0  0.53062  0.49304  0.10462  1.0000
  N   N31       1.0  0.98036  0.47785  0.07482  1.0000
  H   H779      1.0  0.62065  0.33451  0.03670  1.0000
  H   H780      1.0  0.87622  0.26235  0.04401  1.0000
  H   H781      1.0  0.75218  0.43900  0.17777  1.0000
  S   S150      1.0  0.79244  0.09775  0.99438  1.0000
  H   H782      1.0  0.82791  0.28017  0.07803  1.0000
  C   C473      1.0  0.61198  0.25523  0.00929  1.0000
  H   H783      1.0  0.59633  0.10928  0.25683  1.0000
  H   H784      1.0  0.76402  0.48110  0.24211  1.0000
  C   C474      1.0  0.76546  0.03515  0.06588  1.0000
  H   H785      1.0  0.64203  0.48159  0.15447  1.0000
  C   C475      1.0  0.87693  0.20049  0.26832  1.0000
  C   C476      1.0  0.76561  0.30477  0.07263  1.0000
  N   N32       1.0  0.59060  0.12078  0.19518  1.0000
  C   C477      1.0  0.56953  0.12924  0.16645  1.0000
  C   C478      1.0  0.61654  0.15912  0.20293  1.0000
  C   C479      1.0  0.80064  0.22523  0.29829  1.0000
  H   H786      1.0  0.80701  0.12718  0.09354  1.0000
  H   H787      1.0  0.97445  0.29705  0.18362  1.0000
  H   H788      1.0  0.87392  0.45416  0.99939  1.0000
  H   H789      1.0  0.59726  0.36466  0.06382  1.0000
  C   C480      1.0  0.85291  0.34512  0.04001  1.0000
  H   H790      1.0  0.55385  0.16047  0.16663  1.0000
  H   H791      1.0  0.59282  0.13111  0.14923  1.0000
  C   C481      1.0  0.82071  0.44863  0.23349  1.0000
  H   H792      1.0  0.76767  0.22557  0.02274  1.0000
  H   H793      1.0  0.75697  0.29765  0.09501  1.0000
  H   H794      1.0  0.83634  0.19539  0.05579  1.0000
  H   H795      1.0  0.65670  0.09278  0.23130  1.0000
  H   H796      1.0  0.87927  0.18878  0.03274  1.0000
  H   H797      1.0  0.94387  0.32523  0.14291  1.0000
  C   C482      1.0  0.57578  0.38831  0.30395  1.0000
  C   C483      1.0  0.64070  0.06705  0.21944  1.0000
  C   C484      1.0  0.63283  0.13157  0.31899  1.0000
  H   H798      1.0  0.57452  0.44483  0.09033  1.0000
  H   H799      1.0  0.57948  0.36410  0.28703  1.0000
  H   H800      1.0  0.70064  0.13397  0.12106  1.0000
  H   H801      1.0  0.75809  0.30501  0.21965  1.0000
  C   C485      1.0  0.93978  0.29526  0.13095  1.0000
  H   H802      1.0  0.66602  0.04604  0.21277  1.0000
  H   H803      1.0  0.80913  0.48028  0.17519  1.0000
  H   H804      1.0  0.84773  0.34553  0.06334  1.0000
  H   H805      1.0  0.59580  0.18657  0.20660  1.0000
  H   H806      1.0  0.79238  0.26310  0.21080  1.0000
  H   H807      1.0  0.82773  0.21222  0.31063  1.0000
  H   H808      1.0  0.57659  0.36738  0.02824  1.0000
  C   C486      1.0  0.67128  0.20237  0.29615  1.0000
  Fe  Fe75      1.0  0.77093  0.47713  0.31526  1.0000
  H   H809      1.0  0.66951  0.19738  0.19054  1.0000
  S   S151      1.0  0.83910  0.49430  0.31503  1.0000
  H   H810      1.0  0.78351  0.11897  0.05896  1.0000
  C   C487      1.0  0.54182  0.48980  0.15697  1.0000
  C   C488      1.0  0.55723  0.11381  0.21701  1.0000
  H   H811      1.0  0.76038  0.08100  0.29998  1.0000
  H   H812      1.0  0.85488  0.45413  0.23380  1.0000
  H   H813      1.0  0.67600  0.46484  0.02794  1.0000
  C   C489      1.0  0.61686  0.08189  0.19235  1.0000
  C   C490      1.0  0.77648  0.25713  0.01464  1.0000
  S   S152      1.0  0.66954  0.09425  0.01864  1.0000
  H   H814      1.0  0.52615  0.21772  0.01915  1.0000
  H   H815      1.0  0.86404  0.07807  0.08363  1.0000
  S   S153      1.0  0.98198  0.22379  0.99872  1.0000
  C   C491      1.0  0.97740  0.21891  0.16375  1.0000
  C   C492      1.0  0.96094  0.51803  0.08519  1.0000
  H   H816      1.0  0.63278  0.18838  0.16180  1.0000
  H   H817      1.0  0.72119  0.48322  0.16766  1.0000
  H   H818      1.0  0.84479  0.35112  0.30059  1.0000
  C   C493      1.0  0.59022  0.34565  0.04435  1.0000
  Fe  Fe76      1.0  0.81215  0.03112  0.23680  1.0000
  C   C494      1.0  0.63820  0.42984  0.99703  1.0000
  H   H819      1.0  0.94821  0.23034  0.17347  1.0000
  H   H820      1.0  0.62665  0.26374  0.03026  1.0000
  C   C495      1.0  0.53361  0.23892  0.03767  1.0000
  H   H821      1.0  0.59710  0.05445  0.18602  1.0000
  N   N33       1.0  0.54228  0.28322  0.02754  1.0000
  H   H822      1.0  0.85941  0.11856  0.05787  1.0000
  H   H823      1.0  0.77833  0.52480  0.16724  1.0000
  C   C496      1.0  0.79291  0.05010  0.11590  1.0000
  H   H824      1.0  0.54633  0.08051  0.21671  1.0000
  C   C497      1.0  0.77442  0.24766  0.32074  1.0000
  H   H825      1.0  0.68586  0.22994  0.28716  1.0000
  S   S154      1.0  0.53882  0.25565  0.12748  1.0000
  H   H826      1.0  0.78995  0.33849  0.02321  1.0000
  H   H827      1.0  0.89697  0.22233  0.28110  1.0000
  H   H828      1.0  0.82769  0.18718  0.01767  1.0000
  H   H829      1.0  0.75816  0.28854  0.26873  1.0000
  H   H830      1.0  0.89640  0.18678  0.25138  1.0000
  H   H831      1.0  0.57182  0.15986  0.25129  1.0000
  C   C498      1.0  0.85125  0.25071  0.02906  1.0000
  H   H832      1.0  0.81268  0.30941  0.22873  1.0000
  C   C499      1.0  0.78597  0.28722  0.22732  1.0000
  C   C500      1.0  0.98177  0.27290  0.12639  1.0000
  H   H833      1.0  0.84157  0.06759  0.04821  1.0000
  H   H834      1.0  0.53606  0.32178  0.06534  1.0000
  H   H835      1.0  0.75155  0.05012  0.04628  1.0000
  H   H836      1.0  0.86090  0.27783  0.30308  1.0000
  H   H837      1.0  0.95806  0.48776  0.03101  1.0000
  H   H838      1.0  0.53705  0.51057  0.08461  1.0000
  C   C501      1.0  0.59895  0.51656  0.12586  1.0000
  H   H839      1.0  0.94178  0.43915  0.10173  1.0000
  H   H840      1.0  0.62013  0.04917  0.23386  1.0000
  N   N34       1.0  0.55255  0.51340  0.13009  1.0000
  N   N35       1.0  0.81473  0.25146  0.27337  1.0000
  C   C502      1.0  0.83924  0.22309  0.25411  1.0000
  C   C503      1.0  0.77693  0.26620  0.25635  1.0000
  H   H841      1.0  0.79541  0.32658  0.30549  1.0000
  C   C504      1.0  0.84248  0.28728  0.28365  1.0000
  H   H842      1.0  0.82877  0.32108  0.00027  1.0000
  H   H843      1.0  0.86378  0.25509  0.00736  1.0000
  C   C505      1.0  0.61851  0.39620  0.31873  1.0000
  C   C506      1.0  0.79612  0.48999  0.23679  1.0000
  H   H844      1.0  0.81859  0.19845  0.24418  1.0000
  H   H845      1.0  0.85213  0.24122  0.23590  1.0000
  C   C507      1.0  0.81923  0.32018  0.02292  1.0000
  H   H846      1.0  0.75542  0.23934  0.25164  1.0000
  H   H847      1.0  0.98890  0.48043  0.13695  1.0000
  H   H848      1.0  0.71228  0.06346  0.10732  1.0000
  H   H849      1.0  0.55089  0.06557  0.15138  1.0000
  C   C508      1.0  0.82274  0.09448  0.31486  1.0000
  H   H850      1.0  0.95184  0.41803  0.01392  1.0000
  H   H851      1.0  0.92800  0.51230  0.09114  1.0000
  C   C509      1.0  0.73266  0.12699  0.11400  1.0000
  C   C510      1.0  0.62558  0.47731  0.13342  1.0000
  C   C511      1.0  0.70210  0.37077  0.99887  1.0000
  H   H852      1.0  0.88442  0.33297  0.03580  1.0000
  H   H853      1.0  0.81446  0.42776  0.25196  1.0000
  H   H854      1.0  0.82015  0.45235  0.00866  1.0000
  H   H855      1.0  0.78248  0.19746  0.29043  1.0000
  C   C512      1.0  0.64837  0.17332  0.18065  1.0000
  H   H856      1.0  0.86706  0.17381  0.28192  1.0000
  C   C513      1.0  0.82130  0.32958  0.29050  1.0000
  C   C514      1.0  0.97543  0.44411  0.09725  1.0000
  C   C515      1.0  0.95553  0.46408  0.04845  1.0000
  H   H857      1.0  0.56261  0.41639  0.29307  1.0000
  H   H858      1.0  0.66811  0.14731  0.17336  1.0000
  C   C516      1.0  0.00590  0.28834  0.17619  1.0000
  H   H859      1.0  0.80821  0.50581  0.25660  1.0000
  H   H860      1.0  0.74299  0.15467  0.10152  1.0000
  C   C517      1.0  0.74429  0.47173  0.18397  1.0000
  N   N36       1.0  0.77362  0.06797  0.08871  1.0000
  H   H861      1.0  0.72786  0.47026  0.20433  1.0000
  H   H862      1.0  0.91728  0.27487  0.14211  1.0000
  H   H863      1.0  0.63416  0.15502  0.22348  1.0000
  H   H864      1.0  0.96683  0.19816  0.14582  1.0000
  C   C518      1.0  0.73179  0.08661  0.09568  1.0000
  H   H865      1.0  0.80961  0.34566  0.27082  1.0000
  C   C519      1.0  0.99848  0.45112  0.12617  1.0000
  H   H866      1.0  0.84582  0.08255  0.29953  1.0000
  Fe  Fe77      1.0  0.96380  0.29200  0.00025  1.0000
  H   H867      1.0  0.60877  0.44696  0.13347  1.0000
  H   H868      1.0  0.97522  0.24740  0.11060  1.0000
  C   C520      1.0  0.96799  0.42156  0.03514  1.0000
  Fe  Fe78      1.0  0.54161  0.26310  0.17511  1.0000
  H   H869      1.0  0.99051  0.42481  0.14073  1.0000
  H   H870      1.0  0.65070  0.47436  0.11763  1.0000
  H   H871      1.0  0.61346  0.45289  0.99633  1.0000
  H   H872      1.0  0.80611  0.07586  0.12956  1.0000
  H   H873      1.0  0.01393  0.04727  0.01723  1.0000
  H   H874      1.0  0.00262  0.29514  0.11508  1.0000
  H   H875      1.0  0.52915  0.13274  0.21164  1.0000
  H   H876      1.0  0.56180  0.22525  0.04842  1.0000
  C   C521      1.0  0.54218  0.44717  0.09795  1.0000
  C   C522      1.0  0.55923  0.50892  0.18525  1.0000
  H   H877      1.0  0.74663  0.26356  0.31139  1.0000
  H   H878      1.0  0.00195  0.41940  0.03159  1.0000
  H   H879      1.0  0.92171  0.46196  0.05312  1.0000
  C   C523      1.0  0.56813  0.12530  0.24847  1.0000
  C   C524      1.0  0.78384  0.50004  0.18378  1.0000
  Fe  Fe79      1.0  0.02177  0.33462  0.29790  1.0000
  H   H880      1.0  0.72682  0.34790  0.99918  1.0000
  H   H881      1.0  0.79265  0.03600  0.30247  1.0000
  S   S155      1.0  0.02375  0.33724  0.24988  1.0000
  H   H882      1.0  0.95779  0.39453  0.04830  1.0000
  C   C525      1.0  0.99905  0.19015  0.18628  1.0000
  N   N37       1.0  0.79784  0.51991  0.21176  1.0000
  H   H883      1.0  0.97513  0.17066  0.19690  1.0000
  H   H884      1.0  0.01640  0.20787  0.20307  1.0000
  H   H885      1.0  0.81408  0.12644  0.30725  1.0000
  H   H886      1.0  0.01683  0.34418  0.14852  1.0000
  H   H887      1.0  0.63488  0.26215  0.99250  1.0000
  H   H888      1.0  0.57691  0.47335  0.31766  1.0000
  S   S156      1.0  0.74249  0.03000  0.24251  1.0000
  H   H889      1.0  0.60557  0.52559  0.10339  1.0000
  H   H890      1.0  0.02105  0.16804  0.17640  1.0000
  H   H891      1.0  0.59309  0.51567  0.18453  1.0000
  H   H892      1.0  0.53728  0.42562  0.11615  1.0000
  H   H893      1.0  0.62728  0.47500  0.30358  1.0000
  H   H894      1.0  0.60615  0.22076  0.00897  1.0000
  H   H895      1.0  0.02205  0.27577  0.19558  1.0000
  H   H896      1.0  0.54196  0.11562  0.26214  1.0000
  H   H897      1.0  0.76845  0.03517  0.12908  1.0000
  S   S157      1.0  0.89145  0.33289  0.47769  1.0000
  H   H898      1.0  0.98475  0.23775  0.43977  1.0000
  H   H899      1.0  0.87866  0.24678  0.60206  1.0000
  C   C526      1.0  0.95702  0.24096  0.42537  1.0000
  Fe  Fe80      1.0  0.83361  0.50561  0.36225  1.0000
  S   S158      1.0  0.88446  0.49265  0.39596  1.0000
  S   S159      1.0  0.76750  0.48307  0.36301  1.0000
  Fe  Fe81      1.0  0.78463  0.12201  0.43651  1.0000
  S   S160      1.0  0.78978  0.12709  0.48428  1.0000
  S   S161      1.0  0.80904  0.17701  0.41050  1.0000
  H   H900      1.0  0.73978  0.06842  0.62668  1.0000
  Fe  Fe82      1.0  0.72026  0.12006  0.48444  1.0000
  Fe  Fe83      1.0  0.72238  0.04821  0.44089  1.0000
  S   S162      1.0  0.71492  0.11804  0.43664  1.0000
  Fe  Fe84      1.0  0.57993  0.31547  0.41580  1.0000
  S   S163      1.0  0.57834  0.30567  0.36787  1.0000
  S   S164      1.0  0.62447  0.36758  0.43102  1.0000
  Fe  Fe85      1.0  0.56757  0.23719  0.37722  1.0000
  C   C527      1.0  0.91875  0.11886  0.48748  1.0000
  S   S165      1.0  0.57492  0.24606  0.42493  1.0000
  N   N38       1.0  0.58148  0.48337  0.64021  1.0000
  C   C528      1.0  0.84363  0.17643  0.65165  1.0000
  C   C529      1.0  0.67823  0.42806  0.49926  1.0000
  C   C530      1.0  0.65989  0.41893  0.47218  1.0000
  C   C531      1.0  0.64166  0.37940  0.46645  1.0000
  H   H901      1.0  0.69260  0.45837  0.50333  1.0000
  H   H902      1.0  0.66023  0.44242  0.45542  1.0000
  C   C532      1.0  0.85178  0.18061  0.38756  1.0000
  C   C533      1.0  0.87794  0.14649  0.38268  1.0000
  C   C534      1.0  0.91095  0.15064  0.36362  1.0000
  C   C535      1.0  0.91820  0.18890  0.34944  1.0000
  C   C536      1.0  0.89243  0.22323  0.35470  1.0000
  C   C537      1.0  0.85935  0.21905  0.37368  1.0000
  H   H903      1.0  0.87275  0.11696  0.39348  1.0000
  H   H904      1.0  0.93098  0.12402  0.35974  1.0000
  C   C538      1.0  0.96074  0.09480  0.54111  1.0000
  H   H905      1.0  0.83948  0.24573  0.37764  1.0000
  C   C539      1.0  0.89178  0.37649  0.45425  1.0000
  C   C540      1.0  0.92218  0.40802  0.45642  1.0000
  C   C541      1.0  0.91978  0.44329  0.43817  1.0000
  C   C542      1.0  0.88724  0.44705  0.41755  1.0000
  C   C543      1.0  0.85728  0.41514  0.41509  1.0000
  C   C544      1.0  0.85960  0.38002  0.43337  1.0000
  H   H906      1.0  0.94727  0.40547  0.47225  1.0000
  H   H907      1.0  0.94317  0.46786  0.44005  1.0000
  H   H908      1.0  0.83235  0.41756  0.39911  1.0000
  H   H909      1.0  0.83648  0.35534  0.43112  1.0000
  Fe  Fe86      1.0  0.94416  0.30803  0.50610  1.0000
  S   S166      1.0  0.94393  0.31076  0.55429  1.0000
  C   C545      1.0  0.78960  0.13671  0.58203  1.0000
  H   H910      1.0  0.76073  0.49079  0.49256  1.0000
  Fe  Fe87      1.0  0.95944  0.24190  0.55344  1.0000
  S   S167      1.0  0.93896  0.18625  0.58031  1.0000
  H   H911      1.0  0.67118  0.46033  0.36632  1.0000
  S   S168      1.0  0.95368  0.23798  0.50555  1.0000
  Fe  Fe88      1.0  0.81419  0.48259  0.61263  1.0000
  S   S169      1.0  0.81061  0.47531  0.56481  1.0000
  H   H912      1.0  0.85239  0.46760  0.48323  1.0000
  H   H913      1.0  0.87820  0.10907  0.44926  1.0000
  Fe  Fe89      1.0  0.74200  0.46238  0.57009  1.0000
  S   S170      1.0  0.70558  0.40495  0.55399  1.0000
  C   C546      1.0  0.55535  0.27586  0.51378  1.0000
  S   S171      1.0  0.74717  0.46478  0.61829  1.0000
  C   C547      1.0  0.74033  0.48342  0.43317  1.0000
  S   S172      1.0  0.68458  0.17465  0.50301  1.0000
  S   S173      1.0  0.55980  0.31647  0.63248  1.0000
  Fe  Fe90      1.0  0.55734  0.24635  0.63981  1.0000
  S   S174      1.0  0.58988  0.19081  0.61980  1.0000
  C   C548      1.0  0.65695  0.17844  0.53494  1.0000
  C   C549      1.0  0.65281  0.21822  0.54770  1.0000
  C   C550      1.0  0.63148  0.22278  0.57340  1.0000
  C   C551      1.0  0.61379  0.18756  0.58635  1.0000
  C   C552      1.0  0.61730  0.14792  0.57329  1.0000
  C   C553      1.0  0.63861  0.14333  0.54756  1.0000
  H   H914      1.0  0.66667  0.24557  0.53794  1.0000
  H   H915      1.0  0.62962  0.25328  0.58357  1.0000
  H   H916      1.0  0.60382  0.12053  0.58335  1.0000
  H   H917      1.0  0.64106  0.11269  0.53767  1.0000
  C   C554      1.0  0.67878  0.39741  0.52075  1.0000
  C   C555      1.0  0.64083  0.34935  0.48825  1.0000
  C   C556      1.0  0.65946  0.35833  0.51523  1.0000
  H   H918      1.0  0.62755  0.31861  0.48391  1.0000
  H   H919      1.0  0.65970  0.33447  0.53178  1.0000
  C   C557      1.0  0.58104  0.50991  0.61339  1.0000
  C   C558      1.0  0.71821  0.14016  0.60149  1.0000
  C   C559      1.0  0.90100  0.18334  0.60698  1.0000
  C   C560      1.0  0.89666  0.14545  0.62217  1.0000
  S   S175      1.0  0.01201  0.32311  0.50225  1.0000
  C   C561      1.0  0.93981  0.05232  0.46473  1.0000
  C   C562      1.0  0.84738  0.21410  0.63611  1.0000
  C   C563      1.0  0.87578  0.21752  0.61370  1.0000
  H   H920      1.0  0.91583  0.11874  0.61690  1.0000
  H   H921      1.0  0.60986  0.44040  0.38496  1.0000
  H   H922      1.0  0.99782  0.36647  0.37852  1.0000
  H   H923      1.0  0.58837  0.22803  0.49044  1.0000
  H   H924      1.0  0.55397  0.29472  0.49361  1.0000
  H   H925      1.0  0.83220  0.06498  0.61507  1.0000
  H   H926      1.0  0.74424  0.45514  0.41958  1.0000
  H   H927      1.0  0.74678  0.13856  0.33004  1.0000
  C   C564      1.0  0.60181  0.13794  0.45422  1.0000
  H   H928      1.0  0.54822  0.40642  0.61401  1.0000
  C   C565      1.0  0.76425  0.09075  0.36283  1.0000
  N   N39       1.0  0.95254  0.08600  0.48603  1.0000
  C   C566      1.0  0.95068  0.28619  0.41447  1.0000
  H   H929      1.0  0.98392  0.10631  0.43208  1.0000
  C   C567      1.0  0.81857  0.46075  0.48411  1.0000
  H   H930      1.0  0.83957  0.09716  0.33566  1.0000
  H   H931      1.0  0.56794  0.33246  0.57015  1.0000
  S   S176      1.0  0.87363  0.46461  0.63694  1.0000
  H   H932      1.0  0.95962  0.26727  0.61696  1.0000
  C   C568      1.0  0.86803  0.14191  0.64434  1.0000
  Fe  Fe91      1.0  0.79182  0.05650  0.48439  1.0000
  C   C569      1.0  0.68713  0.39548  0.36135  1.0000
  H   H933      1.0  0.76267  0.15917  0.54075  1.0000
  N   N40       1.0  0.98695  0.30685  0.40000  1.0000
  C   C570      1.0  0.59585  0.42490  0.36555  1.0000
  C   C571      1.0  0.91607  0.52363  0.52564  1.0000
  H   H934      1.0  0.71708  0.40339  0.37257  1.0000
  H   H935      1.0  0.91200  0.45400  0.57990  1.0000
  H   H936      1.0  0.80399  0.51748  0.50689  1.0000
  C   C572      1.0  0.72069  0.04006  0.33713  1.0000
  C   C573      1.0  0.72950  0.17118  0.62584  1.0000
  H   H937      1.0  0.93159  0.32905  0.35556  1.0000
  H   H938      1.0  0.60807  0.42345  0.59768  1.0000
  C   C574      1.0  0.78131  0.50917  0.43421  1.0000
  H   H939      1.0  0.89808  0.25295  0.34424  1.0000
  H   H940      1.0  0.92158  0.14415  0.44309  1.0000
  H   H941      1.0  0.70576  0.15919  0.58336  1.0000
  C   C575      1.0  0.73588  0.08561  0.56707  1.0000
  C   C576      1.0  0.79251  0.50114  0.48722  1.0000
  H   H942      1.0  0.57056  0.21000  0.52380  1.0000
  H   H943      1.0  0.75690  0.19110  0.62123  1.0000
  H   H944      1.0  0.01138  0.32707  0.44127  1.0000
  H   H945      1.0  0.81317  0.11554  0.57256  1.0000
  H   H946      1.0  0.70509  0.12310  0.35338  1.0000
  H   H947      1.0  0.97221  0.45840  0.51327  1.0000
  H   H948      1.0  0.73102  0.47077  0.45396  1.0000
  H   H949      1.0  0.73450  0.15450  0.64645  1.0000
  H   H950      1.0  0.58233  0.35489  0.53621  1.0000
  C   C577      1.0  0.95651  0.06508  0.51505  1.0000
  H   H951      1.0  0.00082  0.13262  0.49455  1.0000
  H   H952      1.0  0.92114  0.32544  0.62205  1.0000
  H   H953      1.0  0.88314  0.51521  0.52971  1.0000
  C   C578      1.0  0.58915  0.10904  0.42888  1.0000
  C   C579      1.0  0.99165  0.46530  0.53265  1.0000
  H   H954      1.0  0.86522  0.11265  0.65595  1.0000
  H   H955      1.0  0.79569  0.10238  0.36905  1.0000
  H   H956      1.0  0.69304  0.03502  0.55483  1.0000
  C   C580      1.0  0.80067  0.05183  0.61027  1.0000
  H   H957      1.0  0.63709  0.23791  0.32717  1.0000
  H   H958      1.0  0.68654  0.44699  0.33128  1.0000
  C   C581      1.0  0.89871  0.13382  0.45886  1.0000
  H   H959      1.0  0.67820  0.06164  0.58662  1.0000
  C   C582      1.0  0.66706  0.43609  0.34923  1.0000
  H   H960      1.0  0.80622  0.15185  0.60042  1.0000
  C   C583      1.0  0.99417  0.10585  0.47972  1.0000
  C   C584      1.0  0.73904  0.12915  0.35210  1.0000
  H   H961      1.0  0.59557  0.39102  0.37109  1.0000
  H   H962      1.0  0.53441  0.21606  0.49338  1.0000
  C   C585      1.0  0.61839  0.45367  0.64050  1.0000
  H   H963      1.0  0.54760  0.47421  0.36472  1.0000
  H   H964      1.0  0.55407  0.26073  0.56782  1.0000
  C   C586      1.0  0.61979  0.51353  0.34098  1.0000
  H   H965      1.0  0.92287  0.28419  0.39983  1.0000
  N   N41       1.0  0.96597  0.47772  0.55785  1.0000
  H   H966      1.0  0.76280  0.22381  0.33602  1.0000
  H   H967      1.0  0.89566  0.44352  0.52556  1.0000
  H   H968      1.0  0.61688  0.16674  0.44579  1.0000
  H   H969      1.0  0.70271  0.19266  0.62885  1.0000
  H   H970      1.0  0.80860  0.44218  0.46508  1.0000
  H   H971      1.0  0.93130  0.11204  0.54456  1.0000
  H   H972      1.0  0.57455  0.14801  0.46656  1.0000
  H   H973      1.0  0.76144  0.07121  0.55478  1.0000
  C   C587      1.0  0.00024  0.12386  0.44943  1.0000
  H   H974      1.0  0.79986  0.04045  0.58790  1.0000
  H   H975      1.0  0.89225  0.10682  0.50020  1.0000
  C   C588      1.0  0.78001  0.17147  0.55978  1.0000
  H   H976      1.0  0.52914  0.04489  0.36658  1.0000
  C   C589      1.0  0.76660  0.08457  0.61668  1.0000
  H   H977      1.0  0.71921  0.10580  0.55107  1.0000
  H   H978      1.0  0.62538  0.12291  0.46863  1.0000
  H   H979      1.0  0.69469  0.37335  0.34385  1.0000
  H   H980      1.0  0.75048  0.08076  0.38337  1.0000
  H   H981      1.0  0.00428  0.29789  0.61068  1.0000
  C   C590      1.0  0.99584  0.48334  0.58319  1.0000
  H   H982      1.0  0.87849  0.16131  0.46300  1.0000
  N   N42       1.0  0.75473  0.28027  0.46948  1.0000
  C   C591      1.0  0.73913  0.24430  0.45085  1.0000
  C   C592      1.0  0.80153  0.27754  0.47126  1.0000
  C   C593      1.0  0.74220  0.32058  0.45457  1.0000
  C   C594      1.0  0.73548  0.27664  0.49851  1.0000
  C   C595      1.0  0.69197  0.24403  0.44313  1.0000
  C   C596      1.0  0.81959  0.23606  0.48318  1.0000
  C   C597      1.0  0.75761  0.36202  0.46824  1.0000
  C   C598      1.0  0.75771  0.29949  0.52402  1.0000
  H   H983      1.0  0.75582  0.24382  0.43023  1.0000
  H   H984      1.0  0.74578  0.21343  0.46123  1.0000
  H   H985      1.0  0.81484  0.30254  0.48501  1.0000
  H   H986      1.0  0.81502  0.28267  0.44977  1.0000
  H   H987      1.0  0.75305  0.32042  0.43207  1.0000
  H   H988      1.0  0.70774  0.32343  0.45304  1.0000
  H   H989      1.0  0.70249  0.28695  0.49743  1.0000
  H   H990      1.0  0.73470  0.24311  0.50501  1.0000
  H   H991      1.0  0.68366  0.26875  0.42719  1.0000
  H   H992      1.0  0.68361  0.21341  0.43297  1.0000
  H   H993      1.0  0.67246  0.24734  0.46220  1.0000
  H   H994      1.0  0.85344  0.24038  0.48803  1.0000
  H   H995      1.0  0.80472  0.22593  0.50316  1.0000
  H   H996      1.0  0.81681  0.21080  0.46697  1.0000
  H   H997      1.0  0.79186  0.36365  0.47132  1.0000
  H   H998      1.0  0.74230  0.36790  0.48872  1.0000
  H   H999      1.0  0.74849  0.38839  0.45381  1.0000
  H   H1000     1.0  0.73384  0.31130  0.53877  1.0000
  H   H1001     1.0  0.77725  0.32683  0.51858  1.0000
  H   H1002     1.0  0.77674  0.27694  0.53694  1.0000
  H   H1003     1.0  0.53385  0.42710  0.38294  1.0000
  H   H1004     1.0  0.96605  0.35703  0.61582  1.0000
  H   H1005     1.0  0.98692  0.11743  0.53943  1.0000
  C   C599      1.0  0.98048  0.29156  0.62701  1.0000
  C   C600      1.0  0.91242  0.42112  0.53968  1.0000
  H   H1006     1.0  0.93364  0.40156  0.52690  1.0000
  C   C601      1.0  0.55002  0.43949  0.36394  1.0000
  S   S177      1.0  0.59217  0.17543  0.36013  1.0000
  H   H1007     1.0  0.59126  0.06464  0.47879  1.0000
  H   H1008     1.0  0.81406  0.44031  0.50308  1.0000
  H   H1009     1.0  0.88865  0.39932  0.54831  1.0000
  H   H1010     1.0  0.85880  0.52186  0.45412  1.0000
  H   H1011     1.0  0.96885  0.37090  0.41016  1.0000
  C   C602      1.0  0.93598  0.44266  0.56495  1.0000
  H   H1012     1.0  0.57222  0.12966  0.41322  1.0000
  H   H1013     1.0  0.79377  0.27006  0.33360  1.0000
  C   C603      1.0  0.58726  0.04620  0.45867  1.0000
  H   H1014     1.0  0.65675  0.41205  0.61517  1.0000
  C   C604      1.0  0.55690  0.35127  0.55153  1.0000
  H   H1015     1.0  0.93103  0.38468  0.36215  1.0000
  C   C605      1.0  0.02257  0.31196  0.42145  1.0000
  H   H1016     1.0  0.90498  0.35001  0.38587  1.0000
  H   H1017     1.0  0.92955  0.23177  0.43798  1.0000
  H   H1018     1.0  0.82854  0.24094  0.64164  1.0000
  C   C606      1.0  0.93287  0.35321  0.37254  1.0000
  C   C607      1.0  0.95367  0.33177  0.62971  1.0000
  S   S178      1.0  0.79220  0.05160  0.43636  1.0000
  N   N43       1.0  0.75263  0.11173  0.59185  1.0000
  H   H1019     1.0  0.80992  0.18481  0.55237  1.0000
  H   H1020     1.0  0.94120  0.30555  0.43298  1.0000
  Fe  Fe92      1.0  0.01309  0.32122  0.55042  1.0000
  H   H1021     1.0  0.58483  0.28509  0.52524  1.0000
  H   H1022     1.0  0.82002  0.39237  0.64776  1.0000
  H   H1023     1.0  0.54965  0.38335  0.55937  1.0000
  H   H1024     1.0  0.66709  0.37952  0.37698  1.0000
  H   H1025     1.0  0.93051  0.14736  0.49902  1.0000
  H   H1026     1.0  0.92681  0.50576  0.50702  1.0000
  H   H1027     1.0  0.90901  0.03872  0.47037  1.0000
  H   H1028     1.0  0.95811  0.21837  0.40731  1.0000
  H   H1029     1.0  0.80674  0.48826  0.42717  1.0000
  H   H1030     1.0  0.76236  0.19780  0.56917  1.0000
  N   N44       1.0  0.62186  0.43254  0.33953  1.0000
  H   H1031     1.0  0.61020  0.51159  0.36356  1.0000
  H   H1032     1.0  0.97119  0.26795  0.36318  1.0000
  H   H1033     1.0  0.64897  0.46246  0.59922  1.0000
  H   H1034     1.0  0.77981  0.10431  0.63441  1.0000
  H   H1035     1.0  0.93453  0.06508  0.44288  1.0000
  C   C608      1.0  0.01466  0.22981  0.64817  1.0000
  C   C609      1.0  0.97331  0.35055  0.39105  1.0000
  H   H1036     1.0  0.69128  0.12146  0.60907  1.0000
  H   H1037     1.0  0.57762  0.49026  0.59383  1.0000
  H   H1038     1.0  0.52476  0.09283  0.47063  1.0000
  H   H1039     1.0  0.74584  0.15646  0.36630  1.0000
  C   C610      1.0  0.99914  0.28243  0.37379  1.0000
  H   H1040     1.0  0.98924  0.21151  0.63717  1.0000
  H   H1041     1.0  0.56560  0.08684  0.37248  1.0000
  H   H1042     1.0  0.95281  0.41674  0.57648  1.0000
  H   H1043     1.0  0.61936  0.03972  0.45134  1.0000
  H   H1044     1.0  0.96077  0.45874  0.61963  1.0000
  C   C611      1.0  0.56170  0.22968  0.50508  1.0000
  H   H1045     1.0  0.00087  0.49545  0.62898  1.0000
  C   C612      1.0  0.63321  0.43716  0.61135  1.0000
  N   N45       1.0  0.56316  0.07091  0.43615  1.0000
  H   H1046     1.0  0.70419  0.03667  0.35764  1.0000
  H   H1047     1.0  0.01212  0.30369  0.35727  1.0000
  C   C613      1.0  0.70535  0.04995  0.57485  1.0000
  C   C614      1.0  0.94330  0.51882  0.55321  1.0000
  S   S179      1.0  0.72218  0.04948  0.48907  1.0000
  H   H1048     1.0  0.61836  0.09943  0.41822  1.0000
  C   C615      1.0  0.62465  0.17153  0.33044  1.0000
  N   N46       1.0  0.00117  0.27464  0.65401  1.0000
  H   H1049     1.0  0.96680  0.07577  0.56073  1.0000
  H   H1050     1.0  0.99116  0.15751  0.44848  1.0000
  H   H1051     1.0  0.71435  0.50250  0.42388  1.0000
  H   H1052     1.0  0.53259  0.42783  0.34483  1.0000
  N   N47       1.0  0.76535  0.05395  0.34246  1.0000
  H   H1053     1.0  0.02047  0.08393  0.48449  1.0000
  H   H1054     1.0  0.92898  0.04464  0.51892  1.0000
  H   H1055     1.0  0.83982  0.05204  0.37903  1.0000
  H   H1056     1.0  0.65356  0.52132  0.34066  1.0000
  H   H1057     1.0  0.95202  0.34483  0.65146  1.0000
  S   S180      1.0  0.95994  0.19224  0.32562  1.0000
  H   H1058     1.0  0.98403  0.04386  0.51627  1.0000
  C   C616      1.0  0.54076  0.06813  0.38271  1.0000
  C   C617      1.0  0.55840  0.04469  0.40933  1.0000
  H   H1059     1.0  0.62665  0.36595  0.32942  1.0000
  H   H1060     1.0  0.01737  0.45605  0.58512  1.0000
  H   H1061     1.0  0.61798  0.10405  0.32788  1.0000
  H   H1062     1.0  0.00797  0.43507  0.53728  1.0000
  C   C618      1.0  0.97594  0.48835  0.61271  1.0000
  Fe  Fe93      1.0  0.02196  0.25300  0.50542  1.0000
  H   H1063     1.0  0.92202  0.52484  0.57116  1.0000
  C   C619      1.0  0.52635  0.43231  0.61810  1.0000
  C   C620      1.0  0.54114  0.45955  0.64358  1.0000
  H   H1064     1.0  0.64663  0.46927  0.65019  1.0000
  H   H1065     1.0  0.01612  0.51148  0.58039  1.0000
  H   H1066     1.0  0.95334  0.51460  0.61325  1.0000
  H   H1067     1.0  0.01102  0.52888  0.51878  1.0000
  H   H1068     1.0  0.61246  0.42575  0.65429  1.0000
  H   H1069     1.0  0.61158  0.52631  0.61142  1.0000
  H   H1070     1.0  0.70302  0.06435  0.32499  1.0000
  H   H1071     1.0  0.58912  0.03149  0.40339  1.0000
  H   H1072     1.0  0.02415  0.22475  0.39552  1.0000
  H   H1073     1.0  0.02399  0.36548  0.65060  1.0000
  H   H1074     1.0  0.91069  0.26733  0.65772  1.0000
  H   H1075     1.0  0.72833  0.29641  0.81638  1.0000
  H   H1076     1.0  0.61299  0.31290  0.78330  1.0000
  Fe  Fe94      1.0  0.94365  0.29597  0.75393  1.0000
  S   S181      1.0  0.94514  0.29750  0.80212  1.0000
  S   S182      1.0  0.88723  0.31580  0.72712  1.0000
  H   H1077     1.0  0.77068  0.43300  0.96765  1.0000
  H   H1078     1.0  0.77906  0.42034  0.74684  1.0000
  Fe  Fe95      1.0  0.96441  0.22973  0.80045  1.0000
  S   S183      1.0  0.94236  0.17189  0.82465  1.0000
  N   N48       1.0  0.76852  0.47069  0.71630  1.0000
  S   S184      1.0  0.95732  0.22686  0.75271  1.0000
  H   H1079     1.0  0.85298  0.42150  0.75212  1.0000
  C   C621      1.0  0.83917  0.44863  0.74026  1.0000
  Fe  Fe96      1.0  0.81918  0.48336  0.86510  1.0000
  S   S185      1.0  0.82006  0.47442  0.81757  1.0000
  S   S186      1.0  0.87684  0.46925  0.89277  1.0000
  H   H1080     1.0  0.54471  0.30436  0.82859  1.0000
  Fe  Fe97      1.0  0.75185  0.45835  0.81990  1.0000
  S   S187      1.0  0.73108  0.39957  0.79571  1.0000
  S   S188      1.0  0.75271  0.46178  0.86807  1.0000
  Fe  Fe98      1.0  0.78596  0.11233  0.69909  1.0000
  S   S189      1.0  0.78788  0.10333  0.74684  1.0000
  H   H1081     1.0  0.75989  0.21825  0.77638  1.0000
  Fe  Fe99      1.0  0.72204  0.07959  0.74212  1.0000
  S   S190      1.0  0.66877  0.08750  0.77318  1.0000
  C   C622      1.0  0.83352  0.48999  0.97028  1.0000
  S   S191      1.0  0.71819  0.09397  0.69496  1.0000
  Fe  Fe100     1.0  0.78916  0.10281  0.94618  1.0000
  H   H1082     1.0  0.97061  0.23848  0.86205  1.0000
  S   S192      1.0  0.81057  0.16278  0.92412  1.0000
  H   H1083     1.0  0.74688  0.23412  0.72661  1.0000
  Fe  Fe101     1.0  0.52532  0.24469  0.92801  1.0000
  H   H1084     1.0  0.96968  0.48499  0.82118  1.0000
  S   S193      1.0  0.72050  0.08778  0.94360  1.0000
  Fe  Fe102     1.0  0.55617  0.32222  0.68057  1.0000
  S   S194      1.0  0.58001  0.37929  0.70573  1.0000
  H   H1085     1.0  0.90642  0.30265  0.89817  1.0000
  Fe  Fe103     1.0  0.57245  0.32905  0.93076  1.0000
  S   S195      1.0  0.57441  0.33344  0.88293  1.0000
  S   S196      1.0  0.58962  0.38648  0.95783  1.0000
  Fe  Fe104     1.0  0.59050  0.26437  0.88349  1.0000
  S   S197      1.0  0.64495  0.24370  0.85660  1.0000
  S   S198      1.0  0.59384  0.26163  0.93166  1.0000
  C   C623      1.0  0.66128  0.13137  0.79578  1.0000
  C   C624      1.0  0.62614  0.13303  0.81317  1.0000
  C   C625      1.0  0.62015  0.16732  0.83183  1.0000
  C   C626      1.0  0.64945  0.20005  0.83325  1.0000
  C   C627      1.0  0.68434  0.19816  0.81582  1.0000
  C   C628      1.0  0.69030  0.16406  0.79722  1.0000
  H   H1086     1.0  0.60346  0.10775  0.81210  1.0000
  H   H1087     1.0  0.59307  0.16842  0.84503  1.0000
  H   H1088     1.0  0.70676  0.22335  0.81677  1.0000
  H   H1089     1.0  0.71738  0.16260  0.78406  1.0000
  C   C629      1.0  0.68747  0.39344  0.77208  1.0000
  C   C630      1.0  0.65645  0.42403  0.76953  1.0000
  C   C631      1.0  0.62317  0.41858  0.74959  1.0000
  C   C632      1.0  0.62063  0.38267  0.73200  1.0000
  C   C633      1.0  0.65133  0.35181  0.73482  1.0000
  C   C634      1.0  0.68458  0.35722  0.75480  1.0000
  H   H1090     1.0  0.65821  0.45192  0.78281  1.0000
  H   H1091     1.0  0.59925  0.44237  0.74783  1.0000
  H   H1092     1.0  0.64983  0.32412  0.72134  1.0000
  H   H1093     1.0  0.70845  0.33349  0.75650  1.0000
  S   S199      1.0  0.90650  0.31029  0.97345  1.0000
  H   H1094     1.0  0.62019  0.32153  0.82083  1.0000
  H   H1095     1.0  0.57589  0.49895  0.85818  1.0000
  H   H1096     1.0  0.70272  0.46400  0.95938  1.0000
  H   H1097     1.0  0.58820  0.13813  0.89431  1.0000
  C   C635      1.0  0.84815  0.16510  0.89704  1.0000
  C   C636      1.0  0.87274  0.13040  0.89044  1.0000
  C   C637      1.0  0.90173  0.13319  0.86841  1.0000
  C   C638      1.0  0.90659  0.17067  0.85287  1.0000
  C   C639      1.0  0.88253  0.20563  0.85976  1.0000
  C   C640      1.0  0.85341  0.20281  0.88175  1.0000
  H   H1098     1.0  0.86955  0.10146  0.90240  1.0000
  H   H1099     1.0  0.92045  0.10607  0.86335  1.0000
  H   H1100     1.0  0.88623  0.23469  0.84811  1.0000
  H   H1101     1.0  0.83479  0.22994  0.88695  1.0000
  C   C641      1.0  0.88572  0.35570  0.70092  1.0000
  C   C642      1.0  0.85088  0.35795  0.68213  1.0000
  S   S200      1.0  0.81030  0.04788  0.68940  1.0000
  H   H1102     1.0  0.52692  0.10607  0.95546  1.0000
  C   C643      1.0  0.91731  0.38592  0.69912  1.0000
  H   H1103     1.0  0.60923  0.07731  0.87001  1.0000
  H   H1104     1.0  0.79769  0.08817  0.87461  1.0000
  H   H1105     1.0  0.94417  0.38452  0.71359  1.0000
  C   C644      1.0  0.89880  0.35506  0.95153  1.0000
  C   C645      1.0  0.86185  0.35796  0.93478  1.0000
  C   C646      1.0  0.85487  0.39240  0.91632  1.0000
  C   C647      1.0  0.88463  0.42451  0.91479  1.0000
  C   C648      1.0  0.92140  0.42178  0.93175  1.0000
  C   C649      1.0  0.92853  0.38719  0.95006  1.0000
  H   H1106     1.0  0.83876  0.33309  0.93573  1.0000
  H   H1107     1.0  0.82659  0.39397  0.90322  1.0000
  H   H1108     1.0  0.94455  0.44656  0.93069  1.0000
  H   H1109     1.0  0.95713  0.38522  0.96278  1.0000
  C   C650      1.0  0.97559  0.19592  0.92341  1.0000
  C   C651      1.0  0.90721  0.13987  0.71636  1.0000
  H   H1110     1.0  0.01075  0.35211  0.68721  1.0000
  H   H1111     1.0  0.71428  0.42756  0.93200  1.0000
  H   H1112     1.0  0.70890  0.44205  0.72547  1.0000
  H   H1113     1.0  0.95720  0.51171  0.86221  1.0000
  H   H1114     1.0  0.80091  0.41105  0.71304  1.0000
  N   N49       1.0  0.52946  0.28387  0.78564  1.0000
  C   C652      1.0  0.72735  0.45129  0.70668  1.0000
  C   C653      1.0  0.78393  0.06717  0.81717  1.0000
  C   C654      1.0  0.72972  0.41202  0.68739  1.0000
  H   H1115     1.0  0.53552  0.42864  0.91291  1.0000
  C   C655      1.0  0.96920  0.05822  0.78298  1.0000
  H   H1116     1.0  0.96054  0.06773  0.80494  1.0000
  H   H1117     1.0  0.58625  0.17334  0.95428  1.0000
  H   H1118     1.0  0.81300  0.12654  0.83269  1.0000
  H   H1119     1.0  0.83869  0.42202  0.97883  1.0000
  H   H1120     1.0  0.91344  0.24658  0.69306  1.0000
  H   H1121     1.0  0.78737  0.28351  0.97157  1.0000
  C   C656      1.0  0.87817  0.42156  0.66066  1.0000
  H   H1122     1.0  0.63617  0.03053  0.88043  1.0000
  H   H1123     1.0  0.02131  0.21237  0.66843  1.0000
  H   H1124     1.0  0.78750  0.44526  0.93254  1.0000
  H   H1125     1.0  0.97554  0.17702  0.90345  1.0000
  H   H1126     1.0  0.94024  0.06475  0.67375  1.0000
  N   N50       1.0  0.57777  0.09121  0.92758  1.0000
  H   H1127     1.0  0.61456  0.24674  0.75847  1.0000
  H   H1128     1.0  0.91538  0.48256  0.78637  1.0000
  C   C657      1.0  0.59225  0.49154  0.69508  1.0000
  H   H1129     1.0  0.02298  0.19234  0.85286  1.0000
  H   H1130     1.0  0.80202  0.23503  0.73150  1.0000
  H   H1131     1.0  0.62909  0.15849  0.97698  1.0000
  H   H1132     1.0  0.53093  0.43818  0.87552  1.0000
  Fe  Fe105     1.0  0.01329  0.31218  0.79751  1.0000
  C   C658      1.0  0.93021  0.51399  0.78925  1.0000
  H   H1133     1.0  0.52544  0.35230  0.98944  1.0000
  H   H1134     1.0  0.93780  0.44238  0.67787  1.0000
  H   H1135     1.0  0.97295  0.32758  0.91900  1.0000
  C   C659      1.0  0.77307  0.25135  0.73746  1.0000
  C   C660      1.0  0.95292  0.12534  0.71462  1.0000
  C   C661      1.0  0.97462  0.31191  0.89773  1.0000
  C   C662      1.0  0.93077  0.24930  0.67292  1.0000
  C   C663      1.0  0.78861  0.49064  0.69071  1.0000
  H   H1136     1.0  0.59805  0.51628  0.71153  1.0000
  C   C664      1.0  0.58357  0.23309  0.76321  1.0000
  C   C665      1.0  0.76944  0.45762  0.95072  1.0000
  H   H1137     1.0  0.74621  0.28404  0.85194  1.0000
  H   H1138     1.0  0.54324  0.43795  0.66232  1.0000
  N   N51       1.0  0.96365  0.08538  0.73056  1.0000
  H   H1139     1.0  0.54831  0.15064  0.91737  1.0000
  H   H1140     1.0  0.75296  0.41574  0.67050  1.0000
  H   H1141     1.0  0.89918  0.14973  0.73828  1.0000
  C   C666      1.0  0.97221  0.27263  0.67887  1.0000
  H   H1142     1.0  0.84769  0.51798  0.98122  1.0000
  H   H1143     1.0  0.71653  0.48226  0.92405  1.0000
  C   C667      1.0  0.62471  0.06118  0.88845  1.0000
  H   H1144     1.0  0.90445  0.05196  0.72599  1.0000
  H   H1145     1.0  0.00579  0.19331  0.93535  1.0000
  C   C668      1.0  0.60040  0.14641  0.96587  1.0000
  H   H1146     1.0  0.90258  0.16795  0.70253  1.0000
  H   H1147     1.0  0.82496  0.37124  0.80536  1.0000
  C   C669      1.0  0.97353  0.50862  0.80404  1.0000
  H   H1148     1.0  0.98807  0.25715  0.69752  1.0000
  C   C670      1.0  0.54323  0.45155  0.89586  1.0000
  H   H1149     1.0  0.95167  0.18136  0.93712  1.0000
  H   H1150     1.0  0.73723  0.38354  0.70031  1.0000
  C   C671      1.0  0.95445  0.09273  0.76177  1.0000
  C   C672      1.0  0.93891  0.03727  0.68816  1.0000
  C   C673      1.0  0.81885  0.52791  0.69650  1.0000
  H   H1151     1.0  0.53346  0.20841  0.82044  1.0000
  C   C674      1.0  0.76605  0.51449  0.98711  1.0000
  C   C675      1.0  0.91358  0.41867  0.67893  1.0000
  C   C676      1.0  0.72320  0.45878  0.94102  1.0000
  C   C677      1.0  0.54886  0.26659  0.75906  1.0000
  C   C678      1.0  0.75947  0.50210  0.73943  1.0000
  H   H1152     1.0  0.80574  0.46661  0.67847  1.0000
  H   H1153     1.0  0.99396  0.49272  0.78844  1.0000
  H   H1154     1.0  0.70775  0.47459  0.69469  1.0000
  H   H1155     1.0  0.85345  0.25473  0.76200  1.0000
  C   C679      1.0  0.58664  0.51273  0.66550  1.0000
  H   H1156     1.0  0.86012  0.45510  0.72228  1.0000
  H   H1157     1.0  0.63684  0.12411  0.93148  1.0000
  H   H1158     1.0  0.74841  0.48548  0.75883  1.0000
  H   H1159     1.0  0.73653  0.26801  0.77349  1.0000
  H   H1160     1.0  0.70298  0.06357  0.82863  1.0000
  C   C680      1.0  0.73881  0.11728  0.86439  1.0000
  H   H1161     1.0  0.99467  0.33257  0.88454  1.0000
  S   S201      1.0  0.80878  0.17397  0.68029  1.0000
  C   C681      1.0  0.59456  0.05271  0.91297  1.0000
  C   C682      1.0  0.82176  0.09696  0.82192  1.0000
  S   S202      1.0  0.01035  0.31548  0.74936  1.0000
  C   C683      1.0  0.54192  0.07817  0.94580  1.0000
  H   H1162     1.0  0.93516  0.21682  0.66506  1.0000
  H   H1163     1.0  0.96390  0.30398  0.68708  1.0000
  H   H1164     1.0  0.75442  0.06091  0.88790  1.0000
  H   H1165     1.0  0.81174  0.23287  0.97774  1.0000
  H   H1166     1.0  0.85282  0.48467  0.95122  1.0000
  H   H1167     1.0  0.88489  0.11550  0.70851  1.0000
  H   H1168     1.0  0.79346  0.04230  0.80198  1.0000
  C   C684      1.0  0.55278  0.04683  0.97010  1.0000
  H   H1169     1.0  0.95636  0.25678  0.93816  1.0000
  N   N52       1.0  0.80106  0.26970  0.78854  1.0000
  H   H1170     1.0  0.83449  0.10571  0.80089  1.0000
  C   C685      1.0  0.78988  0.26446  0.81957  1.0000
  C   C686      1.0  0.84158  0.24754  0.78355  1.0000
  C   C687      1.0  0.80617  0.31535  0.78083  1.0000
  H   H1171     1.0  0.58541  0.21774  0.78436  1.0000
  C   C688      1.0  0.75648  0.29489  0.83061  1.0000
  C   C689      1.0  0.84055  0.19934  0.78665  1.0000
  C   C690      1.0  0.83863  0.34067  0.79899  1.0000
  H   H1172     1.0  0.57838  0.20740  0.74734  1.0000
  H   H1173     1.0  0.58574  0.35500  0.80089  1.0000
  H   H1174     1.0  0.81767  0.26774  0.83413  1.0000
  H   H1175     1.0  0.77856  0.23191  0.82369  1.0000
  C   C691      1.0  0.93767  0.04852  0.72023  1.0000
  H   H1176     1.0  0.86614  0.25910  0.79877  1.0000
  H   H1177     1.0  0.81525  0.31883  0.75822  1.0000
  H   H1178     1.0  0.77588  0.33174  0.78126  1.0000
  C   C692      1.0  0.61266  0.11064  0.94547  1.0000
  C   C693      1.0  0.56076  0.29151  0.80972  1.0000
  H   H1179     1.0  0.56306  0.29262  0.74656  1.0000
  H   H1180     1.0  0.97336  0.15146  0.72258  1.0000
  H   H1181     1.0  0.55498  0.26374  0.98456  1.0000
  H   H1182     1.0  0.76923  0.32718  0.83353  1.0000
  H   H1183     1.0  0.87255  0.18695  0.78421  1.0000
  H   H1184     1.0  0.82087  0.18439  0.76964  1.0000
  H   H1185     1.0  0.83006  0.18962  0.80803  1.0000
  C   C694      1.0  0.84706  0.39078  0.66205  1.0000
  H   H1186     1.0  0.84924  0.32481  0.81892  1.0000
  H   H1187     1.0  0.61934  0.47002  0.69619  1.0000
  H   H1188     1.0  0.65233  0.07951  0.89589  1.0000
  H   H1189     1.0  0.82649  0.33441  0.68332  1.0000
  H   H1190     1.0  0.77295  0.28367  0.72850  1.0000
  H   H1191     1.0  0.74427  0.13320  0.84375  1.0000
  C   C695      1.0  0.00038  0.25061  0.87158  1.0000
  H   H1192     1.0  0.93254  0.23923  0.90555  1.0000
  H   H1193     1.0  0.83913  0.47553  0.75527  1.0000
  H   H1194     1.0  0.75998  0.08593  0.80515  1.0000
  C   C696      1.0  0.93067  0.31418  0.88357  1.0000
  S   S203      1.0  0.55961  0.25226  0.68797  1.0000
  H   H1195     1.0  0.74635  0.14015  0.88175  1.0000
  C   C697      1.0  0.63461  0.39342  0.98002  1.0000
  H   H1196     1.0  0.92317  0.34761  0.87876  1.0000
  H   H1197     1.0  0.92861  0.29661  0.86318  1.0000
  H   H1198     1.0  0.69876  0.40623  0.67683  1.0000
  H   H1199     1.0  0.66429  0.33577  0.96797  1.0000
  H   H1200     1.0  0.70512  0.10995  0.86577  1.0000
  C   C698      1.0  0.79536  0.43609  0.72899  1.0000
  N   N53       1.0  0.99329  0.26849  0.90093  1.0000
  C   C699      1.0  0.56225  0.12345  0.90620  1.0000
  H   H1201     1.0  0.86655  0.34752  0.78621  1.0000
  C   C700      1.0  0.72069  0.03594  0.83691  1.0000
  C   C701      1.0  0.96300  0.24177  0.91725  1.0000
  H   H1202     1.0  0.84777  0.08264  0.83418  1.0000
  N   N54       1.0  0.78855  0.49834  0.96145  1.0000
  H   H1203     1.0  0.96879  0.12293  0.76940  1.0000
  H   H1204     1.0  0.76468  0.50313  0.67526  1.0000
  C   C702      1.0  0.76629  0.25122  0.77009  1.0000
  C   C703      1.0  0.66664  0.36379  0.98108  1.0000
  C   C704      1.0  0.76580  0.07741  0.86858  1.0000
  H   H1205     1.0  0.57781  0.45329  0.89560  1.0000
  H   H1206     1.0  0.57939  0.13544  0.98281  1.0000
  C   C705      1.0  0.59671  0.32204  0.80289  1.0000
  H   H1207     1.0  0.57519  0.26215  0.81771  1.0000
  H   H1208     1.0  0.84228  0.03697  0.87554  1.0000
  H   H1209     1.0  0.95966  0.12324  0.69155  1.0000
  C   C706      1.0  0.78425  0.25255  0.98227  1.0000
  H   H1210     1.0  0.00353  0.05422  0.78344  1.0000
  H   H1211     1.0  0.01615  0.04244  0.73395  1.0000
  H   H1212     1.0  0.54147  0.50525  0.92305  1.0000
  N   N55       1.0  0.76567  0.04761  0.84349  1.0000
  C   C707      1.0  0.00963  0.07598  0.72849  1.0000
  N   N56       1.0  0.52471  0.52846  0.88058  1.0000
  H   H1213     1.0  0.62910  0.08643  0.95876  1.0000
  H   H1214     1.0  0.92032  0.09579  0.76496  1.0000
  Fe  Fe106     1.0  0.80706  0.03700  0.73689  1.0000
  H   H1215     1.0  0.01417  0.06968  0.68127  1.0000
  H   H1216     1.0  0.01069  0.27615  0.85699  1.0000
  S   S204      1.0  0.73054  0.52495  0.81292  1.0000
  H   H1217     1.0  0.78798  0.51914  0.74678  1.0000
  H   H1218     1.0  0.75692  0.23656  0.97188  1.0000
  H   H1219     1.0  0.61190  0.03250  0.92865  1.0000
  H   H1220     1.0  0.80647  0.51619  0.91897  1.0000
  C   C708      1.0  0.84150  0.45237  0.99051  1.0000
  H   H1221     1.0  0.69448  0.52230  0.73258  1.0000
  H   H1222     1.0  0.84363  0.52115  0.71267  1.0000
  H   H1223     1.0  0.53247  0.07560  0.87721  1.0000
  S   S205      1.0  0.80856  0.03590  0.93827  1.0000
  H   H1224     1.0  0.56371  0.47436  0.70127  1.0000
  H   H1225     1.0  0.53297  0.34725  0.76819  1.0000
  H   H1226     1.0  0.52925  0.12794  0.86485  1.0000
  C   C709      1.0  0.52814  0.10833  0.88452  1.0000
  H   H1227     1.0  0.93264  0.52797  0.76758  1.0000
  H   H1228     1.0  0.56898  0.03205  0.90450  1.0000
  C   C710      1.0  0.78945  0.52969  0.93725  1.0000
  H   H1229     1.0  0.57677  0.05939  0.98540  1.0000
  Fe  Fe107     1.0  0.72510  0.07793  0.99117  1.0000
  H   H1230     1.0  0.58513  0.81079  0.29737  1.0000
  S   S206      1.0  0.69605  0.57265  0.13227  1.0000
  S   S207      1.0  0.84622  0.59896  0.02750  1.0000
  H   H1231     1.0  0.96118  0.69842  0.01128  1.0000
  H   H1232     1.0  0.93120  0.67767  0.09919  1.0000
  S   S208      1.0  0.84402  0.60455  0.27710  1.0000
  H   H1233     1.0  0.87463  0.62835  0.08404  1.0000
  S   S209      1.0  0.00995  0.70138  0.31498  1.0000
  S   S210      1.0  0.85134  0.99197  0.26790  1.0000
  C   C711      1.0  0.91028  0.65512  0.01863  1.0000
  C   C712      1.0  0.94240  0.68326  0.02719  1.0000
  S   S211      1.0  0.57436  0.72224  0.09391  1.0000
  S   S212      1.0  0.56147  0.86207  0.20589  1.0000
  H   H1234     1.0  0.73350  0.99640  0.30140  1.0000
  S   S213      1.0  0.99070  0.72598  0.06826  1.0000
  H   H1235     1.0  0.01978  0.88268  0.09932  1.0000
  H   H1236     1.0  0.53017  0.61884  0.11251  1.0000
  H   H1237     1.0  0.73692  0.97397  0.05766  1.0000
  H   H1238     1.0  0.85614  0.54315  0.23098  1.0000
  Fe  Fe108     1.0  0.52898  0.81697  0.17488  1.0000
  H   H1239     1.0  0.59465  0.74495  0.27225  1.0000
  H   H1240     1.0  0.84012  0.01272  0.09127  1.0000
  S   S214      1.0  0.98290  0.86111  0.22191  1.0000
  H   H1241     1.0  0.98781  0.01386  0.04142  1.0000
  Fe  Fe109     1.0  0.74555  0.54515  0.10391  1.0000
  C   C713      1.0  0.95109  0.91250  0.00934  1.0000
  C   C714      1.0  0.91870  0.93778  0.01945  1.0000
  H   H1242     1.0  0.96878  0.89299  0.02411  1.0000
  H   H1243     1.0  0.91180  0.93748  0.04199  1.0000
  C   C715      1.0  0.88935  0.95720  0.25492  1.0000
  C   C716      1.0  0.91497  0.93483  0.27445  1.0000
  C   C717      1.0  0.94483  0.90618  0.26470  1.0000
  C   C718      1.0  0.94886  0.89942  0.23532  1.0000
  C   C719      1.0  0.92325  0.92176  0.21584  1.0000
  C   C720      1.0  0.89379  0.95069  0.22557  1.0000
  H   H1244     1.0  0.91185  0.93987  0.29720  1.0000
  H   H1245     1.0  0.96447  0.88920  0.27989  1.0000
  H   H1246     1.0  0.92613  0.91662  0.19308  1.0000
  H   H1247     1.0  0.87433  0.96768  0.21034  1.0000
  C   C721      1.0  0.65871  0.95805  0.17595  1.0000
  C   C722      1.0  0.65226  0.95169  0.20515  1.0000
  C   C723      1.0  0.62226  0.92230  0.21402  1.0000
  C   C724      1.0  0.59907  0.89844  0.19384  1.0000
  C   C725      1.0  0.60571  0.90459  0.16467  1.0000
  C   C726      1.0  0.63513  0.93455  0.15578  1.0000
  H   H1248     1.0  0.67038  0.96927  0.22093  1.0000
  H   H1249     1.0  0.61736  0.91766  0.23664  1.0000
  H   H1250     1.0  0.58819  0.88634  0.14893  1.0000
  H   H1251     1.0  0.64002  0.93917  0.13316  1.0000
  H   H1252     1.0  0.77109  0.71139  0.24551  1.0000
  C   C727      1.0  0.89185  0.62870  0.28717  1.0000
  H   H1253     1.0  0.77531  0.58218  0.20038  1.0000
  S   S215      1.0  0.81170  0.56860  0.10752  1.0000
  C   C728      1.0  0.96574  0.67217  0.30325  1.0000
  C   C729      1.0  0.94999  0.67465  0.27508  1.0000
  C   C730      1.0  0.91324  0.65277  0.26705  1.0000
  H   H1254     1.0  0.90459  0.64883  0.99610  1.0000
  H   H1255     1.0  0.61218  0.54238  0.13943  1.0000
  H   H1256     1.0  0.96614  0.69327  0.25949  1.0000
  H   H1257     1.0  0.90129  0.65451  0.24524  1.0000
  C   C731      1.0  0.66310  0.61466  0.12115  1.0000
  C   C732      1.0  0.63525  0.63156  0.14075  1.0000
  C   C733      1.0  0.60804  0.66444  0.13271  1.0000
  C   C734      1.0  0.60834  0.68087  0.10490  1.0000
  C   C735      1.0  0.63594  0.66368  0.08520  1.0000
  C   C736      1.0  0.66325  0.63078  0.09326  1.0000
  H   H1258     1.0  0.63473  0.61922  0.16233  1.0000
  H   H1259     1.0  0.58670  0.67684  0.14802  1.0000
  H   H1260     1.0  0.63636  0.67598  0.06361  1.0000
  H   H1261     1.0  0.68441  0.61797  0.07791  1.0000
  C   C737      1.0  0.88569  0.63496  0.03903  1.0000
  C   C738      1.0  0.89332  0.64348  0.06810  1.0000
  C   C739      1.0  0.92545  0.67151  0.07665  1.0000
  C   C740      1.0  0.95019  0.69150  0.05629  1.0000
  Fe  Fe110     1.0  0.81591  0.56052  0.30955  1.0000
  C   C741      1.0  0.82736  0.01642  0.11282  1.0000
  C   C742      1.0  0.52723  0.77402  0.30145  1.0000
  C   C743      1.0  0.77249  0.55863  0.21784  1.0000
  Fe  Fe111     1.0  0.81296  0.55876  0.06008  1.0000
  H   H1262     1.0  0.74558  0.98429  0.09504  1.0000
  C   C744      1.0  0.60368  0.79409  0.01156  1.0000
  H   H1263     1.0  0.59699  0.74613  0.23399  1.0000
  H   H1264     1.0  0.56340  0.84580  0.00024  1.0000
  C   C745      1.0  0.84300  0.53330  0.20965  1.0000
  S   S216      1.0  0.85445  0.99427  0.01445  1.0000
  H   H1265     1.0  0.53816  0.96312  0.15051  1.0000
  H   H1266     1.0  0.78693  0.53567  0.00004  1.0000
  C   C746      1.0  0.72518  0.55258  0.22084  1.0000
  C   C747      1.0  0.89489  0.96306  0.00058  1.0000
  C   C748      1.0  0.55092  0.81604  0.29681  1.0000
  H   H1267     1.0  0.88639  0.57110  0.18550  1.0000
  H   H1268     1.0  0.53966  0.78967  0.24271  1.0000
  H   H1269     1.0  0.95857  0.76877  0.16368  1.0000
  H   H1270     1.0  0.80636  0.70756  0.21716  1.0000
  C   C749      1.0  0.02035  0.79672  0.16189  1.0000
  S   S217      1.0  0.80949  0.02721  0.18857  1.0000
  H   H1271     1.0  0.70331  0.00966  0.07523  1.0000
  H   H1272     1.0  0.54510  0.83745  0.31504  1.0000
  C   C750      1.0  0.98628  0.76647  0.15007  1.0000
  H   H1273     1.0  0.97614  0.52978  0.10520  1.0000
  H   H1274     1.0  0.78445  0.57418  0.23775  1.0000
  H   H1275     1.0  0.79434  0.02050  0.05835  1.0000
  C   C751      1.0  0.96038  0.55481  0.06360  1.0000
  S   S218      1.0  0.74761  0.54271  0.30653  1.0000
  H   H1276     1.0  0.95616  0.58474  0.07538  1.0000
  H   H1277     1.0  0.85421  0.02448  0.12735  1.0000
  C   C752      1.0  0.53521  0.55739  0.13292  1.0000
  H   H1278     1.0  0.54750  0.79667  0.06521  1.0000
  H   H1279     1.0  0.81583  0.98524  0.12003  1.0000
  H   H1280     1.0  0.84298  0.60035  0.19765  1.0000
  H   H1281     1.0  0.99679  0.73324  0.15095  1.0000
  H   H1282     1.0  0.99808  0.99409  0.00686  1.0000
  C   C753      1.0  0.01005  0.85667  0.11360  1.0000
  C   C754      1.0  0.85223  0.56948  0.18874  1.0000
  H   H1283     1.0  0.93367  0.55171  0.04809  1.0000
  C   C755      1.0  0.90827  0.62527  0.31509  1.0000
  C   C756      1.0  0.52500  0.75123  0.02324  1.0000
  C   C757      1.0  0.94514  0.64679  0.32304  1.0000
  Fe  Fe112     1.0  0.53214  0.75385  0.12573  1.0000
  C   C758      1.0  0.53837  0.58615  0.10638  1.0000
  H   H1284     1.0  0.58325  0.86022  0.04967  1.0000
  H   H1285     1.0  0.55391  0.74001  0.03445  1.0000
  H   H1286     1.0  0.60720  0.76085  0.00468  1.0000
  H   H1287     1.0  0.60930  0.79593  0.03506  1.0000
  H   H1288     1.0  0.57035  0.58732  0.09800  1.0000
  S   S219      1.0  0.69509  0.99560  0.16374  1.0000
  N   N57       1.0  0.85275  0.78457  0.23790  1.0000
  C   C759      1.0  0.85076  0.83169  0.24213  1.0000
  C   C760      1.0  0.88017  0.76694  0.26170  1.0000
  C   C761      1.0  0.80906  0.76748  0.24077  1.0000
  C   C762      1.0  0.86926  0.77576  0.20849  1.0000
  C   C763      1.0  0.82053  0.85580  0.22181  1.0000
  C   C764      1.0  0.92420  0.78646  0.26462  1.0000
  C   C765      1.0  0.80342  0.71930  0.23936  1.0000
  C   C766      1.0  0.89165  0.73331  0.20417  1.0000
  H   H1289     1.0  0.84229  0.83954  0.26451  1.0000
  H   H1290     1.0  0.88182  0.84631  0.23906  1.0000
  H   H1291     1.0  0.88442  0.73265  0.25934  1.0000
  H   H1292     1.0  0.86505  0.77075  0.28273  1.0000
  H   H1293     1.0  0.79588  0.77811  0.26141  1.0000
  H   H1294     1.0  0.78789  0.78000  0.22357  1.0000
  H   H1295     1.0  0.84363  0.77754  0.19196  1.0000
  H   H1296     1.0  0.89212  0.80044  0.20216  1.0000
  H   H1297     1.0  0.82564  0.84841  0.19898  1.0000
  H   H1298     1.0  0.78748  0.85005  0.22708  1.0000
  H   H1299     1.0  0.82593  0.89016  0.22461  1.0000
  H   H1300     1.0  0.92329  0.81804  0.27469  1.0000
  H   H1301     1.0  0.94423  0.76644  0.27876  1.0000
  H   H1302     1.0  0.93944  0.78907  0.24374  1.0000
  H   H1303     1.0  0.71142  0.58322  0.22692  1.0000
  C   C767      1.0  0.57774  0.73592  0.25218  1.0000
  H   H1304     1.0  0.82426  0.70181  0.25440  1.0000
  H   H1305     1.0  0.92260  0.73260  0.21533  1.0000
  H   H1306     1.0  0.89732  0.72903  0.18100  1.0000
  H   H1307     1.0  0.87338  0.70580  0.21099  1.0000
  S   S220      1.0  0.74483  0.54053  0.05585  1.0000
  H   H1308     1.0  0.53203  0.69262  0.28950  1.0000
  C   C768      1.0  0.01123  0.01407  0.02432  1.0000
  H   H1309     1.0  0.98044  0.84410  0.10402  1.0000
  H   H1310     1.0  0.83709  0.56446  0.16748  1.0000
  H   H1311     1.0  0.00455  0.82627  0.16745  1.0000
  C   C769      1.0  0.73611  0.99889  0.07433  1.0000
  C   C770      1.0  0.54932  0.86143  0.05347  1.0000
  H   H1312     1.0  0.59802  0.63941  0.32026  1.0000
  H   H1313     1.0  0.54207  0.83386  0.27731  1.0000
  H   H1314     1.0  0.00329  0.87138  0.13433  1.0000
  S   S221      1.0  0.54529  0.74852  0.17276  1.0000
  H   H1315     1.0  0.54222  0.53787  0.19108  1.0000
  C   C771      1.0  0.52879  0.81741  0.05066  1.0000
  H   H1316     1.0  0.55045  0.75262  0.31187  1.0000
  C   C772      1.0  0.56043  0.81113  0.00216  1.0000
  H   H1317     1.0  0.97608  0.77430  0.12784  1.0000
  H   H1318     1.0  0.68087  0.99607  0.31321  1.0000
  H   H1319     1.0  0.57513  0.70111  0.25095  1.0000
  H   H1320     1.0  0.55154  0.57482  0.15064  1.0000
  C   C773      1.0  0.71403  0.99845  0.32055  1.0000
  H   H1321     1.0  0.62835  0.81268  0.00101  1.0000
  H   H1322     1.0  0.70981  0.54363  0.20016  1.0000
  C   C774      1.0  0.53446  0.75672  0.24931  1.0000
  H   H1323     1.0  0.54598  0.87299  0.07571  1.0000
  H   H1324     1.0  0.53500  0.88530  0.03917  1.0000
  H   H1325     1.0  0.98960  0.55781  0.05171  1.0000
  H   H1326     1.0  0.52518  0.73657  0.00157  1.0000
  N   N58       1.0  0.52492  0.79869  0.02095  1.0000
  H   H1327     1.0  0.71729  0.53009  0.23788  1.0000
  Fe  Fe113     1.0  0.74001  0.02952  0.19432  1.0000
  S   S222      1.0  0.70540  0.58027  0.38574  1.0000
  H   H1328     1.0  0.86058  0.66055  0.50740  1.0000
  S   S223      1.0  0.54107  0.80470  0.61836  1.0000
  H   H1329     1.0  0.91682  0.55709  0.51867  1.0000
  H   H1330     1.0  0.92340  0.70274  0.52020  1.0000
  S   S224      1.0  0.58236  0.84761  0.45421  1.0000
  Fe  Fe114     1.0  0.79272  0.54373  0.56488  1.0000
  S   S225      1.0  0.98525  0.75309  0.49285  1.0000
  C   C775      1.0  0.86190  0.97813  0.50299  1.0000
  C   C776      1.0  0.89385  0.95946  0.51973  1.0000
  C   C777      1.0  0.91172  0.92109  0.51135  1.0000
  H   H1331     1.0  0.90460  0.97447  0.53938  1.0000
  H   H1332     1.0  0.93610  0.90681  0.52447  1.0000
  C   C778      1.0  0.65385  0.96430  0.42375  1.0000
  C   C779      1.0  0.62428  0.94455  0.40550  1.0000
  C   C780      1.0  0.60203  0.90898  0.41467  1.0000
  C   C781      1.0  0.60947  0.89259  0.44212  1.0000
  C   C782      1.0  0.63892  0.91245  0.46044  1.0000
  C   C783      1.0  0.66101  0.94824  0.45133  1.0000
  H   H1333     1.0  0.61849  0.95676  0.38414  1.0000
  H   H1334     1.0  0.57926  0.89418  0.40041  1.0000
  H   H1335     1.0  0.64489  0.89995  0.48170  1.0000
  H   H1336     1.0  0.68380  0.96308  0.46555  1.0000
  C   C784      1.0  0.66490  0.61541  0.37571  1.0000
  C   C785      1.0  0.64717  0.64066  0.39683  1.0000
  C   C786      1.0  0.61232  0.66605  0.39029  1.0000
  C   C787      1.0  0.59376  0.66480  0.36287  1.0000
  C   C788      1.0  0.61202  0.64031  0.34158  1.0000
  C   C789      1.0  0.64807  0.61649  0.34779  1.0000
  H   H1337     1.0  0.66022  0.64029  0.41844  1.0000
  H   H1338     1.0  0.59871  0.68503  0.40681  1.0000
  C   C790      1.0  0.94261  0.79385  0.36575  1.0000
  H   H1339     1.0  0.94061  0.63049  0.59724  1.0000
  H   H1340     1.0  0.72998  0.78288  0.59739  1.0000
  S   S226      1.0  0.81950  0.59218  0.53501  1.0000
  H   H1341     1.0  0.87694  0.58879  0.58478  1.0000
  C   C791      1.0  0.87796  0.65384  0.52703  1.0000
  H   H1342     1.0  0.87896  0.72738  0.44044  1.0000
  Fe  Fe115     1.0  0.00257  0.75132  0.53956  1.0000
  S   S227      1.0  0.98208  0.69878  0.56897  1.0000
  Fe  Fe116     1.0  0.97111  0.82140  0.50022  1.0000
  S   S228      1.0  0.91816  0.85234  0.47516  1.0000
  S   S229      1.0  0.98350  0.81834  0.54762  1.0000
  C   C792      1.0  0.89747  0.90101  0.48625  1.0000
  C   C793      1.0  0.86572  0.91984  0.46948  1.0000
  C   C794      1.0  0.84804  0.95824  0.47777  1.0000
  H   H1343     1.0  0.85442  0.90441  0.45012  1.0000
  H   H1344     1.0  0.82327  0.97205  0.46481  1.0000
  H   H1345     1.0  0.68748  0.84384  0.61606  1.0000
  C   C795      1.0  0.65236  0.60184  0.63036  1.0000
  H   H1346     1.0  0.55229  0.63304  0.43752  1.0000
  C   C796      1.0  0.72203  0.55926  0.48002  1.0000
  C   C797      1.0  0.58916  0.65695  0.61011  1.0000
  C   C798      1.0  0.61472  0.63594  0.59088  1.0000
  C   C799      1.0  0.64636  0.60871  0.60095  1.0000
  S   S230      1.0  0.68980  0.56567  0.64383  1.0000
  H   H1347     1.0  0.96514  0.54620  0.55435  1.0000
  H   H1348     1.0  0.60995  0.64063  0.56808  1.0000
  H   H1349     1.0  0.66568  0.59271  0.58589  1.0000
  C   C800      1.0  0.86434  0.62176  0.54522  1.0000
  C   C801      1.0  0.88706  0.61343  0.57059  1.0000
  C   C802      1.0  0.92318  0.63708  0.57760  1.0000
  C   C803      1.0  0.93664  0.66944  0.55948  1.0000
  C   C804      1.0  0.91374  0.67775  0.53420  1.0000
  C   C805      1.0  0.91019  0.74049  0.43572  1.0000
  H   H1350     1.0  0.77852  0.53256  0.41655  1.0000
  H   H1351     1.0  0.54316  0.74914  0.52644  1.0000
  C   C806      1.0  0.91110  0.75242  0.40372  1.0000
  C   C807      1.0  0.98822  0.82963  0.63726  1.0000
  H   H1352     1.0  0.92831  0.74534  0.33287  1.0000
  Fe  Fe117     1.0  0.53633  0.81568  0.42359  1.0000
  H   H1353     1.0  0.00726  0.84245  0.38709  1.0000
  H   H1354     1.0  0.53596  0.80061  0.55497  1.0000
  H   H1355     1.0  0.96424  0.80618  0.63008  1.0000
  H   H1356     1.0  0.75800  0.58492  0.44607  1.0000
  H   H1357     1.0  0.98272  0.77935  0.43361  1.0000
  H   H1358     1.0  0.88673  0.77717  0.40104  1.0000
  H   H1359     1.0  0.89944  0.72452  0.39140  1.0000
  H   H1360     1.0  0.56460  0.76360  0.49276  1.0000
  H   H1361     1.0  0.90846  0.79656  0.32522  1.0000
  C   C808      1.0  0.62693  0.62298  0.64960  1.0000
  H   H1362     1.0  0.78799  0.98968  0.34243  1.0000
  C   C809      1.0  0.72185  0.70234  0.59514  1.0000
  H   H1363     1.0  0.75739  0.77914  0.63034  1.0000
  H   H1364     1.0  0.66191  0.59784  0.33122  1.0000
  C   C810      1.0  0.97892  0.73140  0.38348  1.0000
  H   H1365     1.0  0.54807  0.55883  0.58952  1.0000
  C   C811      1.0  0.53530  0.75535  0.50370  1.0000
  H   H1366     1.0  0.75363  0.71565  0.59275  1.0000
  H   H1367     1.0  0.79588  0.02340  0.62368  1.0000
  H   H1368     1.0  0.63290  0.73793  0.57989  1.0000
  C   C812      1.0  0.91383  0.77331  0.34262  1.0000
  H   H1369     1.0  0.97044  0.67537  0.41034  1.0000
  H   H1370     1.0  0.78013  0.59178  0.48087  1.0000
  N   N59       1.0  0.95206  0.76778  0.39218  1.0000
  C   C813      1.0  0.01410  0.81798  0.40347  1.0000
  H   H1371     1.0  0.95772  0.64364  0.34465  1.0000
  H   H1372     1.0  0.72108  0.02480  0.58755  1.0000
  H   H1373     1.0  0.00220  0.02620  0.45672  1.0000
  H   H1374     1.0  0.72588  0.55036  0.50289  1.0000
  S   S231      1.0  0.80028  0.55184  0.61214  1.0000
  C   C814      1.0  0.83699  0.54734  0.46002  1.0000
  C   C815      1.0  0.76456  0.56805  0.46664  1.0000
  C   C816      1.0  0.53390  0.61165  0.42316  1.0000
  S   S232      1.0  0.54749  0.81003  0.37674  1.0000
  S   S233      1.0  0.81560  0.57348  0.35658  1.0000
  C   C817      1.0  0.54673  0.54373  0.61094  1.0000
  H   H1375     1.0  0.93319  0.71625  0.44199  1.0000
  H   H1376     1.0  0.95789  0.86333  0.60172  1.0000
  H   H1377     1.0  0.60420  0.88200  0.63864  1.0000
  H   H1378     1.0  0.64613  0.94426  0.62428  1.0000
  H   H1379     1.0  0.87753  0.59134  0.43842  1.0000
  H   H1380     1.0  0.54832  0.88273  0.52115  1.0000
  H   H1381     1.0  0.01322  0.86767  0.60085  1.0000
  H   H1382     1.0  0.82673  0.61211  0.44372  1.0000
  H   H1383     1.0  0.57393  0.83329  0.51393  1.0000
  H   H1384     1.0  0.61766  0.79205  0.58372  1.0000
  H   H1385     1.0  0.92787  0.82424  0.37173  1.0000
  C   C818      1.0  0.98664  0.86629  0.61540  1.0000
  C   C819      1.0  0.84383  0.58307  0.43826  1.0000
  H   H1386     1.0  0.58186  0.85916  0.54746  1.0000
  S   S234      1.0  0.54546  0.68957  0.35521  1.0000
  C   C820      1.0  0.62868  0.89398  0.65281  1.0000
  H   H1387     1.0  0.71932  0.84233  0.64875  1.0000
  C   C821      1.0  0.97044  0.01535  0.46202  1.0000
  H   H1388     1.0  0.98389  0.89694  0.62658  1.0000
  H   H1389     1.0  0.97182  0.80227  0.35465  1.0000
  H   H1390     1.0  0.88271  0.76485  0.35067  1.0000
  H   H1391     1.0  0.95923  0.99441  0.44435  1.0000
  H   H1392     1.0  0.83543  0.57305  0.41621  1.0000
  H   H1393     1.0  0.01292  0.76564  0.60718  1.0000
  H   H1394     1.0  0.70101  0.71346  0.57757  1.0000
  C   C822      1.0  0.64282  0.76906  0.58860  1.0000
  H   H1395     1.0  0.91442  0.76859  0.44958  1.0000
  C   C823      1.0  0.71773  0.83370  0.62574  1.0000
  C   C824      1.0  0.65026  0.76661  0.62134  1.0000
  C   C825      1.0  0.78819  0.01778  0.35664  1.0000
  H   H1396     1.0  0.72016  0.97091  0.33468  1.0000
  H   H1397     1.0  0.62772  0.74256  0.62881  1.0000
  H   H1398     1.0  0.74233  0.85250  0.61528  1.0000
  C   C826      1.0  0.70499  0.71141  0.62513  1.0000
  H   H1399     1.0  0.72478  0.66770  0.59249  1.0000
  C   C827      1.0  0.83453  0.02483  0.36464  1.0000
  H   H1400     1.0  0.70352  0.58875  0.47948  1.0000
  H   H1401     1.0  0.00662  0.74203  0.37156  1.0000
  H   H1402     1.0  0.84861  0.55940  0.48118  1.0000
  C   C828      1.0  0.59561  0.65054  0.63954  1.0000
  H   H1403     1.0  0.53817  0.01680  0.41257  1.0000
  H   H1404     1.0  0.77206  0.00801  0.37647  1.0000
  H   H1405     1.0  0.89263  0.60607  0.33061  1.0000
  H   H1406     1.0  0.00247  0.72260  0.64482  1.0000
  H   H1407     1.0  0.66978  0.78080  0.57675  1.0000
  S   S235      1.0  0.54893  0.68998  0.59664  1.0000
  H   H1408     1.0  0.63871  0.79628  0.63102  1.0000
  H   H1409     1.0  0.72947  0.69947  0.64046  1.0000
  N   N60       1.0  0.69383  0.75641  0.63208  1.0000
  C   C829      1.0  0.99382  0.70068  0.40710  1.0000
  H   H1410     1.0  0.56153  0.98219  0.44999  1.0000
  Fe  Fe118     1.0  0.74948  0.55037  0.35450  1.0000
  H   H1411     1.0  0.95253  0.82157  0.42048  1.0000
  C   C830      1.0  0.97402  0.79621  0.41365  1.0000
  C   C831      1.0  0.55815  0.85206  0.53034  1.0000
  C   C832      1.0  0.72604  0.78644  0.62074  1.0000
  H   H1412     1.0  0.59158  0.98761  0.48221  1.0000
  H   H1413     1.0  0.96175  0.71139  0.36765  1.0000
  H   H1414     1.0  0.84626  0.99673  0.37646  1.0000
  H   H1415     1.0  0.53579  0.58062  0.43375  1.0000
  C   C833      1.0  0.56841  0.00391  0.46805  1.0000
  H   H1416     1.0  0.54921  0.61016  0.40219  1.0000
  H   H1417     1.0  0.60273  0.54008  0.33064  1.0000
  H   H1418     1.0  0.85358  0.02760  0.34524  1.0000
  S   S236      1.0  0.84057  0.02676  0.51370  1.0000
  H   H1419     1.0  0.54062  0.00872  0.48120  1.0000
  H   H1420     1.0  0.00173  0.71593  0.42776  1.0000
  S   S237      1.0  0.68052  0.00934  0.41138  1.0000
  C   C834      1.0  0.65247  0.92917  0.64469  1.0000
  S   S238      1.0  0.71348  0.98948  0.65263  1.0000
  Fe  Fe119     1.0  0.73283  0.53357  0.61316  1.0000
  H   H1421     1.0  0.55168  0.56938  0.62677  1.0000
  H   H1422     1.0  0.57577  0.66585  0.65458  1.0000
  H   H1423     1.0  0.97160  0.99564  0.48165  1.0000
  H   H1424     1.0  0.70342  0.53526  0.46827  1.0000
  H   H1425     1.0  0.67759  0.69040  0.62778  1.0000
  H   H1426     1.0  0.02335  0.68584  0.40054  1.0000
  N   N61       1.0  0.79286  0.53085  0.46199  1.0000
  H   H1427     1.0  0.52452  0.72496  0.49429  1.0000
  S   S239      1.0  0.72352  0.53025  0.56549  1.0000
  H   H1428     1.0  0.89139  0.62970  0.75149  1.0000
  S   S240      1.0  0.68856  0.55976  0.88957  1.0000
  S   S241      1.0  0.83043  0.58177  0.78144  1.0000
  H   H1429     1.0  0.94316  0.68355  0.76738  1.0000
  H   H1430     1.0  0.89933  0.67415  0.85319  1.0000
  S   S242      1.0  0.85556  0.00708  0.76650  1.0000
  C   C835      1.0  0.57092  0.56155  0.84203  1.0000
  H   H1431     1.0  0.84774  0.62012  0.83732  1.0000
  S   S243      1.0  0.70887  0.97630  0.90749  1.0000
  H   H1432     1.0  0.56784  0.59458  0.84918  1.0000
  C   C836      1.0  0.89308  0.63928  0.77373  1.0000
  S   S244      1.0  0.60944  0.82923  0.68990  1.0000
  H   H1433     1.0  0.96388  0.75353  0.66295  1.0000
  H   H1434     1.0  0.64457  0.75071  0.91794  1.0000
  C   C837      1.0  0.92240  0.66993  0.78269  1.0000
  H   H1435     1.0  0.63120  0.61777  0.67238  1.0000
  S   S245      1.0  0.99123  0.75252  0.74362  1.0000
  S   S246      1.0  0.96187  0.72031  0.82355  1.0000
  H   H1436     1.0  0.97039  0.76089  0.92277  1.0000
  S   S247      1.0  0.97312  0.86542  0.71765  1.0000
  H   H1437     1.0  0.00115  0.79485  0.86200  1.0000
  C   C838      1.0  0.96838  0.57121  0.83685  1.0000
  H   H1438     1.0  0.96520  0.01567  0.68398  1.0000
  C   C839      1.0  0.93693  0.93830  0.96140  1.0000
  H   H1439     1.0  0.88626  0.98275  0.95674  1.0000
  H   H1440     1.0  0.94398  0.93878  0.93888  1.0000
  C   C840      1.0  0.66456  0.94687  0.91707  1.0000
  C   C841      1.0  0.64580  0.95294  0.94339  1.0000
  C   C842      1.0  0.60975  0.93008  0.95009  1.0000
  C   C843      1.0  0.59250  0.90056  0.93075  1.0000
  C   C844      1.0  0.61152  0.89404  0.90451  1.0000
  C   C845      1.0  0.64730  0.91739  0.89764  1.0000
  H   H1441     1.0  0.65877  0.97558  0.95849  1.0000
  H   H1442     1.0  0.59519  0.93527  0.97041  1.0000
  H   H1443     1.0  0.59823  0.87161  0.88939  1.0000
  H   H1444     1.0  0.66151  0.91290  0.87714  1.0000
  C   C846      1.0  0.88556  0.96527  0.75325  1.0000
  C   C847      1.0  0.91418  0.94472  0.77167  1.0000
  C   C848      1.0  0.94058  0.91333  0.76119  1.0000
  C   C849      1.0  0.93884  0.90269  0.73212  1.0000
  C   C850      1.0  0.91006  0.92314  0.71376  1.0000
  C   C851      1.0  0.88317  0.95396  0.72432  1.0000
  H   H1445     1.0  0.91626  0.95340  0.79406  1.0000
  H   H1446     1.0  0.96278  0.89798  0.77549  1.0000
  H   H1447     1.0  0.90850  0.91502  0.69126  1.0000
  H   H1448     1.0  0.86110  0.96942  0.70998  1.0000
  H   H1449     1.0  0.00748  0.71954  0.92307  1.0000
  C   C852      1.0  0.69205  0.92563  0.68943  1.0000
  C   C853      1.0  0.66885  0.89013  0.69732  1.0000
  C   C854      1.0  0.63693  0.87442  0.67919  1.0000
  H   H1450     1.0  0.68001  0.00108  0.80724  1.0000
  C   C855      1.0  0.98554  0.84976  0.88601  1.0000
  H   H1451     1.0  0.71678  0.93723  0.70349  1.0000
  H   H1452     1.0  0.67566  0.87488  0.71761  1.0000
  H   H1453     1.0  0.73579  0.69293  0.85430  1.0000
  C   C856      1.0  0.66160  0.60495  0.87762  1.0000
  C   C857      1.0  0.63180  0.62302  0.89526  1.0000
  C   C858      1.0  0.60874  0.65822  0.88597  1.0000
  C   C859      1.0  0.61556  0.67570  0.85901  1.0000
  C   C860      1.0  0.64576  0.65802  0.84153  1.0000
  C   C861      1.0  0.66869  0.62267  0.85077  1.0000
  H   H1454     1.0  0.62629  0.60950  0.91609  1.0000
  H   H1455     1.0  0.58555  0.67161  0.89962  1.0000
  H   H1456     1.0  0.65120  0.67144  0.82066  1.0000
  H   H1457     1.0  0.69165  0.60900  0.83706  1.0000
  C   C862      1.0  0.86618  0.62087  0.79337  1.0000
  C   C863      1.0  0.86852  0.63366  0.82204  1.0000
  C   C864      1.0  0.89769  0.66448  0.83097  1.0000
  C   C865      1.0  0.92477  0.68270  0.81135  1.0000
  H   H1458     1.0  0.97062  0.83518  0.90473  1.0000
  H   H1459     1.0  0.01801  0.79717  0.68642  1.0000
  H   H1460     1.0  0.96804  0.58679  0.78023  1.0000
  H   H1461     1.0  0.59195  0.88467  0.82393  1.0000
  H   H1462     1.0  0.73258  0.00463  0.79578  1.0000
  H   H1463     1.0  0.59169  0.53723  0.88325  1.0000
  S   S248      1.0  0.00150  0.88187  0.96685  1.0000
  C   C866      1.0  0.74679  0.69540  0.87695  1.0000
  C   C867      1.0  0.56422  0.83382  0.79845  1.0000
  H   H1464     1.0  0.56311  0.01610  0.96160  1.0000
  C   C868      1.0  0.76296  0.78662  0.88383  1.0000
  S   S249      1.0  0.54827  0.75376  0.92299  1.0000
  C   C869      1.0  0.56130  0.74671  0.77380  1.0000
  S   S250      1.0  0.58727  0.71990  0.84679  1.0000
  C   C870      1.0  0.71953  0.72543  0.89446  1.0000
  C   C871      1.0  0.99942  0.75002  0.91269  1.0000
  C   C872      1.0  0.99898  0.57732  0.78940  1.0000
  H   H1465     1.0  0.71252  0.82840  0.83009  1.0000
  C   C873      1.0  0.68391  0.94540  0.66314  1.0000
  N   N62       1.0  0.52836  0.82044  0.77858  1.0000
  H   H1466     1.0  0.78025  0.70430  0.87799  1.0000
  H   H1467     1.0  0.67136  0.73618  0.70417  1.0000
  S   S251      1.0  0.80248  0.55194  0.86178  1.0000
  H   H1468     1.0  0.80413  0.59469  0.92664  1.0000
  C   C874      1.0  0.02300  0.61893  0.79497  1.0000
  C   C875      1.0  0.53826  0.83001  0.74788  1.0000
  N   N63       1.0  0.71847  0.77088  0.88476  1.0000
  H   H1469     1.0  0.65860  0.81230  0.82838  1.0000
  H   H1470     1.0  0.55927  0.53385  0.66731  1.0000
  S   S252      1.0  0.53584  0.74022  0.67315  1.0000
  H   H1471     1.0  0.56975  0.81816  0.74279  1.0000
  H   H1472     1.0  0.63398  0.80463  0.92504  1.0000
  H   H1473     1.0  0.83467  0.53585  0.67632  1.0000
  Fe  Fe120     1.0  0.00233  0.75263  0.79107  1.0000
  H   H1474     1.0  0.73073  0.72312  0.91722  1.0000
  C   C876      1.0  0.94495  0.54376  0.85869  1.0000
  H   H1475     1.0  0.54441  0.87928  0.71599  1.0000
  H   H1476     1.0  0.80205  0.55661  0.70309  1.0000
  Fe  Fe121     1.0  0.01016  0.82061  0.74611  1.0000
  C   C877      1.0  0.83504  0.01150  0.86004  1.0000
  H   H1477     1.0  0.56238  0.89494  0.75055  1.0000
  Fe  Fe122     1.0  0.53801  0.74462  0.87585  1.0000
  Fe  Fe123     1.0  0.55145  0.80790  0.66570  1.0000
  H   H1478     1.0  0.71010  0.79170  0.92834  1.0000
  H   H1479     1.0  0.66909  0.75240  0.85444  1.0000
  H   H1480     1.0  0.54636  0.57789  0.90961  1.0000
  C   C878      1.0  0.64849  0.78305  0.90948  1.0000
  S   S253      1.0  0.54667  0.87346  0.94007  1.0000
  H   H1481     1.0  0.69519  0.82958  0.90273  1.0000
  S   S254      1.0  0.01653  0.82210  0.79414  1.0000
  H   H1482     1.0  0.77294  0.99243  0.87021  1.0000
  C   C879      1.0  0.90415  0.96324  0.97146  1.0000
  H   H1483     1.0  0.94623  0.55958  0.87990  1.0000
  H   H1484     1.0  0.78709  0.98441  0.83414  1.0000
  C   C880      1.0  0.76996  0.83470  0.88527  1.0000
  H   H1485     1.0  0.79750  0.58681  0.96418  1.0000
  H   H1486     1.0  0.74450  0.66320  0.88615  1.0000
  H   H1487     1.0  0.77819  0.77531  0.86411  1.0000
  Fe  Fe124     1.0  0.79905  0.54143  0.81446  1.0000
  H   H1488     1.0  0.68773  0.71127  0.89378  1.0000
  H   H1489     1.0  0.95363  0.02763  0.77861  1.0000
  H   H1490     1.0  0.73029  0.57341  0.98664  1.0000
  C   C881      1.0  0.66749  0.72959  0.68089  1.0000
  C   C882      1.0  0.81010  0.57244  0.94462  1.0000
  C   C883      1.0  0.56215  0.87810  0.81206  1.0000
  H   H1491     1.0  0.63076  0.78645  0.88890  1.0000
  H   H1492     1.0  0.72880  0.56204  0.74688  1.0000
  H   H1493     1.0  0.96050  0.85610  0.86970  1.0000
  H   H1494     1.0  0.59452  0.83181  0.78745  1.0000
  H   H1495     1.0  0.75813  0.53647  0.92809  1.0000
  Fe  Fe125     1.0  0.73992  0.02034  0.93992  1.0000
  C   C884      1.0  0.69476  0.79521  0.90676  1.0000
  H   H1496     1.0  0.54826  0.55509  0.82423  1.0000
  H   H1497     1.0  0.99197  0.74312  0.88997  1.0000
  H   H1498     1.0  0.55513  0.71336  0.77956  1.0000
  H   H1499     1.0  0.84529  0.98170  0.87045  1.0000
  H   H1500     1.0  0.00003  0.72161  0.68276  1.0000
  H   H1501     1.0  0.01947  0.63943  0.77575  1.0000
  H   H1502     1.0  0.59002  0.75647  0.78577  1.0000
  H   H1503     1.0  0.76428  0.84707  0.90707  1.0000
  C   C885      1.0  0.96036  0.91262  0.98025  1.0000
  C   C886      1.0  0.69776  0.77215  0.85538  1.0000
  H   H1504     1.0  0.84445  0.56946  0.94722  1.0000
  H   H1505     1.0  0.71891  0.96914  0.82449  1.0000
  H   H1506     1.0  0.71788  0.75700  0.83936  1.0000
  C   C887      1.0  0.99663  0.74247  0.66377  1.0000
  C   C888      1.0  0.69499  0.76080  0.66432  1.0000
  H   H1507     1.0  0.67749  0.83916  0.85885  1.0000
  H   H1508     1.0  0.75082  0.85229  0.86937  1.0000
  N   N64       1.0  0.99393  0.54865  0.81496  1.0000
  H   H1509     1.0  0.78187  0.77351  0.90213  1.0000
  Fe  Fe126     1.0  0.73592  0.52994  0.86090  1.0000
  Fe  Fe127     1.0  0.80762  0.02947  0.98617  1.0000
  H   H1510     1.0  0.94394  0.59031  0.82573  1.0000
  Fe  Fe128     1.0  0.74250  0.02851  0.68856  1.0000
  H   H1511     1.0  0.60261  0.55866  0.83321  1.0000
  S   S255      1.0  0.74147  0.01247  0.73522  1.0000
  C   C889      1.0  0.01842  0.82082  0.87280  1.0000
  H   H1512     1.0  0.63389  0.73360  0.67553  1.0000
  H   H1513     1.0  0.67666  0.69636  0.67761  1.0000
  H   H1514     1.0  0.98806  0.59421  0.84919  1.0000
  H   H1515     1.0  0.01065  0.63684  0.81324  1.0000
  H   H1516     1.0  0.61398  0.53374  0.66275  1.0000
  C   C890      1.0  0.71317  0.00055  0.81478  1.0000
  H   H1517     1.0  0.56771  0.81186  0.81698  1.0000
  H   H1518     1.0  0.80314  0.84171  0.88084  1.0000
  H   H1519     1.0  0.55432  0.80006  0.97980  1.0000
  H   H1520     1.0  0.97700  0.84207  0.65795  1.0000
  C   C891      1.0  0.68655  0.81569  0.84280  1.0000
  H   H1521     1.0  0.85395  0.01479  0.84060  1.0000
  H   H1522     1.0  0.56678  0.74742  0.75044  1.0000
  H   H1523     1.0  0.99900  0.88072  0.89237  1.0000
  H   H1524     1.0  0.53704  0.87990  0.82789  1.0000
  H   H1525     1.0  0.73070  0.54872  0.70960  1.0000
  C   C892      1.0  0.78838  0.00773  0.85189  1.0000
  S   S256      1.0  0.74043  0.00911  0.98716  1.0000
  H   H1526     1.0  0.55758  0.90351  0.79616  1.0000
  H   H1527     1.0  0.71149  0.53733  0.95952  1.0000
  H   H1528     1.0  0.68501  0.79272  0.67088  1.0000
  C   C893      1.0  0.53767  0.87675  0.73912  1.0000
  C   C894      1.0  0.72645  0.53559  0.73134  1.0000
  H   H1529     1.0  0.90935  0.02103  0.68178  1.0000
  H   H1530     1.0  0.02292  0.80492  0.93435  1.0000
  C   C895      1.0  0.72530  0.53963  0.98135  1.0000
  H   H1531     1.0  0.91123  0.54170  0.85271  1.0000
  H   H1532     1.0  0.94755  0.01941  0.73169  1.0000
  H   H1533     1.0  0.72750  0.75728  0.67305  1.0000
  H   H1534     1.0  0.90892  0.53332  0.80205  1.0000
  H   H1535     1.0  0.01498  0.56062  0.77182  1.0000
  H   H1536     1.0  0.70478  0.02621  0.85673  1.0000
  C   C896      1.0  0.56676  0.52990  0.86686  1.0000
