data_image0
_chemical_formula_structural       H6SFeHNHNHC2H13C2H3CFeCFeC2FeH2SC2SCHFeHFeC3H4CHCH2SC4SCHCH2CH2CH4C2SH2CHSHSCH3SC3HNH2CHSHCHSH2S2HCH4C2H2C3HNH2CFeH5FeSFeSHFeSFeS2FeS2HCHCSCFeH2CH3CHSCSH5NHC2H3CFeH2C2SCHC2HC3HC7H4CH7NC8H26CH2CHCHSCHCH3C2SH5CH4SH3C3HC2H2CSC2H2CNH2Fe2C3HCH2CH3CHNH3NCHSH2C2FeHFeSHCSFeS2H2FeSCFeSFeS2HCHC3H2FeSCHCHCHC2H3NC7H4C2H2C2HSHCHNH4CH5NCH9C3HCHS2HCHCH4CHNH4C2HCH4C2H2SHC2HCHSH4C3H2C2HSCH2SHCHSH6FeS2FeSHFeSFeS3C2HSFeHSC2HSC6H2CHC2HCH3C6H5C5H2CSHC2HCH2CH2C2H3NH4CHCHCH5CH3SH2CH3C2HNC3H3NH5C2HNH5CHFeCHC2H4CH4C3H2CFeHCH5CHCH6C2H4CH15CFeHC2H2CH2FeS2FeS2FeHFeHS2FeS2FeS2FeSFeS3CSC3FeSFeS2FeNH3SC2HCH2CHSHC6H4C6H6C7H7CH4C2H5CH4C2H12NH3CH3C4H5CH5C2H2C5HSHCH2CH5CHNHCHCHCHCHCHCH4CH3CH3CHC2NH2NHCHCH7C2HCHCH2CH3CH2CHSHCHFeH3Fe2C2SHCH2FeSHSCSHFeS2FeHSFeS2FeSFeS3HSHSFeS2FeS2C6H3C4HCH3C3H2C6H4NHCH10CH4CHC2H6C3H8CH4CH5CHSCHCHN2C8H20CHS2HC3HC2HC2SHSCHFeH2CFeNCH3SHCHC2HCHCHC2H3CNHC4HCH2CHCH2CH5CH2SNHC4HCHFeHCH3C2SH3FeHCH4C3H4C3H3CH2C2H3NH2CH3CFeCSH4S2FeSC2SHFeS2H2S2HFeSFeSNH2SFeSHFeS2FeSFeS3C6SH3C6H8C6H9CSH2C8H5FeCHC8H3NC4HCH6SCFeH2CH3NC8H20C2FeCH3CH3C2NCHC3SC2HCH2FeH4CH9CHCH3FeHSH3SCH3SH3NC8H9CH10CHCHC2H6CH2CFeHSFeHSHCH2S2HFeS3FeS3CHCH2C6H4C2HCH4NHCFeNC3H2CHCH11CH3CHCH3CHCH2CSCHCHCHCFeCH2FeCH2CHSCH3CH3CH8CH2CHCHCHSCHC3H3CHCH2SHSHNCH5CHSH2SC2FeS2FeS2FeS2FeSFeS3C6H4C6SH2C6H4SH5CHNC2H2FeHCHC3H2CH3CH6NHCH3CHNC8H19FeH2C2H2CHCH4C3HS2FeH4CH2CHC2H2C3H2SH4CH7C2HFeS2FeS2Fe2S3CSFeS2HSHFeS2HCH2SHSHSCH4SHC6H4C6H4C6H2C6H4CSHCHCHC8H7CN2C5H3SH3CH3CNCFeH7CH8NCH7CH4C3H2CH2FeCH4C2H9CHCH2CH5CH2CH2SCHNC2H2CSH2CH3CHCH8CH2CH2SH2CHC3HNFeSCH9SFe2NH2C2HSHCH5SHC3H3FeHSHCFeC2HCHFeHC2H4CHCHCH2CH2CFeS2CFeSFeCS2HSFeS2FeHFeS3H2C7HCH5C2H2C8H4C2HC2HCH2NH2CH4CH2CHS2NC8H26CH2CHCH10FeCHCHSCHC2H3NH3C2H3CH3C2HC2SH5C3SCH3CH4FeCH3CHCH5CH4NFeHS2C2HFeC2SCH3CSHCSH2S4FeHFeHCHSFeCH2CH3C2HSFeHSFe2SHFeH2CFeS2H3SCS2HCHC2H2CHC5HSH2C2HC2H3CH3CHCNHCH2CHCSCHCHSHSC2H2C2H2CH2CHCH4CH2NHC2H4CNH3C2NCH3CH5CHC2H2CH5C2HC2H4CH2CH2FeC4H3NHCH2CH9FeC2FeS2H4S2NH3FeCHFeS2FeSHFeSFeS3Fe2S2FeCS2CH2CHCHCHCHCHCHCHC3HC3SCH2C7H4CHCHCH2C2H5CH2CH2NH3CH2C3HCHCSNHCHSH2CHCH2CHSC3H7CHCHCSCHNCHCHCH13CH7CH3CH4CHCH2CH6CH2CHCNH2C3S2FeS2CHFeHS2H2CFeS3FeS2FeS2FeSFeS3HS2C2HC6H6CHSH3C6H5CNHC3H7C3H2C6H6C2NC8H21CH4CH5CHCHCH4CSH4CHCH2CFeH2CH2CH2CH4FeHCNC5HC4H10CH6SH3C2HC2SH4C2HCFeHFe2HC3NH4NCHC2HCH8CHNHCH2SHCH5CH2CHC2H3SH5Fe2CFeSHCSHFeS2HFeS2FeS2FeSFeHS3CFeH4C6HCH5C6H4FeHC6H6CH2FeH7CH3CH3C2HC3H2CH2CHC2H7SH2NHCH2CH3C2HSCH2CH2CH2SHCH3NH3SCHCHC2HN2CH2C5H4CH2CNC7H11CH3SHCH9CHCH4C3FeS3FeSFeS3H2CHCFeHFeHSFeH2S2CH3CHSH3C2H3CHFeHC6H4C3H2C6H5CH2C2H3C2HCHCHCHCH2SH3CH2CHCH4CH3CH5CHC2H6CH3CNCHC2H2FeH2CHC2HNH8NH2C2H2CHCHS2HCH3N2HCH2C2H3FeHC6HCSNH3CH2C2H3SH3NSH2CH4FeS2HC2FeHSHSCHS2NFeSC2SCH3CH2CFeHC6H4C3H5C3HCSH3CH3CH2CH2CHCH7CHCH3FeC3H3CH4SH2CH4CNSH5CH2CHC3HNC4H4C2HCHSH2FeH4CHFeSC4SHC2HC2H3C4HCH11CH2FeH2FeS2FeS2FeSFeS3HCSCHCHCH2CHCHSH3FeS3CH3C2H3C6H3CHC6H4C3H2CH4CH2CH3NH9C2H4SCH13CH3CH2C2HC2H5CHC2NCH4CHCSHNH5CHCHCH2CNCHSH2CHCH3C4H2CH2CH5NC6H13NC6HCHCSHCH2CH8CH4C3HSH2C5FeH2C2H2CSH2FeH3SHC6H4C2H2SHSCH2CNH6SCH2CHCH7CH9NC8H10CH5CHCH2CHCHCSCH3CSCFeHFeSHFeS2FeSFeSHSH2FeSNCHC6H4CH2C6H2CHFeSHCH2SH2CSH8CHFeH2NCHCHCHCHNCHC2H2C3H2CHC2HSH2C3HCHSH4C2SCH4CH8SH3C2HSH8C2H4C2H5SC2HSH4FeS2FeS2FeS2FeSFeS3CHCSHC6H3CHC7H6C3H3SH5FeHCHC3H3CH3C2HC2H2CSH2CSHCHCHNC3HCH6SH14C2NC7H15CH2SHC2H2FeCSCHCHSCHSHC3H5SFeSHFeSFeSFeS3H2SHS2FeS2FeS2FeS3FeS3HSCH3C6H4C8H7FeHC3H4C6H5SH3C6H3CNC8H20NC8H8CH11CHCH4CHN2C8H20CHC2H2Fe2C2HCH2CH2SNFeH5CHC2HCH2C2H2CHCSH4NH5SCH2CHSCH4C2H3CH3CHCHCH2C2H3FeSHFeSHFeS2FeS2FeSNFe2S3CHC4H2CHNC2HC6H4CH4SHC2HC6H7CH3C3H3CNCHCHC3HNC8H20NCHC3H5CHCH4CHCH3CHCH6SC3H7NCHC3H3CH3C3H2SH3CNH4CH3C2H3C2H2C2H3C2H2CH5CSH2CH4CHCFeS2FeSCFeSFeS3FeSHFeS2Fe2S3CFeS2Fe2SFeS2FeSHSHC4NH4C6H4C2H2C6H4C2SCHSHC7H4NC7FeH9CH15CHSH2CH3CHC2H4CHCH2CHNC6H18C3HNC8H20CH6CH2SH5CH
_chemical_formula_sum              "H2688 S448 Fe224 N112 C1568"
_cell_length_a       46.963
_cell_length_b       47.7985
_cell_length_c       86.6746
_cell_angle_alpha    86.147
_cell_angle_beta     85.8429
_cell_angle_gamma    114.621

_space_group_name_H-M_alt    "P 1"
_space_group_IT_number       1

loop_
  _space_group_symop_operation_xyz
  'x, y, z'

loop_
  _atom_site_type_symbol
  _atom_site_label
  _atom_site_symmetry_multiplicity
  _atom_site_fract_x
  _atom_site_fract_y
  _atom_site_fract_z
  _atom_site_occupancy
  H   H1        1.0  0.35359  0.31242  0.10465  1.0000
  H   H2        1.0  0.38942  0.10144  0.11972  1.0000
  H   H3        1.0  0.01887  0.32112  0.06975  1.0000
  H   H4        1.0  0.34685  0.32227  0.17867  1.0000
  H   H5        1.0  0.40545  0.02543  0.06918  1.0000
  H   H6        1.0  0.37103  0.06976  0.05256  1.0000
  S   S1        1.0  0.47287  0.29351  0.03297  1.0000
  Fe  Fe1       1.0  0.42759  0.25434  0.02879  1.0000
  H   H7        1.0  0.32385  0.23193  0.18980  1.0000
  N   N1        1.0  0.45880  0.01714  0.21203  1.0000
  H   H8        1.0  0.29568  0.30907  0.05735  1.0000
  N   N2        1.0  0.37434  0.03804  0.08424  1.0000
  H   H9        1.0  0.28652  0.33356  0.22568  1.0000
  C   C1        1.0  0.33033  0.26490  0.21946  1.0000
  C   C2        1.0  0.39208  0.07636  0.05901  1.0000
  H   H10       1.0  0.48140  0.31428  0.99810  1.0000
  H   H11       1.0  0.40721  0.31827  0.17085  1.0000
  H   H12       1.0  0.41528  0.28943  0.18210  1.0000
  H   H13       1.0  0.46307  0.05085  0.22818  1.0000
  H   H14       1.0  0.46723  0.00462  0.23518  1.0000
  H   H15       1.0  0.34888  0.28355  0.22480  1.0000
  H   H16       1.0  0.43086  0.32852  0.18648  1.0000
  H   H17       1.0  0.38857  0.05626  0.10615  1.0000
  H   H18       1.0  0.42005  0.21154  0.99934  1.0000
  H   H19       1.0  0.45999  0.17698  0.07608  1.0000
  H   H20       1.0  0.36562  0.01581  0.10781  1.0000
  H   H21       1.0  0.30842  0.25728  0.22758  1.0000
  H   H22       1.0  0.31667  0.02410  0.10463  1.0000
  C   C3        1.0  0.33643  0.29514  0.09809  1.0000
  C   C4        1.0  0.40478  0.11764  0.11015  1.0000
  H   H23       1.0  0.46197  0.06739  0.19328  1.0000
  H   H24       1.0  0.30713  0.29212  0.07986  1.0000
  H   H25       1.0  0.42592  0.03479  0.22089  1.0000
  C   C5        1.0  0.30833  0.28291  0.17202  1.0000
  Fe  Fe2       1.0  0.45288  0.28562  0.05810  1.0000
  C   C6        1.0  0.41259  0.15436  0.08745  1.0000
  Fe  Fe3       1.0  0.42695  0.21562  0.05856  1.0000
  C   C7        1.0  0.33885  0.04284  0.10736  1.0000
  C   C8        1.0  0.39279  0.13294  0.09981  1.0000
  Fe  Fe4       1.0  0.39120  0.03299  0.17036  1.0000
  H   H26       1.0  0.32736  0.02472  0.07721  1.0000
  H   H27       1.0  0.33714  0.04210  0.12024  1.0000
  S   S2        1.0  0.40410  0.26199  0.00781  1.0000
  C   C9        1.0  0.36827  0.03804  0.10160  1.0000
  C   C10       1.0  0.43327  0.05124  0.08600  1.0000
  S   S3        1.0  0.37313  0.04621  0.14887  1.0000
  C   C11       1.0  0.32491  0.27709  0.20350  1.0000
  H   H28       1.0  0.35921  0.22431  0.16964  1.0000
  Fe  Fe5       1.0  0.42193  0.06078  0.13695  1.0000
  H   H29       1.0  0.33868  0.28453  0.05971  1.0000
  Fe  Fe6       1.0  0.42746  0.00382  0.15194  1.0000
  C   C12       1.0  0.34459  0.01461  0.07883  1.0000
  C   C13       1.0  0.03768  0.32139  0.09151  1.0000
  C   C14       1.0  0.34234  0.29822  0.17639  1.0000
  H   H30       1.0  0.30763  0.29255  0.16010  1.0000
  H   H31       1.0  0.24313  0.32234  0.99005  1.0000
  H   H32       1.0  0.47822  0.21997  0.99771  1.0000
  H   H33       1.0  0.33627  0.24485  0.21871  1.0000
  C   C15       1.0  0.38116  0.30270  0.19458  1.0000
  H   H34       1.0  0.35834  0.30114  0.16578  1.0000
  C   C16       1.0  0.34813  0.25061  0.18682  1.0000
  H   H35       1.0  0.99493  0.32365  0.08576  1.0000
  H   H36       1.0  0.02761  0.29573  0.09218  1.0000
  S   S4        1.0  0.41204  0.01407  0.12918  1.0000
  C   C17       1.0  0.40110  0.02862  0.08152  1.0000
  C   C18       1.0  0.40136  0.24295  0.99072  1.0000
  C   C19       1.0  0.40781  0.30049  0.11207  1.0000
  C   C20       1.0  0.41130  0.21928  0.98949  1.0000
  S   S5        1.0  0.39617  0.17133  0.07404  1.0000
  C   C21       1.0  0.45162  0.04306  0.21748  1.0000
  H   H37       1.0  0.40715  0.10152  0.05598  1.0000
  C   C22       1.0  0.36049  0.30333  0.06290  1.0000
  H   H38       1.0  0.32269  0.29899  0.20504  1.0000
  H   H39       1.0  0.36808  0.12820  0.10138  1.0000
  C   C23       1.0  0.44456  0.16059  0.08558  1.0000
  H   H40       1.0  0.40679  0.06482  0.05486  1.0000
  H   H41       1.0  0.30112  0.26040  0.20114  1.0000
  C   C24       1.0  0.35818  0.24708  0.16992  1.0000
  H   H42       1.0  0.36203  0.07616  0.07858  1.0000
  H   H43       1.0  0.37951  0.29807  0.04005  1.0000
  H   H44       1.0  0.37670  0.07039  0.22342  1.0000
  H   H45       1.0  0.34082  0.24726  0.16194  1.0000
  C   C25       1.0  0.36779  0.02889  0.21238  1.0000
  C   C26       1.0  0.38240  0.07015  0.07670  1.0000
  S   S6        1.0  0.44479  0.21757  0.03346  1.0000
  H   H46       1.0  0.36289  0.24404  0.19449  1.0000
  H   H47       1.0  0.03449  0.32696  0.10356  1.0000
  C   C27       1.0  0.31682  0.32661  0.05010  1.0000
  H   H48       1.0  0.38647  0.29261  0.20532  1.0000
  S   S7        1.0  0.45231  0.10302  0.12001  1.0000
  H   H49       1.0  0.44189  0.07451  0.07944  1.0000
  S   S8        1.0  0.40599  0.24960  0.05348  1.0000
  C   C28       1.0  0.36814  0.04548  0.22523  1.0000
  H   H50       1.0  0.38166  0.26497  0.16510  1.0000
  H   H51       1.0  0.34036  0.06571  0.10286  1.0000
  H   H52       1.0  0.39109  0.27892  0.11844  1.0000
  S   S9        1.0  0.44111  0.05166  0.15882  1.0000
  C   C29       1.0  0.43658  0.12322  0.10801  1.0000
  C   C30       1.0  0.44465  0.32785  0.08917  1.0000
  C   C31       1.0  0.32770  0.31066  0.08414  1.0000
  H   H53       1.0  0.41810  0.27836  0.09280  1.0000
  N   N3        1.0  0.34936  0.28178  0.19004  1.0000
  H   H54       1.0  0.40105  0.08811  0.08236  1.0000
  H   H55       1.0  0.43281  0.05343  0.09863  1.0000
  C   C32       1.0  0.42315  0.30009  0.09756  1.0000
  H   H56       1.0  0.44492  0.01912  0.18877  1.0000
  S   S10       1.0  0.47258  0.25155  0.06471  1.0000
  H   H57       1.0  0.45101  0.04213  0.08310  1.0000
  C   C33       1.0  0.45645  0.14498  0.09579  1.0000
  H   H58       1.0  0.29219  0.28840  0.18000  1.0000
  S   S11       1.0  0.38373  0.04980  0.19374  1.0000
  H   H59       1.0  0.29946  0.25746  0.17222  1.0000
  H   H60       1.0  0.38131  0.32523  0.19736  1.0000
  S   S12       1.0  0.46217  0.32884  0.07026  1.0000
  S   S13       1.0  0.39216  0.32792  0.13607  1.0000
  H   H61       1.0  0.34559  0.27827  0.09467  1.0000
  C   C34       1.0  0.40986  0.30984  0.18263  1.0000
  H   H62       1.0  0.36975  0.29083  0.07097  1.0000
  H   H63       1.0  0.36103  0.01735  0.05384  1.0000
  H   H64       1.0  0.48111  0.14957  0.09412  1.0000
  H   H65       1.0  0.31494  0.28215  0.10640  1.0000
  C   C35       1.0  0.41349  0.32857  0.11823  1.0000
  C   C36       1.0  0.43798  0.00291  0.19958  1.0000
  H   H66       1.0  0.06307  0.33020  0.08736  1.0000
  H   H67       1.0  0.44505  0.08269  0.20751  1.0000
  C   C37       1.0  0.46188  0.07207  0.20561  1.0000
  C   C38       1.0  0.38529  0.31577  0.04843  1.0000
  C   C39       1.0  0.01976  0.33302  0.08038  1.0000
  H   H68       1.0  0.01019  0.31010  0.22777  1.0000
  N   N4        1.0  0.35357  0.32717  0.07097  1.0000
  H   H69       1.0  0.32575  0.31525  0.04146  1.0000
  H   H70       1.0  0.31837  0.32662  0.08889  1.0000
  C   C40       1.0  0.00846  0.33018  0.23200  1.0000
  Fe  Fe7       1.0  0.48887  0.25664  0.03917  1.0000
  H   H71       1.0  0.40922  0.32092  0.05177  1.0000
  H   H72       1.0  0.39489  0.00552  0.08802  1.0000
  H   H73       1.0  0.48514  0.09006  0.20768  1.0000
  H   H74       1.0  0.47348  0.26702  0.99050  1.0000
  H   H75       1.0  0.35503  0.11664  0.98997  1.0000
  Fe  Fe8       1.0  0.30353  0.30756  0.32659  1.0000
  S   S14       1.0  0.26095  0.26202  0.33224  1.0000
  Fe  Fe9       1.0  0.30814  0.29845  0.29161  1.0000
  S   S15       1.0  0.26626  0.25199  0.29496  1.0000
  H   H76       1.0  0.40991  0.26603  0.47534  1.0000
  Fe  Fe10      1.0  0.24287  0.27441  0.31059  1.0000
  S   S16       1.0  0.18922  0.25768  0.31039  1.0000
  Fe  Fe11      1.0  0.28623  0.24186  0.31637  1.0000
  S   S17       1.0  0.28479  0.19506  0.32597  1.0000
  S   S18       1.0  0.32995  0.28679  0.31210  1.0000
  Fe  Fe12      1.0  0.30484  0.03811  0.30224  1.0000
  S   S19       1.0  0.35249  0.03943  0.29477  1.0000
  S   S20       1.0  0.29956  0.08291  0.29517  1.0000
  H   H77       1.0  0.06765  0.32919  0.23960  1.0000
  C   C41       1.0  0.39980  0.00223  0.43730  1.0000
  H   H78       1.0  0.36138  0.02727  0.45462  1.0000
  C   C42       1.0  0.15496  0.32406  0.31158  1.0000
  S   S21       1.0  0.34354  0.32164  0.26980  1.0000
  C   C43       1.0  0.44920  0.01702  0.36146  1.0000
  Fe  Fe13      1.0  0.04373  0.31247  0.31340  1.0000
  H   H79       1.0  0.40925  0.32546  0.42659  1.0000
  H   H80       1.0  0.42961  0.25202  0.43962  1.0000
  C   C44       1.0  0.41706  0.14169  0.32346  1.0000
  H   H81       1.0  0.34527  0.08928  0.34936  1.0000
  H   H82       1.0  0.47362  0.17311  0.44920  1.0000
  H   H83       1.0  0.47802  0.29435  0.45877  1.0000
  C   C45       1.0  0.45633  0.03840  0.47758  1.0000
  H   H84       1.0  0.44187  0.02654  0.44789  1.0000
  S   S22       1.0  0.44779  0.10678  0.46125  1.0000
  C   C46       1.0  0.48755  0.16276  0.44355  1.0000
  S   S23       1.0  0.28372  0.32164  0.30580  1.0000
  H   H85       1.0  0.45617  0.13333  0.31311  1.0000
  H   H86       1.0  0.38156  0.14083  0.28093  1.0000
  H   H87       1.0  0.47423  0.02402  0.36172  1.0000
  H   H88       1.0  0.31531  0.32767  0.44971  1.0000
  H   H89       1.0  0.29955  0.31888  0.46968  1.0000
  N   N5        1.0  0.41506  0.28362  0.45115  1.0000
  H   H90       1.0  0.36561  0.03599  0.47450  1.0000
  C   C47       1.0  0.40526  0.01534  0.34702  1.0000
  C   C48       1.0  0.42012  0.02611  0.47836  1.0000
  H   H91       1.0  0.31312  0.29796  0.36911  1.0000
  H   H92       1.0  0.06252  0.29265  0.26287  1.0000
  H   H93       1.0  0.44674  0.10912  0.41380  1.0000
  C   C49       1.0  0.45745  0.27598  0.46602  1.0000
  Fe  Fe14      1.0  0.34641  0.01076  0.31766  1.0000
  H   H94       1.0  0.36802  0.26923  0.46290  1.0000
  H   H95       1.0  0.36565  0.31980  0.46032  1.0000
  C   C50       1.0  0.43779  0.02470  0.34788  1.0000
  C   C51       1.0  0.29657  0.32817  0.45812  1.0000
  S   S24       1.0  0.39251  0.02613  0.32951  1.0000
  C   C52       1.0  0.36087  0.08395  0.34099  1.0000
  H   H96       1.0  0.35915  0.04340  0.25024  1.0000
  C   C53       1.0  0.16415  0.27748  0.31084  1.0000
  C   C54       1.0  0.17579  0.30955  0.31121  1.0000
  H   H97       1.0  0.48761  0.19717  0.47598  1.0000
  C   C55       1.0  0.12219  0.30685  0.31163  1.0000
  C   C56       1.0  0.11056  0.27480  0.31119  1.0000
  C   C57       1.0  0.13140  0.26029  0.31078  1.0000
  H   H98       1.0  0.48289  0.15668  0.40288  1.0000
  C   C58       1.0  0.41631  0.02038  0.45062  1.0000
  C   C59       1.0  0.28721  0.16346  0.31704  1.0000
  C   C60       1.0  0.28353  0.13682  0.32655  1.0000
  C   C61       1.0  0.28625  0.11153  0.32011  1.0000
  C   C62       1.0  0.29274  0.11257  0.30401  1.0000
  C   C63       1.0  0.29572  0.13894  0.29449  1.0000
  C   C64       1.0  0.29299  0.16422  0.30093  1.0000
  H   H99       1.0  0.27882  0.13585  0.33903  1.0000
  H   H100      1.0  0.28355  0.09136  0.32761  1.0000
  H   H101      1.0  0.30073  0.14007  0.28202  1.0000
  H   H102      1.0  0.29580  0.18444  0.29343  1.0000
  C   C65       1.0  0.42822  0.28303  0.46644  1.0000
  H   H103      1.0  0.41536  0.04689  0.47670  1.0000
  H   H104      1.0  0.39882  0.22017  0.46464  1.0000
  H   H105      1.0  0.35488  0.14298  0.30504  1.0000
  H   H106      1.0  0.36374  0.22280  0.45891  1.0000
  H   H107      1.0  0.08551  0.26117  0.31115  1.0000
  H   H108      1.0  0.47438  0.08971  0.35487  1.0000
  H   H109      1.0  0.43976  0.07529  0.42584  1.0000
  N   N6        1.0  0.18139  0.15593  0.32450  1.0000
  C   C66       1.0  0.19592  0.14925  0.33851  1.0000
  C   C67       1.0  0.16254  0.12525  0.31864  1.0000
  C   C68       1.0  0.16007  0.17078  0.32979  1.0000
  C   C69       1.0  0.20780  0.17764  0.31262  1.0000
  C   C70       1.0  0.21062  0.17612  0.34855  1.0000
  C   C71       1.0  0.18184  0.10794  0.31270  1.0000
  C   C72       1.0  0.13509  0.17073  0.31917  1.0000
  C   C73       1.0  0.19941  0.18382  0.29621  1.0000
  H   H110      1.0  0.17814  0.12945  0.34651  1.0000
  H   H111      1.0  0.21505  0.14220  0.33496  1.0000
  H   H112      1.0  0.14901  0.12742  0.30906  1.0000
  H   H113      1.0  0.14415  0.10949  0.32798  1.0000
  H   H114      1.0  0.14658  0.15907  0.34127  1.0000
  H   H115      1.0  0.17425  0.19545  0.33163  1.0000
  H   H116      1.0  0.21953  0.20069  0.31692  1.0000
  H   H117      1.0  0.22712  0.16999  0.31112  1.0000
  H   H118      1.0  0.22297  0.16924  0.35749  1.0000
  H   H119      1.0  0.22845  0.19714  0.34161  1.0000
  H   H120      1.0  0.19256  0.18175  0.35484  1.0000
  H   H121      1.0  0.19294  0.10073  0.32212  1.0000
  H   H122      1.0  0.16579  0.08642  0.30813  1.0000
  H   H123      1.0  0.20014  0.12184  0.30300  1.0000
  H   H124      1.0  0.12314  0.18443  0.32411  1.0000
  H   H125      1.0  0.11646  0.14707  0.31877  1.0000
  H   H126      1.0  0.14530  0.18196  0.30729  1.0000
  H   H127      1.0  0.19586  0.20541  0.29520  1.0000
  H   H128      1.0  0.17870  0.16485  0.29259  1.0000
  H   H129      1.0  0.21927  0.18689  0.28746  1.0000
  H   H130      1.0  0.46414  0.27550  0.47803  1.0000
  H   H131      1.0  0.33800  0.09360  0.32197  1.0000
  H   H132      1.0  0.37336  0.10580  0.29238  1.0000
  H   H133      1.0  0.41124  0.01623  0.42599  1.0000
  H   H134      1.0  0.43519  0.30569  0.47124  1.0000
  H   H135      1.0  0.27302  0.31226  0.45530  1.0000
  C   C74       1.0  0.08183  0.30907  0.26883  1.0000
  H   H136      1.0  0.44901  0.33168  0.44585  1.0000
  H   H137      1.0  0.39464  0.17080  0.30312  1.0000
  C   C75       1.0  0.31074  0.32789  0.24508  1.0000
  H   H138      1.0  0.41309  0.13718  0.28968  1.0000
  C   C76       1.0  0.38503  0.28766  0.45405  1.0000
  H   H139      1.0  0.45567  0.13859  0.38915  1.0000
  S   S25       1.0  0.36457  0.09686  0.47957  1.0000
  C   C77       1.0  0.32852  0.32008  0.37259  1.0000
  H   H140      1.0  0.32719  0.30178  0.39628  1.0000
  C   C78       1.0  0.47067  0.08096  0.40496  1.0000
  H   H141      1.0  0.44215  0.06029  0.37956  1.0000
  H   H142      1.0  0.10449  0.31113  0.26315  1.0000
  H   H143      1.0  0.45295  0.25312  0.46205  1.0000
  C   C79       1.0  0.44274  0.08476  0.41349  1.0000
  C   C80       1.0  0.38406  0.18409  0.33109  1.0000
  S   S26       1.0  0.01253  0.29033  0.29499  1.0000
  H   H144      1.0  0.41018  0.19485  0.32963  1.0000
  H   H145      1.0  0.37623  0.19237  0.34155  1.0000
  H   H146      1.0  0.42062  0.14249  0.33603  1.0000
  H   H147      1.0  0.38216  0.20358  0.44785  1.0000
  H   H148      1.0  0.33042  0.00605  0.46974  1.0000
  C   C81       1.0  0.38694  0.22373  0.45460  1.0000
  H   H149      1.0  0.45434  0.03767  0.33786  1.0000
  H   H150      1.0  0.38440  0.09096  0.34511  1.0000
  H   H151      1.0  0.12202  0.23553  0.31043  1.0000
  H   H152      1.0  0.46423  0.01975  0.47955  1.0000
  S   S27       1.0  0.29973  0.01150  0.32565  1.0000
  H   H153      1.0  0.37029  0.08584  0.31636  1.0000
  H   H154      1.0  0.37389  0.14203  0.34532  1.0000
  H   H155      1.0  0.41980  0.29728  0.41779  1.0000
  C   C82       1.0  0.35647  0.01717  0.46692  1.0000
  C   C83       1.0  0.43929  0.30995  0.44014  1.0000
  C   C84       1.0  0.42800  0.31726  0.42472  1.0000
  H   H156      1.0  0.34406  0.13988  0.33339  1.0000
  C   C85       1.0  0.33657  0.32235  0.38804  1.0000
  C   C86       1.0  0.35817  0.03023  0.24045  1.0000
  H   H157      1.0  0.46358  0.05550  0.40553  1.0000
  H   H158      1.0  0.07919  0.29771  0.28080  1.0000
  C   C87       1.0  0.37941  0.14556  0.30559  1.0000
  S   S28       1.0  0.00567  0.28681  0.33325  1.0000
  C   C88       1.0  0.37008  0.14839  0.33330  1.0000
  C   C89       1.0  0.47982  0.13132  0.44735  1.0000
  H   H159      1.0  0.39494  0.25327  0.43355  1.0000
  H   H160      1.0  0.37272  0.28516  0.44336  1.0000
  C   C90       1.0  0.40760  0.25382  0.44397  1.0000
  N   N7        1.0  0.38284  0.13333  0.32153  1.0000
  H   H161      1.0  0.43085  0.10316  0.32729  1.0000
  H   H162      1.0  0.43483  0.09179  0.38422  1.0000
  Fe  Fe15      1.0  0.41632  0.11178  0.48133  1.0000
  Fe  Fe16      1.0  0.99207  0.32713  0.33129  1.0000
  C   C91       1.0  0.00409  0.33147  0.24819  1.0000
  C   C92       1.0  0.45367  0.08594  0.37911  1.0000
  C   C93       1.0  0.38869  0.31843  0.46007  1.0000
  H   H163      1.0  0.43227  0.16540  0.31773  1.0000
  C   C94       1.0  0.43095  0.11957  0.31755  1.0000
  H   H164      1.0  0.28947  0.31702  0.25312  1.0000
  H   H165      1.0  0.41964  0.10635  0.30801  1.0000
  C   C95       1.0  0.38753  0.13109  0.29158  1.0000
  H   H166      1.0  0.46009  0.30524  0.43687  1.0000
  H   H167      1.0  0.35045  0.05839  0.34106  1.0000
  H   H168      1.0  0.42024  0.07130  0.40877  1.0000
  C   C96       1.0  0.36258  0.09893  0.32439  1.0000
  H   H169      1.0  0.37503  0.19245  0.32111  1.0000
  N   N8        1.0  0.40455  0.00385  0.46681  1.0000
  H   H170      1.0  0.41465  0.04299  0.44974  1.0000
  H   H171      1.0  0.39539  0.31985  0.47211  1.0000
  H   H172      1.0  0.20082  0.32317  0.31127  1.0000
  N   N9        1.0  0.48155  0.09579  0.38839  1.0000
  C   C97       1.0  0.33978  0.33251  0.25020  1.0000
  H   H173      1.0  0.47270  0.12499  0.36043  1.0000
  S   S29       1.0  0.09731  0.32683  0.31187  1.0000
  H   H174      1.0  0.46836  0.05267  0.46642  1.0000
  H   H175      1.0  0.00222  0.31239  0.25627  1.0000
  C   C98       1.0  0.46060  0.09937  0.36185  1.0000
  C   C99       1.0  0.48084  0.14985  0.39086  1.0000
  Fe  Fe17      1.0  0.99874  0.33002  0.29524  1.0000
  H   H176      1.0  0.43788  0.09254  0.35679  1.0000
  Fe  Fe18      1.0  0.35561  0.06645  0.50201  1.0000
  S   S30       1.0  0.40748  0.07942  0.50309  1.0000
  H   H177      1.0  0.46423  0.08806  0.72646  1.0000
  C   C100      1.0  0.47130  0.19290  0.71824  1.0000
  S   S31       1.0  0.42136  0.15179  0.49485  1.0000
  Fe  Fe19      1.0  0.40832  0.11816  0.51658  1.0000
  S   S32       1.0  0.43833  0.13680  0.53634  1.0000
  S   S33       1.0  0.35599  0.10329  0.51722  1.0000
  H   H178      1.0  0.37146  0.10484  0.68706  1.0000
  H   H179      1.0  0.47891  0.23403  0.65640  1.0000
  Fe  Fe20      1.0  0.43778  0.06298  0.66016  1.0000
  S   S34       1.0  0.40578  0.08456  0.65321  1.0000
  C   C101      1.0  0.04307  0.31351  0.54846  1.0000
  Fe  Fe21      1.0  0.43266  0.09538  0.62918  1.0000
  S   S35       1.0  0.40352  0.08384  0.60841  1.0000
  Fe  Fe22      1.0  0.44390  0.12913  0.65887  1.0000
  S   S36       1.0  0.43037  0.16153  0.67264  1.0000
  S   S37       1.0  0.46210  0.07023  0.63584  1.0000
  H   H180      1.0  0.39591  0.18356  0.53151  1.0000
  C   C102      1.0  0.26339  0.00550  0.50198  1.0000
  H   H181      1.0  0.99954  0.30895  0.66901  1.0000
  C   C103      1.0  0.38160  0.26408  0.50594  1.0000
  C   C104      1.0  0.35397  0.25213  0.49869  1.0000
  C   C105      1.0  0.39680  0.24811  0.69223  1.0000
  H   H182      1.0  0.32084  0.15207  0.58392  1.0000
  H   H183      1.0  0.47261  0.22900  0.48911  1.0000
  Fe  Fe23      1.0  0.36910  0.13474  0.49477  1.0000
  S   S38       1.0  0.39442  0.29999  0.51365  1.0000
  C   C106      1.0  0.45021  0.25366  0.66826  1.0000
  H   H184      1.0  0.37953  0.04298  0.71196  1.0000
  C   C107      1.0  0.44669  0.17334  0.69009  1.0000
  H   H185      1.0  0.31329  0.11335  0.56762  1.0000
  C   C108      1.0  0.48620  0.18040  0.70794  1.0000
  H   H186      1.0  0.03925  0.33106  0.57838  1.0000
  C   C109      1.0  0.44399  0.19542  0.71446  1.0000
  C   C110      1.0  0.43171  0.18560  0.70047  1.0000
  H   H187      1.0  0.43208  0.25245  0.66039  1.0000
  H   H188      1.0  0.32007  0.10350  0.54828  1.0000
  H   H189      1.0  0.41029  0.18719  0.69775  1.0000
  N   N10       1.0  0.35937  0.17091  0.55087  1.0000
  C   C111      1.0  0.46633  0.27164  0.69396  1.0000
  C   C112      1.0  0.41457  0.09830  0.58835  1.0000
  C   C113      1.0  0.44278  0.12408  0.58305  1.0000
  C   C114      1.0  0.44986  0.13532  0.56710  1.0000
  C   C115      1.0  0.42905  0.12080  0.55622  1.0000
  C   C116      1.0  0.40106  0.09480  0.56148  1.0000
  C   C117      1.0  0.39377  0.08383  0.57745  1.0000
  H   H190      1.0  0.45899  0.13551  0.59128  1.0000
  H   H191      1.0  0.47160  0.15544  0.56319  1.0000
  H   H192      1.0  0.38492  0.08321  0.55326  1.0000
  H   H193      1.0  0.37194  0.06384  0.58140  1.0000
  C   C118      1.0  0.39924  0.24664  0.50756  1.0000
  C   C119      1.0  0.38889  0.21709  0.50236  1.0000
  H   H194      1.0  0.42083  0.25597  0.51301  1.0000
  H   H195      1.0  0.40255  0.20382  0.50371  1.0000
  C   C120      1.0  0.99715  0.32459  0.67740  1.0000
  C   C121      1.0  0.32713  0.19357  0.53549  1.0000
  H   H196      1.0  0.35744  0.20992  0.56173  1.0000
  S   S39       1.0  0.43432  0.31296  0.72368  1.0000
  H   H197      1.0  0.42963  0.08401  0.70896  1.0000
  C   C122      1.0  0.47410  0.17089  0.69383  1.0000
  H   H198      1.0  0.31222  0.14634  0.54380  1.0000
  N   N11       1.0  0.01325  0.31807  0.54773  1.0000
  H   H199      1.0  0.01510  0.32099  0.52240  1.0000
  H   H200      1.0  0.44930  0.24964  0.70050  1.0000
  H   H201      1.0  0.27171  0.03017  0.50245  1.0000
  H   H202      1.0  0.31463  0.19831  0.54562  1.0000
  C   C123      1.0  0.36073  0.20472  0.49556  1.0000
  H   H203      1.0  0.46884  0.28977  0.70188  1.0000
  H   H204      1.0  0.41237  0.28283  0.67286  1.0000
  H   H205      1.0  0.37604  0.13580  0.54648  1.0000
  H   H206      1.0  0.32188  0.21315  0.48818  1.0000
  H   H207      1.0  0.44086  0.23041  0.67500  1.0000
  N   N12       1.0  0.39013  0.08437  0.72345  1.0000
  C   C124      1.0  0.99742  0.28312  0.49486  1.0000
  H   H208      1.0  0.34798  0.21502  0.53095  1.0000
  H   H209      1.0  0.40105  0.24516  0.70455  1.0000
  H   H210      1.0  0.37436  0.14300  0.56625  1.0000
  H   H211      1.0  0.40156  0.09234  0.69045  1.0000
  H   H212      1.0  0.48595  0.16166  0.68588  1.0000
  H   H213      1.0  0.47192  0.21404  0.50896  1.0000
  H   H214      1.0  0.04324  0.30202  0.56001  1.0000
  H   H215      1.0  0.36014  0.06555  0.69421  1.0000
  H   H216      1.0  0.39413  0.22732  0.68644  1.0000
  C   C125      1.0  0.33513  0.16589  0.53954  1.0000
  C   C126      1.0  0.32044  0.16855  0.57435  1.0000
  C   C127      1.0  0.38233  0.02991  0.73537  1.0000
  H   H217      1.0  0.99126  0.27137  0.52814  1.0000
  C   C128      1.0  0.04948  0.29363  0.53665  1.0000
  H   H218      1.0  0.05038  0.30263  0.52445  1.0000
  S   S40       1.0  0.42436  0.01853  0.67606  1.0000
  S   S41       1.0  0.46809  0.14187  0.63436  1.0000
  H   H219      1.0  0.38854  0.12420  0.71055  1.0000
  C   C129      1.0  0.42255  0.27823  0.68341  1.0000
  H   H220      1.0  0.41920  0.21445  0.56115  1.0000
  C   C130      1.0  0.37770  0.08949  0.69498  1.0000
  H   H221      1.0  0.20718  0.32616  0.49675  1.0000
  H   H222      1.0  0.34777  0.04149  0.72505  1.0000
  H   H223      1.0  0.36687  0.02792  0.67759  1.0000
  H   H224      1.0  0.36706  0.00511  0.73452  1.0000
  C   C131      1.0  0.01510  0.32853  0.57675  1.0000
  H   H225      1.0  0.33615  0.09225  0.56422  1.0000
  N   N13       1.0  0.45433  0.27825  0.67910  1.0000
  H   H226      1.0  0.35107  0.09255  0.71554  1.0000
  H   H227      1.0  0.44145  0.21482  0.54352  1.0000
  H   H228      1.0  0.43206  0.20453  0.72245  1.0000
  H   H229      1.0  0.42241  0.17964  0.55600  1.0000
  C   C132      1.0  0.37390  0.04971  0.72339  1.0000
  C   C133      1.0  0.34360  0.22253  0.49352  1.0000
  H   H230      1.0  0.30129  0.15618  0.56727  1.0000
  C   C134      1.0  0.42508  0.09633  0.71865  1.0000
  H   H231      1.0  0.31375  0.18589  0.57955  1.0000
  H   H232      1.0  0.43470  0.12102  0.71385  1.0000
  H   H233      1.0  0.37379  0.24963  0.69261  1.0000
  H   H234      1.0  0.31772  0.00406  0.69593  1.0000
  C   C135      1.0  0.35316  0.18537  0.56490  1.0000
  C   C136      1.0  0.39089  0.19293  0.54231  1.0000
  H   H235      1.0  0.31107  0.18790  0.52622  1.0000
  H   H236      1.0  0.37042  0.18714  0.57335  1.0000
  S   S42       1.0  0.47418  0.10683  0.66742  1.0000
  H   H237      1.0  0.07306  0.29412  0.53789  1.0000
  C   C137      1.0  0.41977  0.20056  0.55149  1.0000
  C   C138      1.0  0.36168  0.14097  0.55570  1.0000
  H   H238      1.0  0.34028  0.26542  0.49736  1.0000
  C   C139      1.0  0.37629  0.09851  0.71168  1.0000
  H   H239      1.0  0.34277  0.15920  0.52842  1.0000
  S   S43       1.0  0.32517  0.01379  0.50505  1.0000
  H   H240      1.0  0.39099  0.21560  0.53847  1.0000
  H   H241      1.0  0.42489  0.29714  0.69070  1.0000
  H   H242      1.0  0.47874  0.26653  0.64546  1.0000
  H   H243      1.0  0.03230  0.26903  0.53898  1.0000
  C   C140      1.0  0.33074  0.11121  0.55913  1.0000
  C   C141      1.0  0.44604  0.09511  0.73144  1.0000
  C   C142      1.0  0.48464  0.23368  0.49979  1.0000
  H   H244      1.0  0.45848  0.30522  0.64872  1.0000
  H   H245      1.0  0.40984  0.01592  0.49050  1.0000
  C   C143      1.0  0.36398  0.00992  0.68663  1.0000
  C   C144      1.0  0.47620  0.31047  0.67188  1.0000
  H   H246      1.0  0.48704  0.17768  0.50180  1.0000
  S   S44       1.0  0.48612  0.20345  0.73613  1.0000
  C   C145      1.0  0.47960  0.25737  0.65746  1.0000
  H   H247      1.0  0.99764  0.30446  0.58054  1.0000
  H   H248      1.0  0.00719  0.32155  0.68817  1.0000
  S   S45       1.0  0.34621  0.16721  0.48947  1.0000
  H   H249      1.0  0.40690  0.03281  0.73268  1.0000
  C   C146      1.0  0.46586  0.32238  0.65729  1.0000
  H   H250      1.0  0.00176  0.24007  0.49395  1.0000
  S   S46       1.0  0.03922  0.30587  0.49243  1.0000
  H   H251      1.0  0.45936  0.11862  0.73499  1.0000
  H   H252      1.0  0.44654  0.32929  0.66048  1.0000
  H   H253      1.0  0.38353  0.13945  0.73403  1.0000
  H   H254      1.0  0.48248  0.25420  0.50405  1.0000
  H   H255      1.0  0.47909  0.32750  0.68049  1.0000
  H   H256      1.0  0.46466  0.05394  0.48685  1.0000
  Fe  Fe24      1.0  0.32576  0.17129  0.90416  1.0000
  S   S47       1.0  0.37419  0.17424  0.90530  1.0000
  S   S48       1.0  0.28384  0.12506  0.90366  1.0000
  Fe  Fe25      1.0  0.34896  0.24121  0.90344  1.0000
  S   S49       1.0  0.39954  0.24867  0.90446  1.0000
  H   H257      1.0  0.35181  0.07551  0.95312  1.0000
  Fe  Fe26      1.0  0.38953  0.21433  0.88675  1.0000
  S   S50       1.0  0.42350  0.21500  0.86640  1.0000
  Fe  Fe27      1.0  0.37921  0.20803  0.92295  1.0000
  S   S51       1.0  0.40011  0.19945  0.94479  1.0000
  S   S52       1.0  0.34047  0.20955  0.88452  1.0000
  S   S53       1.0  0.32934  0.20260  0.92299  1.0000
  C   C147      1.0  0.34916  0.09428  0.94592  1.0000
  C   C148      1.0  0.47478  0.28013  0.95778  1.0000
  H   H258      1.0  0.34124  0.08439  0.93491  1.0000
  S   S54       1.0  0.47008  0.31137  0.76406  1.0000
  Fe  Fe28      1.0  0.44688  0.26143  0.77412  1.0000
  H   H259      1.0  0.28234  0.07776  0.84998  1.0000
  S   S55       1.0  0.41160  0.25029  0.79570  1.0000
  C   C149      1.0  0.37978  0.13343  0.85366  1.0000
  C   C150      1.0  0.23177  0.33381  0.94645  1.0000
  H   H260      1.0  0.00283  0.24175  0.86181  1.0000
  S   S56       1.0  0.43122  0.24444  0.75114  1.0000
  C   C151      1.0  0.42017  0.22527  0.84682  1.0000
  C   C152      1.0  0.39880  0.23728  0.84296  1.0000
  C   C153      1.0  0.39677  0.24510  0.82725  1.0000
  C   C154      1.0  0.41634  0.24143  0.81525  1.0000
  C   C155      1.0  0.43780  0.22947  0.81911  1.0000
  C   C156      1.0  0.43944  0.22114  0.83483  1.0000
  H   H261      1.0  0.38379  0.24051  0.85207  1.0000
  H   H262      1.0  0.37993  0.25409  0.82436  1.0000
  C   C157      1.0  0.30336  0.28463  0.90517  1.0000
  H   H263      1.0  0.05301  0.28562  0.95568  1.0000
  C   C158      1.0  0.39903  0.21574  0.96249  1.0000
  C   C159      1.0  0.41025  0.20585  0.97543  1.0000
  H   H264      1.0  0.27545  0.25548  0.85966  1.0000
  C   C160      1.0  0.38838  0.23887  0.96383  1.0000
  H   H265      1.0  0.41850  0.18794  0.97452  1.0000
  H   H266      1.0  0.38753  0.11955  0.84596  1.0000
  H   H267      1.0  0.37974  0.24673  0.95396  1.0000
  C   C161      1.0  0.28782  0.08982  0.90375  1.0000
  C   C162      1.0  0.31721  0.08899  0.90401  1.0000
  C   C163      1.0  0.31958  0.06061  0.90424  1.0000
  C   C164      1.0  0.29265  0.03276  0.90416  1.0000
  C   C165      1.0  0.26324  0.03350  0.90385  1.0000
  C   C166      1.0  0.26087  0.06196  0.90367  1.0000
  H   H268      1.0  0.33815  0.11013  0.90403  1.0000
  H   H269      1.0  0.34241  0.06018  0.90446  1.0000
  H   H270      1.0  0.31319  0.11542  0.93140  1.0000
  H   H271      1.0  0.23802  0.06235  0.90348  1.0000
  H   H272      1.0  0.38237  0.13832  0.93263  1.0000
  C   C167      1.0  0.07472  0.29421  0.90298  1.0000
  C   C168      1.0  0.04727  0.26650  0.90329  1.0000
  C   C169      1.0  0.01752  0.26690  0.90341  1.0000
  C   C170      1.0  0.01537  0.29521  0.90330  1.0000
  C   C171      1.0  0.99487  0.24548  0.94768  1.0000
  H   H273      1.0  0.09755  0.29369  0.90286  1.0000
  H   H274      1.0  0.04914  0.24467  0.90343  1.0000
  C   C172      1.0  0.38255  0.09308  0.73914  1.0000
  S   S57       1.0  0.20661  0.28733  0.91034  1.0000
  H   H275      1.0  0.22486  0.23687  0.91067  1.0000
  C   C173      1.0  0.27575  0.25713  0.90735  1.0000
  C   C174      1.0  0.24618  0.25820  0.90914  1.0000
  H   H276      1.0  0.27717  0.23509  0.90747  1.0000
  C   C175      1.0  0.27565  0.29939  0.85097  1.0000
  H   H277      1.0  0.45555  0.21123  0.83771  1.0000
  H   H278      1.0  0.28928  0.13204  0.85330  1.0000
  C   C176      1.0  0.39595  0.12814  0.74064  1.0000
  H   H279      1.0  0.04185  0.29931  0.83589  1.0000
  H   H280      1.0  0.28165  0.05303  0.86645  1.0000
  C   C177      1.0  0.19844  0.31075  0.95372  1.0000
  C   C178      1.0  0.07252  0.32252  0.90277  1.0000
  H   H281      1.0  0.38232  0.14140  0.87849  1.0000
  H   H282      1.0  0.31411  0.11999  0.83512  1.0000
  H   H283      1.0  0.24887  0.31149  0.87868  1.0000
  N   N14       1.0  0.27384  0.32853  0.85559  1.0000
  H   H284      1.0  0.18563  0.32318  0.95919  1.0000
  H   H285      1.0  0.48440  0.22679  0.97698  1.0000
  H   H286      1.0  0.06342  0.32576  0.95623  1.0000
  H   H287      1.0  0.05396  0.27903  0.86000  1.0000
  C   C179      1.0  0.35750  0.15948  0.82737  1.0000
  H   H288      1.0  0.35531  0.17807  0.83360  1.0000
  C   C180      1.0  0.02916  0.30143  0.84681  1.0000
  H   H289      1.0  0.30154  0.05614  0.96521  1.0000
  C   C181      1.0  0.34723  0.10222  0.98022  1.0000
  H   H290      1.0  0.28130  0.08914  0.86963  1.0000
  H   H291      1.0  0.33356  0.13879  0.87543  1.0000
  H   H292      1.0  0.01010  0.24160  0.95603  1.0000
  H   H293      1.0  0.36761  0.09819  0.97549  1.0000
  H   H294      1.0  0.29363  0.15144  0.87023  1.0000
  C   C182      1.0  0.29290  0.13495  0.94864  1.0000
  H   H295      1.0  0.35608  0.17001  0.86105  1.0000
  H   H296      1.0  0.38282  0.16494  0.82460  1.0000
  H   H297      1.0  0.39403  0.15803  0.84897  1.0000
  S   S58       1.0  0.34097  0.28489  0.90194  1.0000
  H   H298      1.0  0.07105  0.32026  0.85907  1.0000
  H   H299      1.0  0.33246  0.08892  0.87261  1.0000
  C   C183      1.0  0.04275  0.32288  0.90294  1.0000
  H   H300      1.0  0.19531  0.29374  0.87271  1.0000
  H   H301      1.0  0.19770  0.29234  0.96232  1.0000
  H   H302      1.0  0.21291  0.27619  0.86017  1.0000
  C   C184      1.0  0.33657  0.11966  0.96799  1.0000
  C   C185      1.0  0.21356  0.29882  0.86271  1.0000
  H   H303      1.0  0.33529  0.07630  0.85401  1.0000
  N   N15       1.0  0.32499  0.10316  0.95393  1.0000
  C   C186      1.0  0.29559  0.07385  0.95901  1.0000
  C   C187      1.0  0.04826  0.29933  0.86025  1.0000
  C   C188      1.0  0.31865  0.12481  0.94273  1.0000
  H   H304      1.0  0.23674  0.27993  0.94250  1.0000
  H   H305      1.0  0.45257  0.22599  0.80997  1.0000
  H   H306      1.0  0.31786  0.12469  0.97416  1.0000
  N   N16       1.0  0.99520  0.27790  0.84859  1.0000
  H   H307      1.0  0.43373  0.07880  0.74189  1.0000
  H   H308      1.0  0.29037  0.05179  0.93710  1.0000
  H   H309      1.0  0.99303  0.27523  0.82382  1.0000
  H   H310      1.0  0.23970  0.29376  0.97044  1.0000
  H   H311      1.0  0.29573  0.28591  0.87100  1.0000
  C   C189      1.0  0.04343  0.30244  0.95872  1.0000
  C   C190      1.0  0.25784  0.28549  0.94880  1.0000
  H   H312      1.0  0.38178  0.27064  0.97871  1.0000
  N   N17       1.0  0.34499  0.12485  0.85341  1.0000
  H   H313      1.0  0.03562  0.29905  0.97135  1.0000
  H   H314      1.0  0.26614  0.07259  0.93999  1.0000
  H   H315      1.0  0.23561  0.32727  0.93465  1.0000
  H   H316      1.0  0.27941  0.29478  0.94040  1.0000
  H   H317      1.0  0.38373  0.10536  0.87405  1.0000
  C   C191      1.0  0.27484  0.27618  0.86451  1.0000
  H   H318      1.0  0.29787  0.30505  0.84337  1.0000
  Fe  Fe29      1.0  0.45800  0.29409  0.74089  1.0000
  C   C192      1.0  0.24407  0.28670  0.90871  1.0000
  H   H319      1.0  0.28071  0.13854  0.93868  1.0000
  C   C193      1.0  0.27176  0.31410  0.90679  1.0000
  C   C194      1.0  0.39080  0.12998  0.86975  1.0000
  H   H320      1.0  0.03579  0.29821  0.87174  1.0000
  H   H321      1.0  0.28096  0.31158  0.96721  1.0000
  H   H322      1.0  0.48037  0.31079  0.80897  1.0000
  H   H323      1.0  0.27942  0.07772  0.96775  1.0000
  C   C195      1.0  0.30649  0.15056  0.85913  1.0000
  H   H324      1.0  0.34791  0.15992  0.81606  1.0000
  H   H325      1.0  0.45765  0.26954  0.96817  1.0000
  H   H326      1.0  0.46607  0.26343  0.94901  1.0000
  H   H327      1.0  0.18482  0.29836  0.94440  1.0000
  C   C196      1.0  0.30123  0.31305  0.90505  1.0000
  C   C197      1.0  0.33931  0.12716  0.83655  1.0000
  C   C198      1.0  0.33640  0.14633  0.86275  1.0000
  H   H328      1.0  0.41698  0.14150  0.86868  1.0000
  H   H329      1.0  0.31307  0.17329  0.85229  1.0000
  C   C199      1.0  0.38961  0.25242  0.97787  1.0000
  Fe  Fe30      1.0  0.47763  0.24155  0.74710  1.0000
  H   H330      1.0  0.00295  0.33132  0.82759  1.0000
  C   C200      1.0  0.29115  0.07766  0.86148  1.0000
  H   H331      1.0  0.48046  0.28482  0.83398  1.0000
  H   H332      1.0  0.39803  0.11078  0.93619  1.0000
  H   H333      1.0  0.48296  0.32213  0.83645  1.0000
  H   H334      1.0  0.35636  0.14287  0.96454  1.0000
  H   H335      1.0  0.39334  0.13174  0.95168  1.0000
  C   C201      1.0  0.32735  0.09166  0.86046  1.0000
  H   H336      1.0  0.34571  0.11065  0.83024  1.0000
  C   C202      1.0  0.38241  0.12056  0.94149  1.0000
  H   H337      1.0  0.25308  0.26782  0.87274  1.0000
  H   H338      1.0  0.27413  0.11755  0.95709  1.0000
  H   H339      1.0  0.30351  0.15690  0.95407  1.0000
  H   H340      1.0  0.99893  0.32047  0.87601  1.0000
  H   H341      1.0  0.25606  0.26322  0.95451  1.0000
  H   H342      1.0  0.25615  0.03619  0.95090  1.0000
  C   C203      1.0  0.27630  0.05807  0.94586  1.0000
  C   C204      1.0  0.25939  0.30738  0.96135  1.0000
  H   H343      1.0  0.00873  0.25104  0.93600  1.0000
  H   H344      1.0  0.39241  0.13176  0.75303  1.0000
  H   H345      1.0  0.24232  0.01217  0.90381  1.0000
  H   H346      1.0  0.34030  0.14664  0.93951  1.0000
  C   C205      1.0  0.01706  0.30112  0.94877  1.0000
  H   H347      1.0  0.01316  0.32202  0.95064  1.0000
  H   H348      1.0  0.25649  0.28683  0.84379  1.0000
  H   H349      1.0  0.20645  0.30932  0.85277  1.0000
  H   H350      1.0  0.01281  0.24474  0.84140  1.0000
  H   H351      1.0  0.02695  0.30486  0.93632  1.0000
  H   H352      1.0  0.47402  0.30218  0.95344  1.0000
  H   H353      1.0  0.39088  0.08290  0.74865  1.0000
  H   H354      1.0  0.37774  0.03389  0.74754  1.0000
  H   H355      1.0  0.03149  0.32549  0.84546  1.0000
  H   H356      1.0  0.46955  0.31534  0.97879  1.0000
  H   H357      1.0  0.35651  0.08332  0.74218  1.0000
  H   H358      1.0  0.32769  0.07995  0.98522  1.0000
  H   H359      1.0  0.46356  0.28570  0.86049  1.0000
  H   H360      1.0  0.99270  0.29591  0.90338  1.0000
  H   H361      1.0  0.21166  0.32830  0.98142  1.0000
  C   C206      1.0  0.99532  0.24623  0.85034  1.0000
  Fe  Fe31      1.0  0.20177  0.33243  0.90604  1.0000
  H   H362      1.0  0.99275  0.33234  0.85682  1.0000
  C   C207      1.0  0.24572  0.32121  0.86731  1.0000
  C   C208      1.0  0.48908  0.32557  0.98598  1.0000
  H   H363      1.0  0.25014  0.33153  0.83543  1.0000
  H   H364      1.0  0.42158  0.14007  0.73692  1.0000
  C   C209      1.0  0.48933  0.29779  0.85682  1.0000
  H   H365      1.0  0.30443  0.33446  0.87380  1.0000
  H   H366      1.0  0.32254  0.33439  0.90341  1.0000
  Fe  Fe32      1.0  0.37005  0.42103  0.14539  1.0000
  S   S59       1.0  0.41582  0.42070  0.13577  1.0000
  S   S60       1.0  0.34360  0.44421  0.13267  1.0000
  Fe  Fe33      1.0  0.36729  0.38557  0.17710  1.0000
  S   S61       1.0  0.41263  0.38248  0.16973  1.0000
  S   S62       1.0  0.33259  0.36191  0.19913  1.0000
  Fe  Fe34      1.0  0.43064  0.43243  0.15958  1.0000
  H   H367      1.0  0.40429  0.52562  0.04814  1.0000
  Fe  Fe35      1.0  0.39443  0.37118  0.14654  1.0000
  H   H368      1.0  0.46740  0.37747  0.08905  1.0000
  S   S63       1.0  0.38633  0.43627  0.16853  1.0000
  S   S64       1.0  0.34761  0.37083  0.15449  1.0000
  Fe  Fe36      1.0  0.22113  0.42175  0.02964  1.0000
  S   S65       1.0  0.20168  0.45377  0.03927  1.0000
  S   S66       1.0  0.20202  0.39365  0.00946  1.0000
  Fe  Fe37      1.0  0.25777  0.42294  0.05808  1.0000
  S   S67       1.0  0.24104  0.45476  0.06953  1.0000
  S   S68       1.0  0.28731  0.40162  0.06942  1.0000
  Fe  Fe38      1.0  0.19368  0.42566  0.06242  1.0000
  S   S69       1.0  0.14854  0.40153  0.07879  1.0000
  Fe  Fe39      1.0  0.25106  0.48022  0.04549  1.0000
  S   S70       1.0  0.27961  0.53205  0.04462  1.0000
  S   S71       1.0  0.20974  0.39193  0.05243  1.0000
  S   S72       1.0  0.27114  0.45010  0.03438  1.0000
  C   C210      1.0  0.20297  0.36664  0.09436  1.0000
  S   S73       1.0  0.02524  0.63951  0.14589  1.0000
  C   C211      1.0  0.37873  0.51145  0.05179  1.0000
  C   C212      1.0  0.21425  0.42054  0.11387  1.0000
  C   C213      1.0  0.05848  0.53064  0.14030  1.0000
  Fe  Fe40      1.0  0.02384  0.62735  0.17150  1.0000
  S   S74       1.0  0.02377  0.58328  0.18304  1.0000
  Fe  Fe41      1.0  0.05482  0.42060  0.14909  1.0000
  S   S75       1.0  0.01240  0.41398  0.13691  1.0000
  S   S76       1.0  0.10284  0.45304  0.13665  1.0000
  Fe  Fe42      1.0  0.01508  0.37963  0.17882  1.0000
  N   N18       1.0  0.08751  0.54184  0.14878  1.0000
  H   H369      1.0  0.17365  0.35586  0.14085  1.0000
  H   H370      1.0  0.36257  0.36325  0.05206  1.0000
  H   H371      1.0  0.38611  0.33681  0.04192  1.0000
  S   S77       1.0  0.03635  0.43123  0.17163  1.0000
  C   C214      1.0  0.00602  0.54665  0.17615  1.0000
  C   C215      1.0  0.01136  0.52216  0.18312  1.0000
  H   H372      1.0  0.26284  0.42176  0.13410  1.0000
  C   C216      1.0  0.22478  0.44673  0.12469  1.0000
  H   H373      1.0  0.23783  0.35663  0.99207  1.0000
  H   H374      1.0  0.04366  0.64895  0.11278  1.0000
  C   C217      1.0  0.38068  0.37413  0.08620  1.0000
  H   H375      1.0  0.30911  0.34246  0.04346  1.0000
  S   S78       1.0  0.03741  0.37005  0.15698  1.0000
  H   H376      1.0  0.16466  0.37148  0.10679  1.0000
  C   C218      1.0  0.13706  0.41691  0.09479  1.0000
  C   C219      1.0  0.15338  0.44776  0.09765  1.0000
  C   C220      1.0  0.14283  0.45877  0.11055  1.0000
  C   C221      1.0  0.11574  0.43914  0.12047  1.0000
  C   C222      1.0  0.09957  0.40837  0.11756  1.0000
  C   C223      1.0  0.11047  0.39726  0.10491  1.0000
  H   H377      1.0  0.17398  0.46309  0.08992  1.0000
  H   H378      1.0  0.15551  0.48260  0.11278  1.0000
  H   H379      1.0  0.07890  0.39297  0.12522  1.0000
  H   H380      1.0  0.09824  0.37319  0.10303  1.0000
  C   C224      1.0  0.32740  0.43137  0.11537  1.0000
  C   C225      1.0  0.31115  0.44642  0.10803  1.0000
  C   C226      1.0  0.29797  0.43689  0.09421  1.0000
  C   C227      1.0  0.30142  0.41264  0.08743  1.0000
  C   C228      1.0  0.31700  0.39712  0.09496  1.0000
  C   C229      1.0  0.33000  0.40642  0.10889  1.0000
  H   H381      1.0  0.30879  0.46553  0.11310  1.0000
  H   H382      1.0  0.28547  0.44854  0.08872  1.0000
  H   H383      1.0  0.31895  0.37784  0.09000  1.0000
  H   H384      1.0  0.34212  0.39445  0.11460  1.0000
  H   H385      1.0  0.19385  0.39369  0.14557  1.0000
  H   H386      1.0  0.43988  0.37804  0.11457  1.0000
  C   C230      1.0  0.01068  0.35462  0.22123  1.0000
  C   C231      1.0  0.30789  0.59376  0.99831  1.0000
  C   C232      1.0  0.32207  0.60510  0.01159  1.0000
  C   C233      1.0  0.31346  0.58579  0.02568  1.0000
  C   C234      1.0  0.29106  0.55493  0.02653  1.0000
  C   C235      1.0  0.27761  0.54329  0.01315  1.0000
  C   C236      1.0  0.28592  0.56273  0.99909  1.0000
  H   H387      1.0  0.09726  0.34438  0.22332  1.0000
  H   H388      1.0  0.32397  0.59490  0.03600  1.0000
  H   H389      1.0  0.26035  0.51949  0.01370  1.0000
  H   H390      1.0  0.06006  0.54789  0.13067  1.0000
  H   H391      1.0  0.02431  0.39849  0.05958  1.0000
  H   H392      1.0  0.46854  0.50326  0.14040  1.0000
  H   H393      1.0  0.07681  0.56371  0.16823  1.0000
  C   C237      1.0  0.12417  0.57078  0.12357  1.0000
  H   H394      1.0  0.41431  0.59050  0.05065  1.0000
  H   H395      1.0  0.27031  0.38867  0.13742  1.0000
  H   H396      1.0  0.37760  0.49063  0.05891  1.0000
  H   H397      1.0  0.40389  0.38789  0.09027  1.0000
  C   C238      1.0  0.34259  0.34565  0.06006  1.0000
  C   C239      1.0  0.39633  0.57911  0.04277  1.0000
  H   H398      1.0  0.38685  0.36748  0.21592  1.0000
  H   H399      1.0  0.11588  0.52577  0.13425  1.0000
  H   H400      1.0  0.39260  0.59782  0.03613  1.0000
  H   H401      1.0  0.35635  0.57012  0.05915  1.0000
  H   H402      1.0  0.07441  0.40674  0.06548  1.0000
  C   C240      1.0  0.10853  0.52476  0.17285  1.0000
  H   H403      1.0  0.22255  0.35489  0.12709  1.0000
  H   H404      1.0  0.24904  0.46413  0.12038  1.0000
  H   H405      1.0  0.06609  0.34288  0.05615  1.0000
  H   H406      1.0  0.33289  0.35957  0.06662  1.0000
  C   C241      1.0  0.33652  0.35184  0.21882  1.0000
  C   C242      1.0  0.09067  0.57039  0.15650  1.0000
  H   H407      1.0  0.13202  0.52914  0.16703  1.0000
  H   H408      1.0  0.13802  0.55707  0.14455  1.0000
  H   H409      1.0  0.19543  0.42295  0.10755  1.0000
  H   H410      1.0  0.06010  0.50857  0.16840  1.0000
  H   H411      1.0  0.23414  0.42625  0.10466  1.0000
  H   H412      1.0  0.06942  0.49962  0.12541  1.0000
  H   H413      1.0  0.40556  0.56805  0.03410  1.0000
  H   H414      1.0  0.14564  0.57204  0.11666  1.0000
  H   H415      1.0  0.24755  0.38647  0.11330  1.0000
  H   H416      1.0  0.17148  0.61793  0.02590  1.0000
  H   H417      1.0  0.05983  0.37252  0.04442  1.0000
  H   H418      1.0  0.21542  0.39024  0.08818  1.0000
  N   N19       1.0  0.24530  0.63804  0.01050  1.0000
  H   H419      1.0  0.37470  0.39047  0.07892  1.0000
  H   H420      1.0  0.33919  0.62892  0.01108  1.0000
  H   H421      1.0  0.03772  0.52782  0.14832  1.0000
  C   C243      1.0  0.11683  0.54783  0.13819  1.0000
  H   H422      1.0  0.02530  0.52586  0.19283  1.0000
  H   H423      1.0  0.34724  0.54858  0.04306  1.0000
  H   H424      1.0  0.25287  0.60203  0.99958  1.0000
  C   C244      1.0  0.33130  0.50753  0.06744  1.0000
  C   C245      1.0  0.38480  0.54033  0.07445  1.0000
  C   C246      1.0  0.31630  0.51864  0.08074  1.0000
  C   C247      1.0  0.38637  0.51504  0.08606  1.0000
  H   H425      1.0  0.32895  0.48401  0.07134  1.0000
  H   H426      1.0  0.40966  0.55536  0.06978  1.0000
  H   H427      1.0  0.37757  0.55593  0.08108  1.0000
  H   H428      1.0  0.29099  0.50266  0.08333  1.0000
  H   H429      1.0  0.32720  0.51840  0.09166  1.0000
  C   C248      1.0  0.08332  0.51652  0.16135  1.0000
  H   H430      1.0  0.37488  0.48760  0.03101  1.0000
  H   H431      1.0  0.36346  0.51876  0.02883  1.0000
  H   H432      1.0  0.40767  0.51115  0.08285  1.0000
  H   H433      1.0  0.36563  0.49246  0.08690  1.0000
  H   H434      1.0  0.38732  0.52236  0.09799  1.0000
  C   C249      1.0  0.01112  0.37555  0.06653  1.0000
  C   C250      1.0  0.03243  0.38157  0.09166  1.0000
  H   H435      1.0  0.20932  0.45910  0.12426  1.0000
  H   H436      1.0  0.04817  0.37708  0.09941  1.0000
  C   C251      1.0  0.06589  0.38147  0.06881  1.0000
  C   C252      1.0  0.04287  0.41693  0.09032  1.0000
  C   C253      1.0  0.22313  0.64240  0.02257  1.0000
  C   C254      1.0  0.43525  0.35630  0.10993  1.0000
  C   C255      1.0  0.24669  0.65353  0.99450  1.0000
  H   H437      1.0  0.36349  0.36429  0.09674  1.0000
  S   S79       1.0  0.01833  0.35236  0.20101  1.0000
  H   H438      1.0  0.25379  0.44611  0.99078  1.0000
  C   C256      1.0  0.27835  0.65253  0.01521  1.0000
  H   H439      1.0  0.40236  0.36089  0.06712  1.0000
  H   H440      1.0  0.26753  0.65480  0.98688  1.0000
  C   C257      1.0  0.00821  0.38035  0.22687  1.0000
  H   H441      1.0  0.21940  0.62671  0.03337  1.0000
  H   H442      1.0  0.07903  0.36786  0.23015  1.0000
  H   H443      1.0  0.02881  0.42450  0.08274  1.0000
  H   H444      1.0  0.03936  0.42370  0.10208  1.0000
  H   H445      1.0  0.18601  0.65819  0.01966  1.0000
  C   C258      1.0  0.25102  0.39632  0.13683  1.0000
  H   H446      1.0  0.12959  0.59446  0.12659  1.0000
  N   N20       1.0  0.03247  0.36763  0.07654  1.0000
  H   H447      1.0  0.08858  0.60001  0.13589  1.0000
  C   C259      1.0  0.38339  0.34881  0.07689  1.0000
  H   H448      1.0  0.22511  0.43957  0.13700  1.0000
  C   C260      1.0  0.45090  0.35589  0.09550  1.0000
  H   H449      1.0  0.15792  0.41031  0.12971  1.0000
  C   C261      1.0  0.23081  0.38029  0.12405  1.0000
  H   H450      1.0  0.10180  0.50459  0.18176  1.0000
  C   C262      1.0  0.04986  0.49966  0.13334  1.0000
  H   H451      1.0  0.33774  0.48264  0.04029  1.0000
  C   C263      1.0  0.48894  0.51773  0.14579  1.0000
  H   H452      1.0  0.08200  0.37938  0.07708  1.0000
  C   C264      1.0  0.36253  0.49971  0.03717  1.0000
  H   H453      1.0  0.09776  0.37959  0.05000  1.0000
  H   H454      1.0  0.31739  0.54192  0.07753  1.0000
  H   H455      1.0  0.31574  0.50350  0.05796  1.0000
  H   H456      1.0  0.11554  0.58427  0.15862  1.0000
  C   C265      1.0  0.36459  0.55626  0.05173  1.0000
  H   H457      1.0  0.11010  0.54464  0.17920  1.0000
  H   H458      1.0  0.08329  0.49575  0.15623  1.0000
  H   H459      1.0  0.02956  0.49529  0.12651  1.0000
  C   C266      1.0  0.36558  0.35643  0.22393  1.0000
  H   H460      1.0  0.99196  0.37798  0.07391  1.0000
  H   H461      1.0  0.18603  0.35250  0.08658  1.0000
  H   H462      1.0  0.00910  0.34582  0.04749  1.0000
  C   C267      1.0  0.18172  0.38057  0.13617  1.0000
  H   H463      1.0  0.14008  0.38411  0.14688  1.0000
  C   C268      1.0  0.07899  0.59272  0.14823  1.0000
  C   C269      1.0  0.23734  0.60426  0.00929  1.0000
  N   N21       1.0  0.36490  0.52889  0.06136  1.0000
  H   H464      1.0  0.04179  0.48002  0.14261  1.0000
  H   H465      1.0  0.23410  0.66630  0.02614  1.0000
  N   N22       1.0  0.20322  0.38769  0.12122  1.0000
  H   H466      1.0  0.05286  0.58233  0.14901  1.0000
  C   C270      1.0  0.07210  0.36792  0.05402  1.0000
  H   H467      1.0  0.10509  0.56326  0.11587  1.0000
  C   C271      1.0  0.04348  0.66293  0.10207  1.0000
  H   H468      1.0  0.00988  0.39934  0.21876  1.0000
  H   H469      1.0  0.22645  0.63974  0.98830  1.0000
  H   H470      1.0  0.18627  0.63204  0.00595  1.0000
  H   H471      1.0  0.27486  0.55379  0.98886  1.0000
  H   H472      1.0  0.23773  0.38979  0.14857  1.0000
  H   H473      1.0  0.08600  0.61398  0.15431  1.0000
  H   H474      1.0  0.17349  0.34167  0.11540  1.0000
  C   C272      1.0  0.15210  0.38657  0.13501  1.0000
  C   C273      1.0  0.28252  0.64395  0.03216  1.0000
  H   H475      1.0  0.24195  0.59312  0.01987  1.0000
  C   C274      1.0  0.19011  0.63722  0.01806  1.0000
  H   H476      1.0  0.29462  0.64685  0.00739  1.0000
  C   C275      1.0  0.20326  0.58317  0.00667  1.0000
  H   H477      1.0  0.20195  0.55993  0.00469  1.0000
  H   H478      1.0  0.30806  0.65476  0.03360  1.0000
  C   C276      1.0  0.18455  0.36613  0.10996  1.0000
  H   H479      1.0  0.13476  0.36939  0.12848  1.0000
  H   H480      1.0  0.27081  0.65330  0.04064  1.0000
  H   H481      1.0  0.27430  0.61877  0.03528  1.0000
  C   C277      1.0  0.08771  0.35050  0.23403  1.0000
  H   H482      1.0  0.19541  0.59140  0.99627  1.0000
  H   H483      1.0  0.02387  0.64762  0.09593  1.0000
  C   C278      1.0  0.99906  0.49296  0.17754  1.0000
  H   H484      1.0  0.39272  0.33560  0.08432  1.0000
  S   S80       1.0  0.47970  0.46495  0.16486  1.0000
  H   H485      1.0  0.18666  0.57958  0.01716  1.0000
  C   C279      1.0  0.21238  0.40436  0.98916  1.0000
  H   H486      1.0  0.00345  0.47428  0.18295  1.0000
  Fe  Fe43      1.0  0.99631  0.66491  0.15301  1.0000
  H   H487      1.0  0.06836  0.42979  0.08629  1.0000
  H   H488      1.0  0.00864  0.37050  0.09828  1.0000
  H   H489      1.0  0.21990  0.35625  0.09587  1.0000
  Fe  Fe44      1.0  0.99243  0.42127  0.15986  1.0000
  Fe  Fe45      1.0  0.99314  0.36420  0.14642  1.0000
  C   C280      1.0  0.30916  0.33740  0.22949  1.0000
  C   C281      1.0  0.99350  0.35214  0.05523  1.0000
  S   S81       1.0  0.99107  0.64899  0.17866  1.0000
  H   H490      1.0  0.12586  0.34787  0.24510  1.0000
  C   C282      1.0  0.99225  0.65472  0.36794  1.0000
  H   H491      1.0  0.10302  0.42011  0.27848  1.0000
  H   H492      1.0  0.04218  0.45451  0.35871  1.0000
  Fe  Fe46      1.0  0.46355  0.45499  0.42338  1.0000
  S   S82       1.0  0.46777  0.37600  0.46863  1.0000
  H   H493      1.0  0.04634  0.36958  0.38520  1.0000
  S   S83       1.0  0.42376  0.43157  0.46925  1.0000
  C   C283      1.0  0.22226  0.52632  0.45110  1.0000
  S   S84       1.0  0.08115  0.45114  0.45886  1.0000
  H   H494      1.0  0.32153  0.42393  0.30398  1.0000
  Fe  Fe47      1.0  0.40805  0.45149  0.45043  1.0000
  S   S85       1.0  0.40785  0.44246  0.42167  1.0000
  S   S86       1.0  0.37174  0.47323  0.45482  1.0000
  Fe  Fe48      1.0  0.39942  0.39294  0.42481  1.0000
  H   H495      1.0  0.06846  0.41835  0.27043  1.0000
  S   S87       1.0  0.39086  0.39265  0.45004  1.0000
  Fe  Fe49      1.0  0.33239  0.63157  0.45686  1.0000
  S   S88       1.0  0.30080  0.62178  0.43765  1.0000
  S   S89       1.0  0.35657  0.59963  0.46470  1.0000
  Fe  Fe50      1.0  0.27068  0.63924  0.45230  1.0000
  S   S90       1.0  0.21577  0.61138  0.45913  1.0000
  Fe  Fe51      1.0  0.02395  0.52643  0.43586  1.0000
  S   S91       1.0  0.03237  0.54162  0.41025  1.0000
  S   S92       1.0  0.06418  0.54732  0.45231  1.0000
  S   S93       1.0  0.18319  0.65825  0.40803  1.0000
  H   H496      1.0  0.27072  0.47437  0.47705  1.0000
  S   S94       1.0  0.99479  0.47546  0.43244  1.0000
  H   H497      1.0  0.23723  0.54476  0.42672  1.0000
  S   S95       1.0  0.30275  0.64954  0.47173  1.0000
  Fe  Fe52      1.0  0.15440  0.61100  0.40032  1.0000
  S   S96       1.0  0.16539  0.63024  0.37487  1.0000
  S   S97       1.0  0.16101  0.56647  0.40722  1.0000
  Fe  Fe53      1.0  0.11928  0.63553  0.37824  1.0000
  S   S98       1.0  0.08004  0.61791  0.36110  1.0000
  S   S99       1.0  0.10863  0.61575  0.40326  1.0000
  C   C284      1.0  0.17393  0.59505  0.45636  1.0000
  C   C285      1.0  0.15142  0.57824  0.46909  1.0000
  C   C286      1.0  0.11863  0.56469  0.46762  1.0000
  C   C287      1.0  0.10678  0.56724  0.45337  1.0000
  C   C288      1.0  0.12917  0.58543  0.44082  1.0000
  C   C289      1.0  0.16229  0.59889  0.44225  1.0000
  H   H498      1.0  0.10234  0.55174  0.47766  1.0000
  H   H499      1.0  0.12106  0.58828  0.42979  1.0000
  H   H500      1.0  0.17886  0.61157  0.43224  1.0000
  C   C290      1.0  0.37080  0.51070  0.45496  1.0000
  C   C291      1.0  0.34358  0.51404  0.45108  1.0000
  C   C292      1.0  0.33989  0.54173  0.45290  1.0000
  C   C293      1.0  0.36265  0.56632  0.45937  1.0000
  H   H501      1.0  0.09020  0.44240  0.42491  1.0000
  C   C294      1.0  0.39440  0.53597  0.46060  1.0000
  H   H502      1.0  0.32503  0.49492  0.44671  1.0000
  H   H503      1.0  0.31904  0.54374  0.44967  1.0000
  H   H504      1.0  0.13669  0.66202  0.46579  1.0000
  C   C295      1.0  0.02283  0.60300  0.34834  1.0000
  C   C296      1.0  0.03740  0.59682  0.36098  1.0000
  C   C297      1.0  0.01766  0.57388  0.37281  1.0000
  H   H505      1.0  0.03721  0.62030  0.33893  1.0000
  H   H506      1.0  0.02809  0.56862  0.38255  1.0000
  C   C298      1.0  0.10438  0.48421  0.44525  1.0000
  C   C299      1.0  0.08896  0.49845  0.43657  1.0000
  C   C300      1.0  0.10588  0.52377  0.42518  1.0000
  C   C301      1.0  0.13864  0.53507  0.42201  1.0000
  C   C302      1.0  0.15393  0.51992  0.43025  1.0000
  C   C303      1.0  0.13701  0.49491  0.44191  1.0000
  H   H507      1.0  0.06376  0.49044  0.43891  1.0000
  H   H508      1.0  0.09353  0.53503  0.41912  1.0000
  H   H509      1.0  0.17907  0.52791  0.42767  1.0000
  H   H510      1.0  0.14894  0.48349  0.44814  1.0000
  N   N23       1.0  0.37313  0.40340  0.29560  1.0000
  H   H511      1.0  0.18236  0.64675  0.47033  1.0000
  C   C304      1.0  0.36713  0.34675  0.23950  1.0000
  H   H512      1.0  0.26697  0.50676  0.45528  1.0000
  H   H513      1.0  0.22984  0.47670  0.46279  1.0000
  H   H514      1.0  0.43421  0.49049  0.43992  1.0000
  H   H515      1.0  0.35363  0.40024  0.25702  1.0000
  H   H516      1.0  0.02258  0.43231  0.41616  1.0000
  H   H517      1.0  0.25183  0.57247  0.46522  1.0000
  H   H518      1.0  0.40591  0.33894  0.45248  1.0000
  H   H519      1.0  0.10719  0.41312  0.25068  1.0000
  H   H520      1.0  0.04434  0.63027  0.39363  1.0000
  H   H521      1.0  0.02818  0.40097  0.39762  1.0000
  C   C305      1.0  0.26368  0.49334  0.47928  1.0000
  H   H522      1.0  0.34580  0.49374  0.48523  1.0000
  H   H523      1.0  0.21271  0.54414  0.45112  1.0000
  H   H524      1.0  0.01138  0.36694  0.41026  1.0000
  H   H525      1.0  0.02975  0.35993  0.43388  1.0000
  C   C306      1.0  0.00403  0.38174  0.24306  1.0000
  H   H526      1.0  0.27024  0.40260  0.47026  1.0000
  C   C307      1.0  0.25735  0.35770  0.44233  1.0000
  C   C308      1.0  0.24642  0.53589  0.43646  1.0000
  H   H527      1.0  0.28180  0.55920  0.46278  1.0000
  H   H528      1.0  0.01043  0.64069  0.44048  1.0000
  H   H529      1.0  0.47850  0.52309  0.42304  1.0000
  H   H530      1.0  0.41445  0.42999  0.31721  1.0000
  H   H531      1.0  0.07918  0.38711  0.39532  1.0000
  H   H532      1.0  0.02705  0.40663  0.34549  1.0000
  C   C309      1.0  0.29355  0.41736  0.46395  1.0000
  C   C310      1.0  0.36832  0.37723  0.38207  1.0000
  C   C311      1.0  0.36006  0.37502  0.36666  1.0000
  H   H533      1.0  0.10121  0.39736  0.43424  1.0000
  H   H534      1.0  0.25084  0.37006  0.43286  1.0000
  H   H535      1.0  0.38364  0.39938  0.38557  1.0000
  H   H536      1.0  0.36921  0.39565  0.35848  1.0000
  H   H537      1.0  0.39730  0.45171  0.28689  1.0000
  H   H538      1.0  0.28539  0.36081  0.46991  1.0000
  H   H539      1.0  0.10674  0.47212  0.39880  1.0000
  H   H540      1.0  0.26946  0.55450  0.43816  1.0000
  C   C312      1.0  0.02202  0.43384  0.36370  1.0000
  H   H541      1.0  0.41612  0.46681  0.30974  1.0000
  H   H542      1.0  0.08512  0.36844  0.42092  1.0000
  H   H543      1.0  0.24989  0.51571  0.43264  1.0000
  H   H544      1.0  0.37292  0.64962  0.38424  1.0000
  C   C313      1.0  0.08051  0.43045  0.41466  1.0000
  H   H545      1.0  0.17070  0.37615  0.27894  1.0000
  H   H546      1.0  0.02126  0.53721  0.48110  1.0000
  H   H547      1.0  0.04983  0.39234  0.44409  1.0000
  H   H548      1.0  0.06621  0.38548  0.28227  1.0000
  H   H549      1.0  0.41999  0.43026  0.28387  1.0000
  C   C314      1.0  0.31203  0.37601  0.43110  1.0000
  H   H550      1.0  0.02024  0.45158  0.46533  1.0000
  S   S100      1.0  0.03192  0.35382  0.31262  1.0000
  C   C315      1.0  0.29977  0.36146  0.45907  1.0000
  H   H551      1.0  0.30722  0.35203  0.42858  1.0000
  C   C316      1.0  0.03444  0.38666  0.40617  1.0000
  H   H552      1.0  0.03814  0.43440  0.43437  1.0000
  N   N24       1.0  0.29115  0.37594  0.44522  1.0000
  N   N25       1.0  0.09950  0.53779  0.35297  1.0000
  C   C317      1.0  0.10245  0.52234  0.36819  1.0000
  C   C318      1.0  0.10390  0.51929  0.34033  1.0000
  C   C319      1.0  0.06658  0.53604  0.35385  1.0000
  C   C320      1.0  0.12392  0.57092  0.35107  1.0000
  C   C321      1.0  0.09634  0.53596  0.38304  1.0000
  C   C322      1.0  0.13640  0.51836  0.33827  1.0000
  C   C323      1.0  0.30918  0.39264  0.41578  1.0000
  C   C324      1.0  0.13208  0.58892  0.33463  1.0000
  H   H553      1.0  0.08605  0.49725  0.36970  1.0000
  H   H554      1.0  0.12657  0.52352  0.36848  1.0000
  H   H555      1.0  0.10003  0.52754  0.32880  1.0000
  H   H556      1.0  0.08571  0.49490  0.34249  1.0000
  H   H557      1.0  0.04891  0.51174  0.35728  1.0000
  H   H558      1.0  0.06297  0.54975  0.36303  1.0000
  H   H559      1.0  0.11656  0.58456  0.35900  1.0000
  H   H560      1.0  0.14654  0.57234  0.35500  1.0000
  H   H561      1.0  0.11185  0.56092  0.38287  1.0000
  H   H562      1.0  0.07137  0.53182  0.38538  1.0000
  H   H563      1.0  0.10154  0.52397  0.39307  1.0000
  H   H564      1.0  0.13824  0.50750  0.32752  1.0000
  H   H565      1.0  0.15609  0.54181  0.33696  1.0000
  H   H566      1.0  0.13935  0.50387  0.34801  1.0000
  H   H567      1.0  0.05479  0.33554  0.26589  1.0000
  H   H568      1.0  0.12418  0.38580  0.28175  1.0000
  H   H569      1.0  0.18937  0.48591  0.47614  1.0000
  H   H570      1.0  0.12824  0.61030  0.33518  1.0000
  H   H571      1.0  0.11836  0.57639  0.32551  1.0000
  H   H572      1.0  0.15747  0.59658  0.33066  1.0000
  C   C325      1.0  0.02720  0.65537  0.43040  1.0000
  H   H573      1.0  0.40262  0.35081  0.30935  1.0000
  S   S101      1.0  0.36543  0.35238  0.41275  1.0000
  S   S102      1.0  0.11001  0.38755  0.47551  1.0000
  H   H574      1.0  0.32455  0.37597  0.46114  1.0000
  C   C326      1.0  0.05360  0.37233  0.39715  1.0000
  C   C327      1.0  0.15062  0.36298  0.27243  1.0000
  C   C328      1.0  0.05678  0.54780  0.33907  1.0000
  H   H575      1.0  0.28322  0.41721  0.44011  1.0000
  C   C329      1.0  0.29774  0.40924  0.44724  1.0000
  C   C330      1.0  0.34014  0.34647  0.36175  1.0000
  H   H576      1.0  0.29640  0.44166  0.46345  1.0000
  C   C331      1.0  0.99625  0.48801  0.47700  1.0000
  C   C332      1.0  0.02957  0.63693  0.38662  1.0000
  S   S103      1.0  0.01767  0.46982  0.38665  1.0000
  H   H577      1.0  0.28569  0.38065  0.41169  1.0000
  S   S104      1.0  0.44847  0.39933  0.42757  1.0000
  C   C333      1.0  0.44608  0.44488  0.44468  1.0000
  H   H578      1.0  0.05754  0.49789  0.47339  1.0000
  Fe  Fe54      1.0  0.44817  0.40891  0.45622  1.0000
  H   H579      1.0  0.33295  0.37740  0.28342  1.0000
  H   H580      1.0  0.04917  0.65188  0.43033  1.0000
  C   C334      1.0  0.45007  0.47980  0.43707  1.0000
  Fe  Fe55      1.0  0.00154  0.49158  0.40676  1.0000
  N   N26       1.0  0.23431  0.52264  0.46646  1.0000
  C   C335      1.0  0.20614  0.50935  0.47867  1.0000
  H   H581      1.0  0.23531  0.33660  0.46620  1.0000
  H   H582      1.0  0.04913  0.34920  0.40291  1.0000
  H   H583      1.0  0.00241  0.40189  0.24727  1.0000
  S   S105      1.0  0.47651  0.47975  0.46056  1.0000
  H   H584      1.0  0.15935  0.57545  0.48024  1.0000
  C   C336      1.0  0.24822  0.49946  0.46519  1.0000
  H   H585      1.0  0.20234  0.50435  0.44910  1.0000
  C   C337      1.0  0.39005  0.56313  0.46306  1.0000
  C   C338      1.0  0.14670  0.66184  0.47698  1.0000
  H   H586      1.0  0.32671  0.39218  0.40658  1.0000
  C   C339      1.0  0.04352  0.66190  0.37468  1.0000
  H   H587      1.0  0.38872  0.42951  0.26251  1.0000
  C   C340      1.0  0.05053  0.38283  0.43272  1.0000
  H   H588      1.0  0.34285  0.64353  0.37184  1.0000
  C   C341      1.0  0.23206  0.35033  0.45621  1.0000
  C   C342      1.0  0.00855  0.44352  0.47748  1.0000
  H   H589      1.0  0.00702  0.49425  0.46467  1.0000
  H   H590      1.0  0.05745  0.53487  0.32903  1.0000
  H   H591      1.0  0.28555  0.51388  0.48077  1.0000
  C   C343      1.0  0.09039  0.39248  0.25855  1.0000
  N   N27       1.0  0.10353  0.36865  0.26079  1.0000
  H   H592      1.0  0.37781  0.64044  0.36449  1.0000
  C   C344      1.0  0.08177  0.40456  0.27343  1.0000
  C   C345      1.0  0.02694  0.41820  0.42566  1.0000
  C   C346      1.0  0.11402  0.36356  0.24476  1.0000
  C   C347      1.0  0.18705  0.52877  0.48035  1.0000
  H   H593      1.0  0.31461  0.41734  0.41665  1.0000
  C   C348      1.0  0.01349  0.40659  0.35614  1.0000
  H   H594      1.0  0.33129  0.37984  0.31197  1.0000
  H   H595      1.0  0.13231  0.38571  0.23861  1.0000
  C   C349      1.0  0.00484  0.43458  0.37757  1.0000
  H   H596      1.0  0.07237  0.44544  0.39131  1.0000
  C   C350      1.0  0.40280  0.43311  0.29247  1.0000
  H   H597      1.0  0.44599  0.45537  0.30341  1.0000
  H   H598      1.0  0.06843  0.38307  0.25274  1.0000
  C   C351      1.0  0.35282  0.40210  0.31019  1.0000
  H   H599      1.0  0.32266  0.42494  0.44286  1.0000
  H   H600      1.0  0.14844  0.40540  0.26407  1.0000
  H   H601      1.0  0.40799  0.58175  0.46807  1.0000
  H   H602      1.0  0.16434  0.34884  0.31190  1.0000
  H   H603      1.0  0.36079  0.45142  0.30695  1.0000
  C   C352      1.0  0.08024  0.37652  0.43202  1.0000
  H   H604      1.0  0.39289  0.37385  0.28567  1.0000
  H   H605      1.0  0.33727  0.38703  0.43324  1.0000
  S   S106      1.0  0.99837  0.36121  0.27410  1.0000
  N   N28       1.0  0.04852  0.40422  0.41958  1.0000
  H   H606      1.0  0.07056  0.57303  0.33602  1.0000
  C   C353      1.0  0.37107  0.40524  0.26565  1.0000
  C   C354      1.0  0.40106  0.37338  0.30938  1.0000
  C   C355      1.0  0.47881  0.50232  0.42857  1.0000
  C   C356      1.0  0.35656  0.35089  0.39293  1.0000
  H   H607      1.0  0.31208  0.41603  0.47085  1.0000
  C   C357      1.0  0.34172  0.42822  0.31085  1.0000
  H   H608      1.0  0.42551  0.39157  0.30688  1.0000
  Fe  Fe56      1.0  0.09273  0.42445  0.47868  1.0000
  H   H609      1.0  0.35820  0.35385  0.29868  1.0000
  C   C358      1.0  0.04606  0.49229  0.48561  1.0000
  H   H610      1.0  0.34361  0.41779  0.28182  1.0000
  H   H611      1.0  0.09811  0.42220  0.41038  1.0000
  H   H612      1.0  0.03194  0.54441  0.34149  1.0000
  C   C359      1.0  0.13161  0.38218  0.26983  1.0000
  C   C360      1.0  0.38047  0.37548  0.29672  1.0000
  S   S107      1.0  0.33033  0.34549  0.34209  1.0000
  H   H613      1.0  0.38260  0.38951  0.26404  1.0000
  H   H614      1.0  0.20228  0.55350  0.48111  1.0000
  H   H615      1.0  0.41538  0.53402  0.46381  1.0000
  Fe  Fe57      1.0  0.13802  0.66447  0.40901  1.0000
  H   H616      1.0  0.33296  0.42845  0.32309  1.0000
  C   C361      1.0  0.42017  0.44646  0.30667  1.0000
  H   H617      1.0  0.38976  0.35050  0.24330  1.0000
  H   H618      1.0  0.06930  0.46902  0.40638  1.0000
  H   H619      1.0  0.16097  0.35868  0.26146  1.0000
  H   H620      1.0  0.36454  0.40194  0.32079  1.0000
  C   C362      1.0  0.08177  0.45537  0.40203  1.0000
  C   C363      1.0  0.35362  0.40046  0.28213  1.0000
  C   C364      1.0  0.25873  0.55390  0.46951  1.0000
  H   H621      1.0  0.23081  0.37148  0.45996  1.0000
  H   H622      1.0  0.01596  0.64630  0.41995  1.0000
  H   H623      1.0  0.39087  0.37370  0.32125  1.0000
  H   H624      1.0  0.13272  0.63828  0.48312  1.0000
  C   C365      1.0  0.48226  0.44567  0.44170  1.0000
  C   C366      1.0  0.99674  0.62051  0.38934  1.0000
  C   C367      1.0  0.36884  0.65354  0.37199  1.0000
  H   H625      1.0  0.99318  0.50688  0.36302  1.0000
  H   H626      1.0  0.17254  0.52679  0.47056  1.0000
  H   H627      1.0  0.07582  0.34302  0.28228  1.0000
  C   C368      1.0  0.07821  0.33974  0.26974  1.0000
  H   H628      1.0  0.07684  0.35810  0.44146  1.0000
  H   H629      1.0  0.02133  0.43088  0.48252  1.0000
  C   C369      1.0  0.99731  0.51796  0.48320  1.0000
  C   C370      1.0  0.00209  0.35742  0.25383  1.0000
  H   H630      1.0  0.48470  0.57927  0.41191  1.0000
  H   H631      1.0  0.44808  0.33640  0.41753  1.0000
  H   H632      1.0  0.03348  0.66098  0.24726  1.0000
  N   N29       1.0  0.01155  0.47090  0.48606  1.0000
  H   H633      1.0  0.23745  0.66682  0.48387  1.0000
  H   H634      1.0  0.99527  0.38071  0.44372  1.0000
  C   C371      1.0  0.99400  0.39506  0.43342  1.0000
  H   H635      1.0  0.25416  0.33522  0.43808  1.0000
  H   H636      1.0  0.13651  0.34102  0.27988  1.0000
  H   H637      1.0  0.20860  0.33596  0.45258  1.0000
  C   C372      1.0  0.18162  0.66758  0.47497  1.0000
  Fe  Fe58      1.0  0.37912  0.39410  0.52400  1.0000
  C   C373      1.0  0.01444  0.33467  0.53210  1.0000
  S   S108      1.0  0.40228  0.43026  0.54075  1.0000
  H   H638      1.0  0.03268  0.36268  0.55685  1.0000
  H   H639      1.0  0.12892  0.54243  0.70351  1.0000
  H   H640      1.0  0.46035  0.48092  0.69564  1.0000
  H   H641      1.0  0.05087  0.50357  0.58482  1.0000
  S   S109      1.0  0.35885  0.40872  0.50378  1.0000
  S   S110      1.0  0.41161  0.38302  0.50814  1.0000
  Fe  Fe59      1.0  0.13837  0.40588  0.49550  1.0000
  S   S111      1.0  0.12287  0.44459  0.49768  1.0000
  C   C374      1.0  0.21277  0.39943  0.49806  1.0000
  C   C375      1.0  0.48295  0.43823  0.52066  1.0000
  S   S112      1.0  0.19182  0.42261  0.49504  1.0000
  H   H642      1.0  0.43195  0.47488  0.56189  1.0000
  Fe  Fe60      1.0  0.08328  0.41030  0.51477  1.0000
  S   S113      1.0  0.05956  0.41990  0.53663  1.0000
  S   S114      1.0  0.10046  0.37287  0.51385  1.0000
  H   H643      1.0  0.01020  0.34376  0.58466  1.0000
  H   H644      1.0  0.41412  0.46362  0.71495  1.0000
  S   S115      1.0  0.35343  0.34577  0.48843  1.0000
  S   S116      1.0  0.43600  0.43432  0.65477  1.0000
  H   H645      1.0  0.38954  0.37589  0.56293  1.0000
  Fe  Fe61      1.0  0.45327  0.45019  0.62915  1.0000
  S   S117      1.0  0.42952  0.41585  0.61168  1.0000
  Fe  Fe62      1.0  0.44453  0.48382  0.65677  1.0000
  S   S118      1.0  0.41576  0.50369  0.67066  1.0000
  N   N30       1.0  0.42010  0.42691  0.72843  1.0000
  H   H646      1.0  0.47931  0.33537  0.49032  1.0000
  H   H647      1.0  0.25447  0.43800  0.50297  1.0000
  S   S119      1.0  0.05581  0.65080  0.64527  1.0000
  Fe  Fe63      1.0  0.05118  0.44759  0.65600  1.0000
  S   S120      1.0  0.08022  0.42385  0.64658  1.0000
  H   H648      1.0  0.24734  0.48539  0.49015  1.0000
  Fe  Fe64      1.0  0.10491  0.51173  0.64924  1.0000
  S   S121      1.0  0.13803  0.49268  0.63950  1.0000
  S   S122      1.0  0.12708  0.56344  0.65127  1.0000
  Fe  Fe65      1.0  0.09800  0.46225  0.62676  1.0000
  S   S123      1.0  0.11442  0.45871  0.60153  1.0000
  Fe  Fe66      1.0  0.11791  0.45622  0.65979  1.0000
  S   S124      1.0  0.14643  0.43814  0.67425  1.0000
  S   S125      1.0  0.06615  0.48404  0.63524  1.0000
  S   S126      1.0  0.08753  0.47715  0.67051  1.0000
  C   C376      1.0  0.07567  0.62672  0.64782  1.0000
  C   C377      1.0  0.10738  0.63864  0.65047  1.0000
  C   C378      1.0  0.12265  0.61884  0.65180  1.0000
  C   C379      1.0  0.10632  0.58700  0.65061  1.0000
  C   C380      1.0  0.07449  0.57499  0.64817  1.0000
  C   C381      1.0  0.05931  0.59483  0.64671  1.0000
  S   S127      1.0  0.27138  0.34258  0.50242  1.0000
  H   H649      1.0  0.14730  0.62832  0.65363  1.0000
  H   H650      1.0  0.06167  0.55052  0.64724  1.0000
  H   H651      1.0  0.03476  0.58545  0.64468  1.0000
  C   C382      1.0  0.20530  0.49392  0.71086  1.0000
  C   C383      1.0  0.19670  0.46213  0.71122  1.0000
  C   C384      1.0  0.17840  0.44529  0.70000  1.0000
  C   C385      1.0  0.16855  0.46003  0.68836  1.0000
  C   C386      1.0  0.17672  0.49172  0.68815  1.0000
  C   C387      1.0  0.19501  0.50858  0.69936  1.0000
  H   H652      1.0  0.20408  0.45050  0.72015  1.0000
  H   H653      1.0  0.17182  0.42067  0.70033  1.0000
  H   H654      1.0  0.16924  0.50332  0.67923  1.0000
  H   H655      1.0  0.20144  0.53316  0.69905  1.0000
  H   H656      1.0  0.08572  0.52743  0.57226  1.0000
  H   H657      1.0  0.42230  0.39875  0.71002  1.0000
  H   H658      1.0  0.41505  0.34267  0.69949  1.0000
  H   H659      1.0  0.03703  0.40663  0.68784  1.0000
  C   C388      1.0  0.38951  0.48517  0.68759  1.0000
  C   C389      1.0  0.37516  0.45295  0.69096  1.0000
  C   C390      1.0  0.35366  0.43930  0.70443  1.0000
  C   C391      1.0  0.34653  0.45773  0.71462  1.0000
  C   C392      1.0  0.36090  0.48987  0.71122  1.0000
  C   C393      1.0  0.38206  0.50348  0.69770  1.0000
  H   H660      1.0  0.38032  0.43861  0.68308  1.0000
  H   H661      1.0  0.34229  0.41436  0.70690  1.0000
  H   H662      1.0  0.35596  0.50435  0.71905  1.0000
  H   H663      1.0  0.39295  0.52841  0.69512  1.0000
  H   H664      1.0  0.06400  0.33640  0.54703  1.0000
  H   H665      1.0  0.08188  0.48528  0.70342  1.0000
  H   H666      1.0  0.99096  0.34291  0.56028  1.0000
  H   H667      1.0  0.33750  0.45684  0.54138  1.0000
  H   H668      1.0  0.11749  0.52027  0.60944  1.0000
  C   C394      1.0  0.06608  0.48080  0.49524  1.0000
  S   S128      1.0  0.99994  0.42184  0.66618  1.0000
  H   H669      1.0  0.17487  0.53693  0.60907  1.0000
  H   H670      1.0  0.44448  0.38765  0.67971  1.0000
  C   C395      1.0  0.01346  0.39943  0.69357  1.0000
  C   C396      1.0  0.19949  0.36771  0.49650  1.0000
  C   C397      1.0  0.07490  0.42931  0.55481  1.0000
  C   C398      1.0  0.05466  0.42916  0.56769  1.0000
  C   C399      1.0  0.06597  0.43717  0.58220  1.0000
  C   C400      1.0  0.09789  0.44596  0.58395  1.0000
  C   C401      1.0  0.11800  0.44589  0.57109  1.0000
  C   C402      1.0  0.10661  0.43741  0.55667  1.0000
  H   H671      1.0  0.03008  0.42294  0.56643  1.0000
  H   H672      1.0  0.05015  0.43707  0.59193  1.0000
  H   H673      1.0  0.14270  0.45257  0.57228  1.0000
  H   H674      1.0  0.12253  0.43766  0.54694  1.0000
  H   H675      1.0  0.06566  0.45885  0.49179  1.0000
  Fe  Fe67      1.0  0.48717  0.45027  0.65822  1.0000
  C   C403      1.0  0.45004  0.45695  0.70158  1.0000
  H   H676      1.0  0.36220  0.56659  0.49670  1.0000
  C   C404      1.0  0.26233  0.39655  0.50307  1.0000
  C   C405      1.0  0.10213  0.49308  0.71050  1.0000
  C   C406      1.0  0.40991  0.42566  0.56042  1.0000
  C   C407      1.0  0.40127  0.39655  0.56858  1.0000
  C   C408      1.0  0.40756  0.39412  0.58420  1.0000
  C   C409      1.0  0.42261  0.42065  0.59188  1.0000
  C   C410      1.0  0.43147  0.44979  0.58367  1.0000
  C   C411      1.0  0.42513  0.45223  0.56805  1.0000
  H   H677      1.0  0.44303  0.47041  0.58938  1.0000
  H   H678      1.0  0.09108  0.49807  0.49303  1.0000
  H   H679      1.0  0.05473  0.43642  0.71563  1.0000
  N   N31       1.0  0.36726  0.50092  0.51461  1.0000
  C   C412      1.0  0.37748  0.53170  0.50502  1.0000
  C   C413      1.0  0.39328  0.49014  0.51320  1.0000
  C   C414      1.0  0.33671  0.47651  0.51050  1.0000
  C   C415      1.0  0.35275  0.54512  0.50495  1.0000
  H   H680      1.0  0.11482  0.62018  0.59706  1.0000
  C   C416      1.0  0.09378  0.42646  0.70923  1.0000
  H   H681      1.0  0.01199  0.34863  0.67201  1.0000
  H   H682      1.0  0.39917  0.54931  0.50903  1.0000
  H   H683      1.0  0.41251  0.50344  0.52023  1.0000
  H   H684      1.0  0.38443  0.46562  0.51821  1.0000
  H   H685      1.0  0.33230  0.45334  0.51625  1.0000
  H   H686      1.0  0.31601  0.48015  0.51532  1.0000
  S   S129      1.0  0.32030  0.43993  0.73168  1.0000
  C   C417      1.0  0.00517  0.38399  0.70875  1.0000
  Fe  Fe68      1.0  0.07039  0.35737  0.49406  1.0000
  H   H687      1.0  0.04265  0.48516  0.72194  1.0000
  H   H688      1.0  0.10932  0.61918  0.61765  1.0000
  C   C418      1.0  0.21764  0.35064  0.49807  1.0000
  H   H689      1.0  0.08641  0.50013  0.58762  1.0000
  H   H690      1.0  0.46385  0.43593  0.51325  1.0000
  H   H691      1.0  0.05912  0.47875  0.50792  1.0000
  N   N32       1.0  0.27662  0.47204  0.68357  1.0000
  C   C419      1.0  0.25507  0.43896  0.68972  1.0000
  C   C420      1.0  0.25917  0.48340  0.67263  1.0000
  C   C421      1.0  0.28408  0.49124  0.69719  1.0000
  C   C422      1.0  0.30614  0.47204  0.67544  1.0000
  C   C423      1.0  0.26609  0.42428  0.70309  1.0000
  C   C424      1.0  0.24681  0.46409  0.65901  1.0000
  C   C425      1.0  0.29088  0.52581  0.69403  1.0000
  C   C426      1.0  0.33096  0.50326  0.66742  1.0000
  H   H692      1.0  0.23138  0.43700  0.69397  1.0000
  H   H693      1.0  0.25129  0.42337  0.68035  1.0000
  H   H694      1.0  0.27387  0.50745  0.66735  1.0000
  H   H695      1.0  0.23835  0.48434  0.67921  1.0000
  H   H696      1.0  0.26400  0.48185  0.70659  1.0000
  H   H697      1.0  0.30432  0.49000  0.70264  1.0000
  H   H698      1.0  0.31864  0.46386  0.68377  1.0000
  H   H699      1.0  0.30021  0.45540  0.66652  1.0000
  H   H700      1.0  0.26912  0.43701  0.71352  1.0000
  H   H701      1.0  0.24775  0.40047  0.70681  1.0000
  H   H702      1.0  0.28803  0.42202  0.69942  1.0000
  H   H703      1.0  0.22741  0.44108  0.66312  1.0000
  H   H704      1.0  0.23649  0.47617  0.65136  1.0000
  H   H705      1.0  0.26579  0.46153  0.65174  1.0000
  H   H706      1.0  0.26891  0.52845  0.69224  1.0000
  H   H707      1.0  0.30861  0.53826  0.68398  1.0000
  H   H708      1.0  0.29979  0.53771  0.70441  1.0000
  H   H709      1.0  0.32160  0.51357  0.65840  1.0000
  H   H710      1.0  0.35063  0.49949  0.66143  1.0000
  H   H711      1.0  0.34149  0.51974  0.67600  1.0000
  C   C427      1.0  0.47699  0.37243  0.51966  1.0000
  C   C428      1.0  0.45698  0.38030  0.68790  1.0000
  Fe  Fe69      1.0  0.37359  0.33489  0.50960  1.0000
  C   C429      1.0  0.24922  0.36496  0.50125  1.0000
  H   H712      1.0  0.08921  0.53231  0.71052  1.0000
  H   H713      1.0  0.40056  0.37146  0.59041  1.0000
  H   H714      1.0  0.34780  0.55175  0.51651  1.0000
  C   C430      1.0  0.10975  0.52727  0.71264  1.0000
  H   H715      1.0  0.11700  0.59122  0.57726  1.0000
  H   H716      1.0  0.04939  0.51466  0.48990  1.0000
  H   H717      1.0  0.00463  0.48223  0.50935  1.0000
  C   C431      1.0  0.35670  0.47892  0.54368  1.0000
  C   C432      1.0  0.40546  0.39940  0.71941  1.0000
  N   N33       1.0  0.09441  0.47085  0.72504  1.0000
  C   C433      1.0  0.24421  0.41366  0.50145  1.0000
  H   H718      1.0  0.34144  0.51158  0.53344  1.0000
  C   C434      1.0  0.44037  0.35487  0.69913  1.0000
  C   C435      1.0  0.48907  0.36063  0.70912  1.0000
  C   C436      1.0  0.99835  0.43463  0.51202  1.0000
  S   S130      1.0  0.34166  0.34494  0.52696  1.0000
  C   C437      1.0  0.36217  0.50614  0.53141  1.0000
  C   C438      1.0  0.40965  0.49258  0.49674  1.0000
  H   H719      1.0  0.28643  0.40772  0.50568  1.0000
  C   C439      1.0  0.45628  0.34507  0.70984  1.0000
  H   H720      1.0  0.43315  0.44242  0.69391  1.0000
  H   H721      1.0  0.02236  0.37924  0.71470  1.0000
  Fe  Fe70      1.0  0.38989  0.39470  0.48811  1.0000
  H   H722      1.0  0.37860  0.47574  0.54463  1.0000
  H   H723      1.0  0.45003  0.47614  0.72337  1.0000
  H   H724      1.0  0.47376  0.39902  0.49905  1.0000
  H   H725      1.0  0.13352  0.56569  0.57279  1.0000
  C   C440      1.0  0.43326  0.45670  0.71762  1.0000
  H   H726      1.0  0.10649  0.56566  0.62124  1.0000
  H   H727      1.0  0.18384  0.59802  0.57748  1.0000
  H   H728      1.0  0.16053  0.55852  0.62077  1.0000
  H   H729      1.0  0.25255  0.57257  0.49137  1.0000
  H   H730      1.0  0.38623  0.40117  0.71320  1.0000
  H   H731      1.0  0.34993  0.48422  0.55530  1.0000
  H   H732      1.0  0.33051  0.52904  0.50086  1.0000
  H   H733      1.0  0.17166  0.61756  0.59192  1.0000
  H   H734      1.0  0.25892  0.53788  0.49458  1.0000
  C   C441      1.0  0.99559  0.46191  0.50254  1.0000
  H   H735      1.0  0.18265  0.57552  0.60194  1.0000
  C   C442      1.0  0.12397  0.47207  0.73135  1.0000
  H   H736      1.0  0.13837  0.53028  0.59055  1.0000
  H   H737      1.0  0.01757  0.42880  0.50759  1.0000
  H   H738      1.0  0.07723  0.40378  0.70596  1.0000
  Fe  Fe71      1.0  0.32371  0.35916  0.50555  1.0000
  H   H739      1.0  0.00278  0.44045  0.52408  1.0000
  S   S131      1.0  0.22839  0.51609  0.72462  1.0000
  H   H740      1.0  0.17039  0.51979  0.49116  1.0000
  H   H741      1.0  0.16869  0.62589  0.57224  1.0000
  H   H742      1.0  0.11290  0.42232  0.71426  1.0000
  S   S132      1.0  0.05139  0.39287  0.49593  1.0000
  C   C443      1.0  0.33341  0.47231  0.49313  1.0000
  H   H743      1.0  0.38467  0.53075  0.49272  1.0000
  H   H744      1.0  0.07839  0.59266  0.60829  1.0000
  H   H745      1.0  0.38273  0.52655  0.53451  1.0000
  S   S133      1.0  0.45811  0.49878  0.63101  1.0000
  H   H746      1.0  0.12226  0.49285  0.70299  1.0000
  H   H747      1.0  0.42465  0.47972  0.49724  1.0000
  H   H748      1.0  0.45774  0.37373  0.52730  1.0000
  N   N34       1.0  0.11797  0.56163  0.59726  1.0000
  C   C444      1.0  0.08360  0.54165  0.59599  1.0000
  C   C445      1.0  0.11896  0.58106  0.61040  1.0000
  C   C446      1.0  0.13358  0.54041  0.60110  1.0000
  C   C447      1.0  0.13236  0.58077  0.58182  1.0000
  C   C448      1.0  0.07678  0.51701  0.58443  1.0000
  C   C449      1.0  0.10441  0.60439  0.60793  1.0000
  C   C450      1.0  0.16470  0.55418  0.60856  1.0000
  C   C451      1.0  0.16604  0.60669  0.58103  1.0000
  H   H749      1.0  0.07123  0.52911  0.60755  1.0000
  H   H750      1.0  0.07118  0.55598  0.59238  1.0000
  H   H751      1.0  0.14320  0.59453  0.61332  1.0000
  H   H752      1.0  0.17535  0.35639  0.49391  1.0000
  H   H753      1.0  0.13923  0.46781  0.72230  1.0000
  H   H754      1.0  0.10302  0.44226  0.69833  1.0000
  H   H755      1.0  0.47302  0.47294  0.53188  1.0000
  H   H756      1.0  0.46950  0.44981  0.70227  1.0000
  H   H757      1.0  0.06778  0.42134  0.73158  1.0000
  C   C452      1.0  0.07621  0.43833  0.72094  1.0000
  H   H758      1.0  0.99017  0.36456  0.53651  1.0000
  H   H759      1.0  0.21257  0.50513  0.49035  1.0000
  H   H760      1.0  0.47141  0.42149  0.53119  1.0000
  H   H761      1.0  0.46606  0.40737  0.71896  1.0000
  H   H762      1.0  0.29038  0.57369  0.48695  1.0000
  H   H763      1.0  0.46592  0.35054  0.51425  1.0000
  H   H764      1.0  0.11776  0.53492  0.72391  1.0000
  H   H765      1.0  0.42555  0.51693  0.49238  1.0000
  H   H766      1.0  0.03676  0.35609  0.52968  1.0000
  H   H767      1.0  0.15755  0.52113  0.72749  1.0000
  C   C453      1.0  0.01290  0.33929  0.55986  1.0000
  H   H768      1.0  0.02489  0.44776  0.73344  1.0000
  C   C454      1.0  0.99096  0.40473  0.68567  1.0000
  H   H769      1.0  0.41035  0.36290  0.73455  1.0000
  C   C455      1.0  0.04127  0.47255  0.73338  1.0000
  C   C456      1.0  0.47276  0.42118  0.72886  1.0000
  H   H770      1.0  0.30836  0.46450  0.49114  1.0000
  H   H771      1.0  0.34105  0.45454  0.48942  1.0000
  H   H772      1.0  0.12022  0.66316  0.65130  1.0000
  H   H773      1.0  0.39307  0.48228  0.48815  1.0000
  H   H774      1.0  0.38191  0.34915  0.72112  1.0000
  H   H775      1.0  0.37276  0.42346  0.73370  1.0000
  C   C457      1.0  0.39185  0.36738  0.72902  1.0000
  H   H776      1.0  0.48592  0.34359  0.65148  1.0000
  H   H777      1.0  0.18863  0.66734  0.48694  1.0000
  C   C458      1.0  0.26484  0.55901  0.48663  1.0000
  Fe  Fe72      1.0  0.21484  0.39441  0.91840  1.0000
  H   H778      1.0  0.31497  0.49806  0.80334  1.0000
  S   S134      1.0  0.24052  0.42601  0.93626  1.0000
  Fe  Fe73      1.0  0.22021  0.38966  0.88285  1.0000
  H   H779      1.0  0.08550  0.49963  0.74152  1.0000
  S   S135      1.0  0.25386  0.41211  0.86072  1.0000
  H   H780      1.0  0.28878  0.37767  0.87599  1.0000
  C   C459      1.0  0.31890  0.63241  0.90167  1.0000
  H   H781      1.0  0.35029  0.51551  0.81215  1.0000
  H   H782      1.0  0.33283  0.54759  0.82616  1.0000
  S   S136      1.0  0.19517  0.41013  0.89836  1.0000
  S   S137      1.0  0.24353  0.37823  0.90256  1.0000
  H   H783      1.0  0.21684  0.49264  0.81844  1.0000
  Fe  Fe74      1.0  0.25059  0.46147  0.77234  1.0000
  S   S138      1.0  0.25530  0.50974  0.76610  1.0000
  S   S139      1.0  0.21581  0.43383  0.79339  1.0000
  S   S140      1.0  0.30652  0.51558  0.73678  1.0000
  Fe  Fe75      1.0  0.30705  0.52256  0.76217  1.0000
  S   S141      1.0  0.34514  0.56224  0.77193  1.0000
  S   S142      1.0  0.24477  0.44885  0.74773  1.0000
  S   S143      1.0  0.30259  0.47485  0.76981  1.0000
  C   C460      1.0  0.33677  0.59124  0.78003  1.0000
  H   H784      1.0  0.27825  0.61504  0.78617  1.0000
  C   C461      1.0  0.30760  0.59231  0.77924  1.0000
  H   H785      1.0  0.16488  0.49902  0.74262  1.0000
  H   H786      1.0  0.29015  0.57604  0.77292  1.0000
  C   C462      1.0  0.24231  0.41621  0.84202  1.0000
  C   C463      1.0  0.21140  0.41115  0.83987  1.0000
  C   C464      1.0  0.20362  0.41634  0.82487  1.0000
  C   C465      1.0  0.22663  0.42674  0.81192  1.0000
  C   C466      1.0  0.25745  0.43129  0.81404  1.0000
  C   C467      1.0  0.26519  0.42592  0.82902  1.0000
  H   H787      1.0  0.19358  0.40364  0.84978  1.0000
  H   H788      1.0  0.17969  0.41260  0.82332  1.0000
  H   H789      1.0  0.27526  0.43893  0.80413  1.0000
  H   H790      1.0  0.28914  0.42975  0.83058  1.0000
  C   C468      1.0  0.22857  0.41777  0.95654  1.0000
  C   C469      1.0  0.20160  0.39148  0.96269  1.0000
  H   H791      1.0  0.32482  0.35017  0.85513  1.0000
  C   C470      1.0  0.24724  0.43749  0.96677  1.0000
  H   H792      1.0  0.18684  0.37634  0.95495  1.0000
  H   H793      1.0  0.48184  0.40813  0.73668  1.0000
  H   H794      1.0  0.26816  0.45787  0.96210  1.0000
  H   H795      1.0  0.24419  0.50314  0.83881  1.0000
  N   N35       1.0  0.28364  0.52952  0.82142  1.0000
  H   H796      1.0  0.22145  0.50216  0.79802  1.0000
  C   C471      1.0  0.26851  0.50573  0.83535  1.0000
  Fe  Fe76      1.0  0.15596  0.36173  0.90227  1.0000
  N   N36       1.0  0.33574  0.61774  0.92774  1.0000
  C   C472      1.0  0.26626  0.51672  0.80767  1.0000
  C   C473      1.0  0.31794  0.60685  0.91388  1.0000
  C   C474      1.0  0.33408  0.59040  0.93833  1.0000
  H   H797      1.0  0.22794  0.53233  0.81021  1.0000
  H   H798      1.0  0.38787  0.66373  0.94142  1.0000
  C   C475      1.0  0.30396  0.55979  0.93925  1.0000
  H   H799      1.0  0.30528  0.34164  0.82428  1.0000
  C   C476      1.0  0.30602  0.58303  0.83255  1.0000
  H   H800      1.0  0.29262  0.59186  0.91747  1.0000
  H   H801      1.0  0.32710  0.59211  0.90765  1.0000
  H   H802      1.0  0.35355  0.58388  0.93464  1.0000
  H   H803      1.0  0.33765  0.59653  0.95046  1.0000
  H   H804      1.0  0.39353  0.62851  0.94155  1.0000
  H   H805      1.0  0.13366  0.51018  0.74640  1.0000
  H   H806      1.0  0.17291  0.36420  0.98357  1.0000
  H   H807      1.0  0.26508  0.36586  0.84459  1.0000
  H   H808      1.0  0.30441  0.54343  0.94887  1.0000
  H   H809      1.0  0.30310  0.54851  0.92839  1.0000
  H   H810      1.0  0.28192  0.56258  0.94160  1.0000
  C   C477      1.0  0.23120  0.51090  0.80892  1.0000
  H   H811      1.0  0.11795  0.45332  0.74106  1.0000
  H   H812      1.0  0.30808  0.39474  0.85664  1.0000
  H   H813      1.0  0.37874  0.62463  0.91364  1.0000
  C   C478      1.0  0.28497  0.51156  0.85034  1.0000
  H   H814      1.0  0.28983  0.34384  0.93448  1.0000
  C   C479      1.0  0.29552  0.38912  0.93884  1.0000
  H   H815      1.0  0.41725  0.66158  0.92812  1.0000
  H   H816      1.0  0.33021  0.39070  0.87182  1.0000
  H   H817      1.0  0.30349  0.62144  0.89263  1.0000
  C   C480      1.0  0.30742  0.37930  0.86691  1.0000
  H   H818      1.0  0.27057  0.33614  0.90651  1.0000
  C   C481      1.0  0.36987  0.63727  0.92164  1.0000
  H   H819      1.0  0.32899  0.59403  0.82515  1.0000
  H   H820      1.0  0.38100  0.45318  0.75618  1.0000
  C   C482      1.0  0.23648  0.33938  0.98382  1.0000
  S   S144      1.0  0.10612  0.35797  0.90227  1.0000
  C   C483      1.0  0.30340  0.34709  0.86277  1.0000
  H   H821      1.0  0.27724  0.38956  0.93158  1.0000
  C   C484      1.0  0.44505  0.42470  0.73781  1.0000
  H   H822      1.0  0.31825  0.39968  0.93123  1.0000
  C   C485      1.0  0.07397  0.47631  0.73764  1.0000
  H   H823      1.0  0.03053  0.48199  0.74229  1.0000
  C   C486      1.0  0.39402  0.42709  0.73969  1.0000
  Fe  Fe77      1.0  0.29775  0.46676  0.74463  1.0000
  C   C487      1.0  0.28869  0.62337  0.94245  1.0000
  H   H824      1.0  0.30905  0.57311  0.84386  1.0000
  H   H825      1.0  0.29340  0.37157  0.81882  1.0000
  Fe  Fe78      1.0  0.25386  0.49832  0.74131  1.0000
  C   C488      1.0  0.25944  0.35636  0.96912  1.0000
  H   H826      1.0  0.32947  0.65980  0.92953  1.0000
  H   H827      1.0  0.37224  0.36422  0.73789  1.0000
  C   C489      1.0  0.32438  0.50789  0.81409  1.0000
  H   H828      1.0  0.29905  0.60207  0.83484  1.0000
  S   S145      1.0  0.31331  0.66157  0.80517  1.0000
  C   C490      1.0  0.19369  0.38474  0.97891  1.0000
  H   H829      1.0  0.32755  0.55301  0.80658  1.0000
  H   H830      1.0  0.26458  0.48221  0.83247  1.0000
  H   H831      1.0  0.28113  0.57198  0.81270  1.0000
  C   C491      1.0  0.31774  0.53612  0.81717  1.0000
  H   H832      1.0  0.04092  0.34473  0.90276  1.0000
  H   H833      1.0  0.27675  0.52553  0.85765  1.0000
  H   H834      1.0  0.28222  0.60323  0.95124  1.0000
  C   C492      1.0  0.40177  0.45668  0.74794  1.0000
  H   H835      1.0  0.31094  0.52250  0.84830  1.0000
  H   H836      1.0  0.25734  0.55415  0.83051  1.0000
  H   H837      1.0  0.27365  0.61713  0.93283  1.0000
  H   H838      1.0  0.06990  0.46011  0.74829  1.0000
  H   H839      1.0  0.30982  0.64815  0.90677  1.0000
  H   H840      1.0  0.42201  0.46180  0.75481  1.0000
  H   H841      1.0  0.27905  0.48887  0.85712  1.0000
  H   H842      1.0  0.31526  0.48976  0.82413  1.0000
  C   C493      1.0  0.27055  0.34637  0.84134  1.0000
  H   H843      1.0  0.27819  0.53244  0.79682  1.0000
  H   H844      1.0  0.43468  0.40566  0.74751  1.0000
  C   C494      1.0  0.28059  0.55918  0.82402  1.0000
  H   H845      1.0  0.45598  0.44573  0.74392  1.0000
  C   C495      1.0  0.32403  0.63762  0.93664  1.0000
  H   H846      1.0  0.26649  0.49415  0.80555  1.0000
  C   C496      1.0  0.28923  0.35575  0.94500  1.0000
  H   H847      1.0  0.38200  0.61207  0.78876  1.0000
  S   S146      1.0  0.17417  0.34751  0.92332  1.0000
  C   C497      1.0  0.32333  0.63558  0.79506  1.0000
  H   H848      1.0  0.37010  0.65108  0.80202  1.0000
  C   C498      1.0  0.39303  0.64800  0.93407  1.0000
  C   C499      1.0  0.35269  0.63486  0.79564  1.0000
  C   C500      1.0  0.30095  0.61448  0.78671  1.0000
  H   H849      1.0  0.34282  0.64601  0.89546  1.0000
  H   H850      1.0  0.32023  0.37761  0.83309  1.0000
  H   H851      1.0  0.38613  0.40760  0.74910  1.0000
  C   C501      1.0  0.35937  0.61276  0.78812  1.0000
  H   H852      1.0  0.24320  0.34268  0.86976  1.0000
  C   C502      1.0  0.29925  0.35984  0.82881  1.0000
  H   H853      1.0  0.37274  0.65886  0.91465  1.0000
  H   H854      1.0  0.29766  0.40418  0.94829  1.0000
  S   S147      1.0  0.31496  0.61842  0.98102  1.0000
  H   H855      1.0  0.28337  0.36646  0.97313  1.0000
  S   S148      1.0  0.17982  0.34242  0.88533  1.0000
  H   H856      1.0  0.31007  0.35726  0.95090  1.0000
  N   N37       1.0  0.25905  0.33777  0.95564  1.0000
  C   C503      1.0  0.23916  0.43090  0.98302  1.0000
  H   H857      1.0  0.25446  0.37645  0.96544  1.0000
  H   H858      1.0  0.23048  0.35638  0.94395  1.0000
  H   H859      1.0  0.28342  0.64083  0.94840  1.0000
  H   H860      1.0  0.40594  0.47711  0.73967  1.0000
  H   H861      1.0  0.33648  0.64419  0.94716  1.0000
  C   C504      1.0  0.14569  0.50259  0.73725  1.0000
  H   H862      1.0  0.46143  0.97500  0.19000  1.0000
  S   S149      1.0  0.35801  0.69939  0.99926  1.0000
  H   H863      1.0  0.41385  0.73529  0.04345  1.0000
  H   H864      1.0  0.40441  0.81328  0.05660  1.0000
  S   S150      1.0  0.04123  0.72544  0.19861  1.0000
  C   C505      1.0  0.42703  0.78430  0.03840  1.0000
  C   C506      1.0  0.03884  0.74193  0.10033  1.0000
  Fe  Fe79      1.0  0.06698  0.68351  0.14906  1.0000
  S   S151      1.0  0.11022  0.69722  0.13151  1.0000
  S   S152      1.0  0.03830  0.70980  0.15467  1.0000
  Fe  Fe80      1.0  0.20649  0.82917  0.06576  1.0000
  S   S153      1.0  0.24842  0.82279  0.07304  1.0000
  S   S154      1.0  0.16207  0.81652  0.08223  1.0000
  Fe  Fe81      1.0  0.23967  0.86076  0.03344  1.0000
  S   S155      1.0  0.28416  0.85639  0.03827  1.0000
  S   S156      1.0  0.23842  0.89000  0.01180  1.0000
  Fe  Fe82      1.0  0.25190  0.80848  0.04908  1.0000
  S   S157      1.0  0.26338  0.76728  0.04747  1.0000
  Fe  Fe83      1.0  0.27727  0.87128  0.06182  1.0000
  S   S158      1.0  0.32137  0.90434  0.07140  1.0000
  S   S159      1.0  0.20756  0.81127  0.04244  1.0000
  S   S160      1.0  0.23510  0.87915  0.05636  1.0000
  C   C507      1.0  0.12474  0.73082  0.11812  1.0000
  C   C508      1.0  0.11352  0.75358  0.11923  1.0000
  C   C509      1.0  0.12524  0.77978  0.10815  1.0000
  C   C510      1.0  0.14833  0.78350  0.09597  1.0000
  C   C511      1.0  0.16008  0.76111  0.09506  1.0000
  C   C512      1.0  0.14825  0.73483  0.10609  1.0000
  H   H865      1.0  0.09582  0.75097  0.12862  1.0000
  H   H866      1.0  0.11640  0.79728  0.10904  1.0000
  H   H867      1.0  0.17803  0.76386  0.08577  1.0000
  H   H868      1.0  0.15722  0.71742  0.10523  1.0000
  C   C513      1.0  0.32003  0.95227  0.11541  1.0000
  C   C514      1.0  0.34709  0.94925  0.10967  1.0000
  C   C515      1.0  0.34725  0.93484  0.09607  1.0000
  C   C516      1.0  0.32032  0.92308  0.08816  1.0000
  C   C517      1.0  0.29346  0.92666  0.09370  1.0000
  C   C518      1.0  0.29328  0.94110  0.10733  1.0000
  S   S161      1.0  0.45798  0.97762  0.15178  1.0000
  H   H869      1.0  0.27292  0.91838  0.08743  1.0000
  H   H870      1.0  0.27243  0.94380  0.11158  1.0000
  C   C519      1.0  0.31367  0.76560  0.00078  1.0000
  C   C520      1.0  0.29735  0.78418  0.00201  1.0000
  C   C521      1.0  0.28205  0.78504  0.01634  1.0000
  C   C522      1.0  0.28217  0.76643  0.02943  1.0000
  C   C523      1.0  0.29764  0.74700  0.02814  1.0000
  C   C524      1.0  0.31399  0.74710  0.01390  1.0000
  H   H871      1.0  0.35571  0.98356  0.20508  1.0000
  H   H872      1.0  0.26971  0.79969  0.01723  1.0000
  H   H873      1.0  0.29758  0.73247  0.03828  1.0000
  H   H874      1.0  0.32669  0.73289  0.01310  1.0000
  S   S162      1.0  0.31889  0.97010  0.13250  1.0000
  H   H875      1.0  0.22474  0.68614  0.99661  1.0000
  H   H876      1.0  0.29133  0.87429  0.99919  1.0000
  H   H877      1.0  0.09066  0.77421  0.07929  1.0000
  H   H878      1.0  0.21778  0.83006  0.99932  1.0000
  H   H879      1.0  0.48761  0.87219  0.03813  1.0000
  C   C525      1.0  0.04276  0.71810  0.21890  1.0000
  H   H880      1.0  0.25072  0.93699  0.23186  1.0000
  N   N38       1.0  0.03942  0.71400  0.09341  1.0000
  C   C526      1.0  0.35649  0.99667  0.21487  1.0000
  C   C527      1.0  0.08209  0.75414  0.07236  1.0000
  H   H881      1.0  0.48100  0.83328  0.04340  1.0000
  H   H882      1.0  0.43597  0.78859  0.04996  1.0000
  Fe  Fe84      1.0  0.03530  0.69206  0.17993  1.0000
  H   H883      1.0  0.01673  0.71713  0.06062  1.0000
  C   C528      1.0  0.39389  0.82586  0.00950  1.0000
  H   H884      1.0  0.45618  0.84930  0.05290  1.0000
  C   C529      1.0  0.34684  0.98146  0.23011  1.0000
  C   C530      1.0  0.45289  0.99362  0.22578  1.0000
  C   C531      1.0  0.40208  0.75048  0.04030  1.0000
  H   H885      1.0  0.44711  0.78511  0.03049  1.0000
  H   H886      1.0  0.37990  0.81604  0.99981  1.0000
  C   C532      1.0  0.36045  0.79162  0.04665  1.0000
  H   H887      1.0  0.36777  0.95759  0.11584  1.0000
  H   H888      1.0  0.01085  0.75850  0.11494  1.0000
  H   H889      1.0  0.38044  0.77942  0.01928  1.0000
  C   C533      1.0  0.34796  0.00001  0.06385  1.0000
  H   H890      1.0  0.33252  0.99453  0.08786  1.0000
  H   H891      1.0  0.41838  0.79638  0.00910  1.0000
  H   H892      1.0  0.05408  0.76534  0.22307  1.0000
  H   H893      1.0  0.38360  0.74612  0.05002  1.0000
  H   H894      1.0  0.39684  0.83765  0.04276  1.0000
  H   H895      1.0  0.10284  0.75642  0.06446  1.0000
  N   N39       1.0  0.41711  0.80903  0.03259  1.0000
  H   H896      1.0  0.35919  0.98388  0.06580  1.0000
  C   C534      1.0  0.24837  0.68661  0.99390  1.0000
  H   H897      1.0  0.35113  0.78643  0.05917  1.0000
  H   H898      1.0  0.00824  0.72194  0.12243  1.0000
  H   H899      1.0  0.09380  0.81285  0.98668  1.0000
  C   C535      1.0  0.06972  0.72320  0.08288  1.0000
  H   H900      1.0  0.05727  0.70338  0.11440  1.0000
  N   N40       1.0  0.22937  0.83616  0.12857  1.0000
  C   C536      1.0  0.21203  0.81239  0.14234  1.0000
  C   C537      1.0  0.24757  0.86647  0.13492  1.0000
  C   C538      1.0  0.25186  0.82568  0.12006  1.0000
  C   C539      1.0  0.20522  0.83743  0.11829  1.0000
  C   C540      1.0  0.19422  0.77872  0.13855  1.0000
  C   C541      1.0  0.22754  0.88004  0.14387  1.0000
  C   C542      1.0  0.27943  0.85035  0.10906  1.0000
  C   C543      1.0  0.21557  0.86500  0.10559  1.0000
  H   H901      1.0  0.22854  0.81223  0.15093  1.0000
  H   H902      1.0  0.19401  0.81809  0.14870  1.0000
  H   H903      1.0  0.26289  0.88475  0.12565  1.0000
  H   H904      1.0  0.26434  0.86405  0.14280  1.0000
  H   H905      1.0  0.26302  0.81586  0.12850  1.0000
  H   H906      1.0  0.23902  0.80663  0.11296  1.0000
  H   H907      1.0  0.19617  0.81649  0.11201  1.0000
  H   H908      1.0  0.18364  0.83604  0.12523  1.0000
  H   H909      1.0  0.21029  0.76930  0.13343  1.0000
  H   H910      1.0  0.18175  0.76364  0.14948  1.0000
  H   H911      1.0  0.17593  0.77651  0.13075  1.0000
  H   H912      1.0  0.21644  0.86644  0.15529  1.0000
  H   H913      1.0  0.24323  0.90384  0.14632  1.0000
  H   H914      1.0  0.20927  0.88201  0.13704  1.0000
  H   H915      1.0  0.27143  0.86272  0.10047  1.0000
  H   H916      1.0  0.29183  0.83890  0.10237  1.0000
  H   H917      1.0  0.29722  0.86722  0.11557  1.0000
  H   H918      1.0  0.23229  0.88715  0.10904  1.0000
  H   H919      1.0  0.19464  0.86913  0.10315  1.0000
  Fe  Fe85      1.0  0.36441  0.99852  0.14251  1.0000
  H   H920      1.0  0.00950  0.74083  0.07445  1.0000
  H   H921      1.0  0.06760  0.70494  0.07511  1.0000
  C   C544      1.0  0.47345  0.75774  0.01044  1.0000
  C   C545      1.0  0.00944  0.73602  0.11151  1.0000
  H   H922      1.0  0.04109  0.76047  0.09131  1.0000
  H   H923      1.0  0.42756  0.95318  0.20412  1.0000
  C   C546      1.0  0.03697  0.68871  0.22588  1.0000
  H   H924      1.0  0.05963  0.75271  0.10683  1.0000
  C   C547      1.0  0.47645  0.78444  0.00146  1.0000
  H   H925      1.0  0.22512  0.86004  0.09456  1.0000
  H   H926      1.0  0.42263  0.96517  0.18501  1.0000
  H   H927      1.0  0.36818  0.93228  0.09181  1.0000
  H   H928      1.0  0.46116  0.83758  0.01830  1.0000
  C   C548      1.0  0.43774  0.97239  0.19461  1.0000
  C   C549      1.0  0.00414  0.71689  0.07201  1.0000
  C   C550      1.0  0.46875  0.84856  0.04172  1.0000
  H   H929      1.0  0.06451  0.75582  0.06501  1.0000
  S   S163      1.0  0.44387  0.72118  0.00810  1.0000
  S   S164      1.0  0.06782  0.66962  0.17425  1.0000
  Fe  Fe86      1.0  0.40945  0.71726  0.99059  1.0000
  H   H930      1.0  0.34667  0.80292  0.04118  1.0000
  H   H931      1.0  0.41528  0.84634  0.00423  1.0000
  H   H932      1.0  0.35480  0.76918  0.04210  1.0000
  H   H933      1.0  0.44088  0.85870  0.02573  1.0000
  C   C551      1.0  0.39587  0.81401  0.04499  1.0000
  H   H934      1.0  0.46124  0.78273  0.99247  1.0000
  H   H935      1.0  0.32407  0.98573  0.06062  1.0000
  C   C552      1.0  0.03883  0.69154  0.10671  1.0000
  H   H936      1.0  0.31904  0.85827  0.99693  1.0000
  C   C553      1.0  0.40237  0.80107  0.01763  1.0000
  C   C554      1.0  0.04939  0.74247  0.22835  1.0000
  H   H937      1.0  0.37934  0.83314  0.01748  1.0000
  H   H938      1.0  0.13131  0.81758  0.99225  1.0000
  C   C555      1.0  0.23162  0.87858  0.99292  1.0000
  C   C556      1.0  0.30016  0.86166  0.99124  1.0000
  C   C557      1.0  0.01111  0.69760  0.08492  1.0000
  H   H939      1.0  0.26419  0.70123  0.00182  1.0000
  H   H940      1.0  0.03191  0.66974  0.21880  1.0000
  S   S165      1.0  0.37871  0.98417  0.16493  1.0000
  H   H941      1.0  0.39180  0.74282  0.02939  1.0000
  H   H942      1.0  0.29633  0.79773  0.99182  1.0000
  H   H943      1.0  0.46067  0.97551  0.22257  1.0000
  H   H944      1.0  0.33890  0.95663  0.23196  1.0000
  C   C558      1.0  0.44670  0.83883  0.02877  1.0000
  H   H945      1.0  0.28009  0.83911  0.99046  1.0000
  H   H946      1.0  0.01611  0.68233  0.11434  1.0000
  H   H947      1.0  0.08938  0.72523  0.08987  1.0000
  H   H948      1.0  0.28814  0.67814  0.01374  1.0000
  H   H949      1.0  0.01323  0.67829  0.07922  1.0000
  H   H950      1.0  0.41320  0.99861  0.20311  1.0000
  H   H951      1.0  0.40163  0.96534  0.22529  1.0000
  C   C559      1.0  0.22196  0.84779  0.98987  1.0000
  C   C560      1.0  0.41854  0.97741  0.23351  1.0000
  H   H952      1.0  0.06644  0.66928  0.09510  1.0000
  Fe  Fe87      1.0  0.27705  0.96845  0.31308  1.0000
  S   S166      1.0  0.32357  0.96640  0.30670  1.0000
  S   S167      1.0  0.23748  0.92109  0.32284  1.0000
  Fe  Fe88      1.0  0.06453  0.78874  0.30742  1.0000
  S   S168      1.0  0.07669  0.74791  0.30892  1.0000
  S   S169      1.0  0.10024  0.83992  0.30299  1.0000
  Fe  Fe89      1.0  0.03533  0.72589  0.32781  1.0000
  Fe  Fe90      1.0  0.04176  0.72873  0.29153  1.0000
  S   S170      1.0  0.04519  0.70042  0.27185  1.0000
  S   S171      1.0  0.02442  0.76787  0.32693  1.0000
  S   S172      1.0  0.03236  0.77083  0.28862  1.0000
  C   C561      1.0  0.47448  0.97476  0.33325  1.0000
  S   S173      1.0  0.14737  0.80827  0.45949  1.0000
  Fe  Fe91      1.0  0.33172  0.69848  0.45904  1.0000
  S   S174      1.0  0.29756  0.68851  0.44106  1.0000
  S   S175      1.0  0.35200  0.74974  0.46583  1.0000
  H   H953      1.0  0.23547  0.71301  0.43186  1.0000
  S   S176      1.0  0.35606  0.69832  0.40572  1.0000
  H   H954      1.0  0.41055  0.69667  0.39028  1.0000
  Fe  Fe92      1.0  0.44986  0.83417  0.36466  1.0000
  S   S177      1.0  0.46225  0.87057  0.38154  1.0000
  S   S178      1.0  0.39453  0.80945  0.36222  1.0000
  H   H955      1.0  0.37420  0.68978  0.35451  1.0000
  C   C562      1.0  0.06972  0.70966  0.40752  1.0000
  H   H956      1.0  0.48073  0.70147  0.35570  1.0000
  H   H957      1.0  0.32844  0.78161  0.43442  1.0000
  S   S179      1.0  0.47613  0.80953  0.37580  1.0000
  H   H958      1.0  0.05481  0.69866  0.43831  1.0000
  S   S180      1.0  0.46856  0.98714  0.43171  1.0000
  H   H959      1.0  0.18849  0.75870  0.47594  1.0000
  S   S181      1.0  0.44334  0.89761  0.44715  1.0000
  C   C563      1.0  0.16198  0.74768  0.34749  1.0000
  H   H960      1.0  0.28739  0.82317  0.41741  1.0000
  H   H961      1.0  0.39249  0.87846  0.35414  1.0000
  H   H962      1.0  0.21661  0.88295  0.28650  1.0000
  H   H963      1.0  0.28199  0.78845  0.42845  1.0000
  S   S182      1.0  0.24201  0.71922  0.37296  1.0000
  H   H964      1.0  0.16191  0.72727  0.35450  1.0000
  C   C564      1.0  0.35265  0.78175  0.36412  1.0000
  C   C565      1.0  0.33015  0.79165  0.35904  1.0000
  C   C566      1.0  0.29718  0.77234  0.36162  1.0000
  C   C567      1.0  0.28499  0.74204  0.36931  1.0000
  C   C568      1.0  0.30742  0.73154  0.37397  1.0000
  C   C569      1.0  0.34065  0.75095  0.37126  1.0000
  H   H965      1.0  0.33820  0.81486  0.35332  1.0000
  H   H966      1.0  0.28086  0.78123  0.35775  1.0000
  H   H967      1.0  0.29922  0.70840  0.37983  1.0000
  H   H968      1.0  0.35688  0.74185  0.37487  1.0000
  C   C570      1.0  0.38944  0.73186  0.40901  1.0000
  C   C571      1.0  0.39338  0.76106  0.40259  1.0000
  C   C572      1.0  0.41964  0.78776  0.40505  1.0000
  C   C573      1.0  0.44242  0.78564  0.41398  1.0000
  C   C574      1.0  0.43876  0.75656  0.42045  1.0000
  C   C575      1.0  0.41257  0.72970  0.41775  1.0000
  H   H969      1.0  0.37599  0.76340  0.39589  1.0000
  H   H970      1.0  0.42218  0.81009  0.40004  1.0000
  H   H971      1.0  0.45658  0.75468  0.42712  1.0000
  H   H972      1.0  0.41079  0.70728  0.42213  1.0000
  C   C576      1.0  0.37870  0.79030  0.45965  1.0000
  C   C577      1.0  0.38070  0.81264  0.46984  1.0000
  C   C578      1.0  0.40017  0.84464  0.46575  1.0000
  C   C579      1.0  0.41851  0.85594  0.45123  1.0000
  C   C580      1.0  0.41671  0.83372  0.44089  1.0000
  C   C581      1.0  0.39723  0.80132  0.44511  1.0000
  H   H973      1.0  0.43046  0.84135  0.42961  1.0000
  H   H974      1.0  0.39658  0.78475  0.43710  1.0000
  C   C582      1.0  0.13884  0.77247  0.45158  1.0000
  C   C583      1.0  0.11688  0.74403  0.45919  1.0000
  C   C584      1.0  0.11120  0.71633  0.45245  1.0000
  C   C585      1.0  0.12736  0.71656  0.43806  1.0000
  C   C586      1.0  0.14930  0.74497  0.43044  1.0000
  C   C587      1.0  0.15490  0.77269  0.43715  1.0000
  H   H975      1.0  0.10435  0.74340  0.47028  1.0000
  H   H976      1.0  0.09424  0.69449  0.45849  1.0000
  H   H977      1.0  0.16183  0.74562  0.41935  1.0000
  H   H978      1.0  0.17186  0.79454  0.43113  1.0000
  C   C588      1.0  0.23586  0.69504  0.46309  1.0000
  S   S183      1.0  0.04455  0.70304  0.35028  1.0000
  H   H979      1.0  0.20590  0.72083  0.48520  1.0000
  C   C589      1.0  0.19330  0.69567  0.44886  1.0000
  H   H980      1.0  0.06890  0.67394  0.37272  1.0000
  C   C590      1.0  0.04422  0.70807  0.25152  1.0000
  H   H981      1.0  0.01646  0.71491  0.39675  1.0000
  C   C591      1.0  0.41542  0.74976  0.34700  1.0000
  C   C592      1.0  0.42567  0.73981  0.36213  1.0000
  C   C593      1.0  0.19885  0.89927  0.31759  1.0000
  C   C594      1.0  0.18307  0.86752  0.32295  1.0000
  C   C595      1.0  0.15276  0.84912  0.31884  1.0000
  C   C596      1.0  0.13774  0.86222  0.30930  1.0000
  C   C597      1.0  0.15331  0.89407  0.30413  1.0000
  C   C598      1.0  0.18360  0.91248  0.30823  1.0000
  H   H982      1.0  0.19438  0.85711  0.33037  1.0000
  H   H983      1.0  0.14082  0.82494  0.32316  1.0000
  H   H984      1.0  0.14182  0.90458  0.29689  1.0000
  H   H985      1.0  0.19507  0.93693  0.30422  1.0000
  H   H986      1.0  0.35694  0.86891  0.39219  1.0000
  H   H987      1.0  0.42485  0.77541  0.34551  1.0000
  H   H988      1.0  0.13817  0.77874  0.35014  1.0000
  C   C599      1.0  0.34031  0.81864  0.39758  1.0000
  N   N41       1.0  0.43046  0.92415  0.34735  1.0000
  N   N42       1.0  0.22879  0.90908  0.26340  1.0000
  C   C600      1.0  0.03782  0.68381  0.24206  1.0000
  C   C601      1.0  0.23477  0.90453  0.28007  1.0000
  C   C602      1.0  0.19579  0.90677  0.26318  1.0000
  C   C603      1.0  0.23435  0.88705  0.25322  1.0000
  C   C604      1.0  0.26711  0.90486  0.28249  1.0000
  H   H989      1.0  0.12664  0.67317  0.33621  1.0000
  H   H990      1.0  0.26977  0.97556  0.23676  1.0000
  H   H991      1.0  0.24887  0.95877  0.26471  1.0000
  S   S184      1.0  0.11496  0.86132  0.48123  1.0000
  H   H992      1.0  0.11401  0.73871  0.35760  1.0000
  H   H993      1.0  0.23301  0.92310  0.28663  1.0000
  H   H994      1.0  0.45794  0.98478  0.33015  1.0000
  C   C605      1.0  0.13826  0.75750  0.35607  1.0000
  H   H995      1.0  0.42504  0.74304  0.33656  1.0000
  H   H996      1.0  0.17642  0.70759  0.33215  1.0000
  H   H997      1.0  0.26697  0.89738  0.29494  1.0000
  C   C606      1.0  0.16148  0.77094  0.32148  1.0000
  N   N43       1.0  0.20425  0.69637  0.46483  1.0000
  C   C607      1.0  0.03419  0.68974  0.43156  1.0000
  Fe  Fe93      1.0  0.19216  0.67809  0.38279  1.0000
  H   H998      1.0  0.01493  0.69102  0.43933  1.0000
  H   H999      1.0  0.27287  0.88909  0.27544  1.0000
  H   H1000     1.0  0.22916  0.74724  0.31496  1.0000
  H   H1001     1.0  0.16702  0.85848  0.25911  1.0000
  H   H1002     1.0  0.45258  0.93222  0.32343  1.0000
  H   H1003     1.0  0.10219  0.72760  0.38661  1.0000
  H   H1004     1.0  0.08947  0.71596  0.41482  1.0000
  C   C608      1.0  0.41641  0.88933  0.34754  1.0000
  H   H1005     1.0  0.34424  0.82241  0.44677  1.0000
  H   H1006     1.0  0.45687  0.74462  0.38815  1.0000
  H   H1007     1.0  0.42733  0.66996  0.35503  1.0000
  H   H1008     1.0  0.43765  0.98317  0.46397  1.0000
  H   H1009     1.0  0.38456  0.92304  0.35379  1.0000
  H   H1010     1.0  0.17563  0.72146  0.31308  1.0000
  H   H1011     1.0  0.37248  0.91352  0.32868  1.0000
  H   H1012     1.0  0.17114  0.69856  0.44911  1.0000
  N   N44       1.0  0.04087  0.70964  0.41632  1.0000
  C   C609      1.0  0.04586  0.74188  0.41956  1.0000
  H   H1013     1.0  0.20820  0.84676  0.27166  1.0000
  H   H1014     1.0  0.34694  0.86050  0.44431  1.0000
  H   H1015     1.0  0.18737  0.67251  0.44464  1.0000
  H   H1016     1.0  0.31522  0.84748  0.39138  1.0000
  H   H1017     1.0  0.26009  0.89524  0.24965  1.0000
  H   H1018     1.0  0.09719  0.76282  0.42168  1.0000
  H   H1019     1.0  0.16958  0.86406  0.27955  1.0000
  C   C610      1.0  0.41248  0.97635  0.46822  1.0000
  H   H1020     1.0  0.02503  0.74127  0.42680  1.0000
  H   H1021     1.0  0.08816  0.67193  0.33843  1.0000
  H   H1022     1.0  0.18179  0.79130  0.32474  1.0000
  H   H1023     1.0  0.36127  0.79371  0.41999  1.0000
  C   C611      1.0  0.41827  0.91677  0.37740  1.0000
  C   C612      1.0  0.39355  0.93549  0.32927  1.0000
  C   C613      1.0  0.12393  0.71754  0.32971  1.0000
  H   H1024     1.0  0.40095  0.86084  0.47402  1.0000
  H   H1025     1.0  0.14081  0.77622  0.32411  1.0000
  C   C614      1.0  0.25146  0.94179  0.25717  1.0000
  H   H1026     1.0  0.46589  0.71416  0.39569  1.0000
  H   H1027     1.0  0.36692  0.80512  0.48112  1.0000
  Fe  Fe94      1.0  0.33039  0.67204  0.42873  1.0000
  C   C615      1.0  0.16851  0.87456  0.26798  1.0000
  H   H1028     1.0  0.22020  0.77580  0.32331  1.0000
  H   H1029     1.0  0.20420  0.72182  0.42600  1.0000
  H   H1030     1.0  0.16592  0.79302  0.29813  1.0000
  H   H1031     1.0  0.10634  0.72678  0.33274  1.0000
  C   C616      1.0  0.31985  0.75447  0.41562  1.0000
  C   C617      1.0  0.27197  0.78376  0.40461  1.0000
  H   H1032     1.0  0.32819  0.79884  0.39094  1.0000
  H   H1033     1.0  0.34322  0.84702  0.37627  1.0000
  H   H1034     1.0  0.33200  0.74041  0.41981  1.0000
  H   H1035     1.0  0.32232  0.75534  0.40283  1.0000
  H   H1036     1.0  0.27675  0.79793  0.39327  1.0000
  H   H1037     1.0  0.24667  0.77654  0.40864  1.0000
  H   H1038     1.0  0.27473  0.76243  0.40258  1.0000
  H   H1039     1.0  0.37036  0.84772  0.42049  1.0000
  H   H1040     1.0  0.36554  0.82246  0.39619  1.0000
  C   C618      1.0  0.42849  0.69924  0.38053  1.0000
  H   H1041     1.0  0.40164  0.88557  0.32369  1.0000
  C   C619      1.0  0.46853  0.71141  0.34805  1.0000
  H   H1042     1.0  0.45227  0.95734  0.36377  1.0000
  H   H1043     1.0  0.46232  0.92558  0.36445  1.0000
  C   C620      1.0  0.29221  0.80228  0.41694  1.0000
  H   H1044     1.0  0.36123  0.98334  0.48250  1.0000
  H   H1045     1.0  0.38941  0.74080  0.34753  1.0000
  H   H1046     1.0  0.07635  0.78348  0.42924  1.0000
  H   H1047     1.0  0.40857  0.89119  0.37833  1.0000
  H   H1048     1.0  0.29474  0.74203  0.42041  1.0000
  C   C621      1.0  0.16579  0.77127  0.30365  1.0000
  H   H1049     1.0  0.47977  0.73047  0.37597  1.0000
  H   H1050     1.0  0.22788  0.74333  0.44023  1.0000
  C   C622      1.0  0.41347  0.87609  0.33168  1.0000
  H   H1051     1.0  0.28619  0.92856  0.28011  1.0000
  H   H1052     1.0  0.18861  0.77101  0.29958  1.0000
  S   S185      1.0  0.14666  0.68518  0.38401  1.0000
  C   C623      1.0  0.08199  0.73103  0.39213  1.0000
  H   H1053     1.0  0.27615  0.94478  0.25732  1.0000
  N   N45       1.0  0.32728  0.81137  0.41452  1.0000
  C   C624      1.0  0.33529  0.78627  0.42165  1.0000
  C   C625      1.0  0.33857  0.84716  0.38900  1.0000
  H   H1054     1.0  0.09074  0.75581  0.39401  1.0000
  H   H1055     1.0  0.43691  0.87975  0.32602  1.0000
  C   C626      1.0  0.21521  0.75098  0.32487  1.0000
  S   S186      1.0  0.33860  0.97827  0.26200  1.0000
  H   H1056     1.0  0.25410  0.71651  0.45639  1.0000
  H   H1057     1.0  0.23471  0.67579  0.45624  1.0000
  C   C627      1.0  0.34430  0.83999  0.42251  1.0000
  H   H1058     1.0  0.33968  0.85964  0.41765  1.0000
  H   H1059     1.0  0.11415  0.68917  0.35240  1.0000
  H   H1060     1.0  0.30964  0.82873  0.44338  1.0000
  C   C628      1.0  0.40581  0.93619  0.34534  1.0000
  H   H1061     1.0  0.07231  0.74895  0.44010  1.0000
  C   C629      1.0  0.33537  0.83722  0.44023  1.0000
  H   H1062     1.0  0.43044  0.92402  0.38795  1.0000
  H   H1063     1.0  0.39908  0.92455  0.37777  1.0000
  H   H1064     1.0  0.40209  0.98015  0.43685  1.0000
  H   H1065     1.0  0.01349  0.67741  0.40080  1.0000
  H   H1066     1.0  0.41133  0.93920  0.31937  1.0000
  H   H1067     1.0  0.38665  0.95498  0.32737  1.0000
  H   H1068     1.0  0.41468  0.74715  0.37199  1.0000
  H   H1069     1.0  0.39915  0.85064  0.33361  1.0000
  C   C630      1.0  0.07468  0.75984  0.42811  1.0000
  H   H1070     1.0  0.12084  0.71186  0.31753  1.0000
  H   H1071     1.0  0.04793  0.75650  0.40861  1.0000
  C   C631      1.0  0.45967  0.72368  0.38506  1.0000
  H   H1072     1.0  0.35665  0.97295  0.46331  1.0000
  H   H1073     1.0  0.14528  0.76285  0.36787  1.0000
  S   S187      1.0  0.27888  0.99512  0.29038  1.0000
  H   H1074     1.0  0.41678  0.95962  0.24292  1.0000
  H   H1075     1.0  0.22377  0.88715  0.24213  1.0000
  C   C632      1.0  0.99959  0.78483  0.25061  1.0000
  H   H1076     1.0  0.41400  0.96019  0.34850  1.0000
  C   C633      1.0  0.44248  0.93204  0.36293  1.0000
  C   C634      1.0  0.21685  0.72012  0.43613  1.0000
  C   C635      1.0  0.45853  0.93905  0.33514  1.0000
  H   H1077     1.0  0.43080  0.87966  0.35378  1.0000
  N   N46       1.0  0.41810  0.70588  0.36512  1.0000
  Fe  Fe95      1.0  0.47983  0.94534  0.43345  1.0000
  S   S188      1.0  0.36353  0.68076  0.44683  1.0000
  C   C636      1.0  0.38268  0.68833  0.36607  1.0000
  H   H1078     1.0  0.27473  0.69640  0.47575  1.0000
  H   H1079     1.0  0.22400  0.74638  0.33591  1.0000
  H   H1080     1.0  0.16026  0.72301  0.47085  1.0000
  H   H1081     1.0  0.14587  0.87689  0.26874  1.0000
  H   H1082     1.0  0.37926  0.97901  0.38395  1.0000
  H   H1083     1.0  0.45120  0.75443  0.36170  1.0000
  H   H1084     1.0  0.37088  0.69889  0.37382  1.0000
  H   H1085     1.0  0.05563  0.75658  0.25159  1.0000
  H   H1086     1.0  0.06406  0.72523  0.38379  1.0000
  S   S189      1.0  0.00179  0.70361  0.31042  1.0000
  Fe  Fe96      1.0  0.48200  0.99101  0.40585  1.0000
  Fe  Fe97      1.0  0.13060  0.82238  0.48215  1.0000
  N   N47       1.0  0.15692  0.74133  0.33088  1.0000
  H   H1087     1.0  0.47456  0.70860  0.33579  1.0000
  H   H1088     1.0  0.01740  0.79984  0.25777  1.0000
  C   C637      1.0  0.22198  0.85275  0.26011  1.0000
  C   C638      1.0  0.43246  0.69473  0.35214  1.0000
  H   H1089     1.0  0.20660  0.83745  0.25213  1.0000
  S   S190      1.0  0.47659  0.81921  0.41573  1.0000
  H   H1090     1.0  0.19000  0.75023  0.45631  1.0000
  C   C639      1.0  0.01375  0.69743  0.40658  1.0000
  H   H1091     1.0  0.19172  0.91357  0.25134  1.0000
  H   H1092     1.0  0.42119  0.69453  0.34126  1.0000
  H   H1093     1.0  0.14621  0.75180  0.29940  1.0000
  H   H1094     1.0  0.41164  0.93870  0.48404  1.0000
  H   H1095     1.0  0.47687  0.93078  0.33764  1.0000
  S   S191      1.0  0.44115  0.99238  0.39269  1.0000
  H   H1096     1.0  0.19220  0.92318  0.27082  1.0000
  C   C640      1.0  0.05012  0.73753  0.24455  1.0000
  C   C641      1.0  0.17995  0.72911  0.32488  1.0000
  C   C642      1.0  0.20801  0.72524  0.47230  1.0000
  H   H1097     1.0  0.18581  0.76649  0.34810  1.0000
  H   H1098     1.0  0.37455  0.99753  0.43797  1.0000
  H   H1099     1.0  0.06532  0.68593  0.40467  1.0000
  Fe  Fe98      1.0  0.32633  0.99522  0.28452  1.0000
  H   H1100     1.0  0.39876  0.95868  0.46069  1.0000
  S   S192      1.0  0.11890  0.68072  0.43022  1.0000
  H   H1101     1.0  0.23206  0.74417  0.46901  1.0000
  C   C643      1.0  0.39578  0.99155  0.37385  1.0000
  Fe  Fe99      1.0  0.99349  0.74687  0.30804  1.0000
  C   C644      1.0  0.40624  0.95916  0.48470  1.0000
  C   C645      1.0  0.18518  0.73970  0.46854  1.0000
  H   H1102     1.0  0.48546  0.98428  0.34374  1.0000
  C   C646      1.0  0.11326  0.68645  0.33983  1.0000
  H   H1103     1.0  0.47459  0.85977  0.46168  1.0000
  Fe  Fe100     1.0  0.48850  0.84571  0.39218  1.0000
  H   H1104     1.0  0.99899  0.74348  0.26182  1.0000
  C   C647      1.0  0.36932  0.99263  0.47006  1.0000
  C   C648      1.0  0.34796  0.99818  0.24299  1.0000
  H   H1105     1.0  0.14286  0.67812  0.48446  1.0000
  H   H1106     1.0  0.47843  0.73674  0.34840  1.0000
  H   H1107     1.0  0.24196  0.84619  0.26093  1.0000
  H   H1108     1.0  0.35926  0.99118  0.35977  1.0000
  C   C649      1.0  0.24939  0.69112  0.47838  1.0000
  H   H1109     1.0  0.01285  0.78358  0.23975  1.0000
  C   C650      1.0  0.02512  0.67074  0.36503  1.0000
  H   H1110     1.0  0.48501  0.89813  0.47980  1.0000
  C   C651      1.0  0.38431  0.99848  0.36012  1.0000
  H   H1111     1.0  0.43026  0.67668  0.38118  1.0000
  H   H1112     1.0  0.22793  0.95701  0.23934  1.0000
  C   C652      1.0  0.24931  0.95287  0.24032  1.0000
  H   H1113     1.0  0.48751  0.87197  0.43390  1.0000
  H   H1114     1.0  0.41108  0.99388  0.23908  1.0000
  C   C653      1.0  0.42827  0.00071  0.37468  1.0000
  Fe  Fe101     1.0  0.12557  0.81743  0.51799  1.0000
  S   S193      1.0  0.10972  0.85547  0.51948  1.0000
  S   S194      1.0  0.13266  0.79020  0.53879  1.0000
  C   C654      1.0  0.28674  0.91268  0.68137  1.0000
  Fe  Fe102     1.0  0.14793  0.88067  0.49957  1.0000
  S   S195      1.0  0.17828  0.93256  0.50030  1.0000
  Fe  Fe103     1.0  0.07808  0.83333  0.50120  1.0000
  C   C655      1.0  0.28446  0.88144  0.68880  1.0000
  S   S196      1.0  0.16568  0.84379  0.49925  1.0000
  S   S197      1.0  0.09191  0.79324  0.50093  1.0000
  H   H1115     1.0  0.99524  0.90604  0.50446  1.0000
  S   S198      1.0  0.04610  0.72639  0.64231  1.0000
  Fe  Fe104     1.0  0.12577  0.75972  0.65962  1.0000
  S   S199      1.0  0.09951  0.78817  0.65387  1.0000
  S   S200      1.0  0.17321  0.78159  0.66912  1.0000
  Fe  Fe105     1.0  0.05645  0.74681  0.66494  1.0000
  H   H1116     1.0  0.29492  0.98476  0.65336  1.0000
  Fe  Fe106     1.0  0.09132  0.76570  0.63156  1.0000
  S   S201      1.0  0.09289  0.79695  0.60990  1.0000
  S   S202      1.0  0.08331  0.71969  0.67233  1.0000
  S   S203      1.0  0.12109  0.74003  0.63642  1.0000
  H   H1117     1.0  0.26619  0.87126  0.69880  1.0000
  H   H1118     1.0  0.06666  0.79047  0.53473  1.0000
  C   C656      1.0  0.33612  0.99623  0.69696  1.0000
  C   C657      1.0  0.17439  0.79273  0.68814  1.0000
  C   C658      1.0  0.14715  0.78988  0.69709  1.0000
  C   C659      1.0  0.14896  0.79919  0.71218  1.0000
  C   C660      1.0  0.17790  0.81163  0.71840  1.0000
  C   C661      1.0  0.20521  0.81505  0.70932  1.0000
  C   C662      1.0  0.20339  0.80517  0.69435  1.0000
  H   H1119     1.0  0.12473  0.78053  0.69236  1.0000
  C   C663      1.0  0.20223  0.88146  0.66798  1.0000
  H   H1120     1.0  0.22760  0.82478  0.71394  1.0000
  H   H1121     1.0  0.22454  0.80741  0.68746  1.0000
  H   H1122     1.0  0.27985  0.86446  0.68010  1.0000
  H   H1123     1.0  0.12792  0.79709  0.71897  1.0000
  H   H1124     1.0  0.29209  0.79405  0.72906  1.0000
  C   C664      1.0  0.29012  0.97026  0.66465  1.0000
  C   C665      1.0  0.35591  0.96271  0.70994  1.0000
  H   H1125     1.0  0.35299  0.94459  0.71893  1.0000
  H   H1126     1.0  0.40250  0.96912  0.70084  1.0000
  C   C666      1.0  0.03497  0.85292  0.55147  1.0000
  C   C667      1.0  0.26457  0.93748  0.66318  1.0000
  C   C668      1.0  0.12133  0.79216  0.55850  1.0000
  C   C669      1.0  0.11249  0.81527  0.56285  1.0000
  C   C670      1.0  0.10375  0.81631  0.57863  1.0000
  C   C671      1.0  0.10404  0.79441  0.59024  1.0000
  C   C672      1.0  0.11318  0.77145  0.58589  1.0000
  C   C673      1.0  0.12183  0.77039  0.57009  1.0000
  H   H1127     1.0  0.11273  0.83247  0.55406  1.0000
  H   H1128     1.0  0.09694  0.83429  0.58191  1.0000
  H   H1129     1.0  0.11359  0.75451  0.59471  1.0000
  H   H1130     1.0  0.12888  0.75255  0.56684  1.0000
  C   C674      1.0  0.24097  0.94129  0.50080  1.0000
  C   C675      1.0  0.05387  0.73988  0.72797  1.0000
  H   H1131     1.0  0.29876  0.93041  0.68924  1.0000
  C   C676      1.0  0.21964  0.95480  0.50041  1.0000
  C   C677      1.0  0.23116  0.98701  0.50095  1.0000
  H   H1132     1.0  0.21804  0.91328  0.71384  1.0000
  C   C678      1.0  0.24212  0.92506  0.69040  1.0000
  H   H1133     1.0  0.21821  0.70110  0.71364  1.0000
  H   H1134     1.0  0.22071  0.77641  0.72818  1.0000
  N   N48       1.0  0.01539  0.79284  0.55536  1.0000
  H   H1135     1.0  0.26899  0.77542  0.71381  1.0000
  H   H1136     1.0  0.18782  0.70534  0.72538  1.0000
  C   C679      1.0  0.03922  0.82381  0.54749  1.0000
  H   H1137     1.0  0.04038  0.82398  0.53462  1.0000
  H   H1138     1.0  0.24508  0.87570  0.66339  1.0000
  H   H1139     1.0  0.07565  0.75626  0.72062  1.0000
  H   H1140     1.0  0.31287  0.97021  0.66726  1.0000
  C   C680      1.0  0.28460  0.99194  0.50270  1.0000
  H   H1141     1.0  0.25903  0.73018  0.72926  1.0000
  H   H1142     1.0  0.42168  0.97377  0.49284  1.0000
  C   C681      1.0  0.23375  0.88325  0.67300  1.0000
  H   H1143     1.0  0.03350  0.88239  0.50375  1.0000
  S   S204      1.0  0.29733  0.95751  0.72181  1.0000
  S   S205      1.0  0.02416  0.81728  0.50379  1.0000
  N   N49       1.0  0.20266  0.90101  0.54954  1.0000
  C   C682      1.0  0.19345  0.87852  0.53741  1.0000
  C   C683      1.0  0.17375  0.90471  0.55582  1.0000
  C   C684      1.0  0.21529  0.88944  0.56283  1.0000
  C   C685      1.0  0.22806  0.93133  0.54200  1.0000
  C   C686      1.0  0.21844  0.86736  0.53159  1.0000
  C   C687      1.0  0.16171  0.92273  0.54462  1.0000
  C   C688      1.0  0.19300  0.85729  0.57121  1.0000
  C   C689      1.0  0.24040  0.95774  0.55254  1.0000
  H   H1144     1.0  0.17153  0.85751  0.54165  1.0000
  H   H1145     1.0  0.18760  0.88888  0.52689  1.0000
  H   H1146     1.0  0.17735  0.91594  0.56679  1.0000
  H   H1147     1.0  0.15371  0.88170  0.55923  1.0000
  H   H1148     1.0  0.23819  0.88896  0.55894  1.0000
  H   H1149     1.0  0.22086  0.90573  0.57194  1.0000
  H   H1150     1.0  0.24917  0.92828  0.53736  1.0000
  H   H1151     1.0  0.22073  0.93997  0.53149  1.0000
  H   H1152     1.0  0.24001  0.88654  0.52552  1.0000
  H   H1153     1.0  0.22460  0.85475  0.54101  1.0000
  H   H1154     1.0  0.20852  0.85059  0.52302  1.0000
  H   H1155     1.0  0.13927  0.92205  0.55009  1.0000
  H   H1156     1.0  0.17850  0.94748  0.54214  1.0000
  H   H1157     1.0  0.15666  0.91231  0.53354  1.0000
  H   H1158     1.0  0.17150  0.85753  0.57728  1.0000
  H   H1159     1.0  0.20524  0.85064  0.58029  1.0000
  H   H1160     1.0  0.18618  0.83888  0.56327  1.0000
  H   H1161     1.0  0.26059  0.95726  0.55830  1.0000
  H   H1162     1.0  0.22221  0.95717  0.56155  1.0000
  H   H1163     1.0  0.06593  0.70410  0.71937  1.0000
  H   H1164     1.0  0.27272  0.92899  0.65282  1.0000
  H   H1165     1.0  0.25991  0.94673  0.69413  1.0000
  H   H1166     1.0  0.30401  0.91842  0.67081  1.0000
  H   H1167     1.0  0.20842  0.88040  0.70329  1.0000
  H   H1168     1.0  0.24798  0.70713  0.48676  1.0000
  H   H1169     1.0  0.06724  0.79828  0.71368  1.0000
  C   C690      1.0  0.04584  0.76858  0.53887  1.0000
  H   H1170     1.0  0.01262  0.74619  0.55893  1.0000
  H   H1171     1.0  0.01350  0.69433  0.69125  1.0000
  C   C691      1.0  0.00772  0.79537  0.57227  1.0000
  H   H1172     1.0  0.02973  0.80402  0.57816  1.0000
  C   C692      1.0  0.00857  0.86790  0.50398  1.0000
  H   H1173     1.0  0.23258  0.91662  0.50032  1.0000
  H   H1174     1.0  0.18908  0.88832  0.67696  1.0000
  H   H1175     1.0  0.27465  0.81342  0.71747  1.0000
  H   H1176     1.0  0.01140  0.85158  0.54978  1.0000
  H   H1177     1.0  0.18699  0.85699  0.66636  1.0000
  H   H1178     1.0  0.06036  0.82624  0.72399  1.0000
  H   H1179     1.0  0.38126  0.95045  0.48962  1.0000
  H   H1180     1.0  0.01847  0.77180  0.73113  1.0000
  H   H1181     1.0  0.99350  0.78067  0.53420  1.0000
  H   H1182     1.0  0.06321  0.82807  0.55044  1.0000
  Fe  Fe107     1.0  0.07638  0.70200  0.64877  1.0000
  C   C693      1.0  0.38391  0.97665  0.69970  1.0000
  H   H1183     1.0  0.03458  0.73551  0.72049  1.0000
  C   C694      1.0  0.03027  0.77021  0.55490  1.0000
  H   H1184     1.0  0.99813  0.81273  0.57377  1.0000
  S   S206      1.0  0.02081  0.75620  0.68039  1.0000
  C   C695      1.0  0.21319  0.71711  0.72093  1.0000
  H   H1185     1.0  0.22727  0.86495  0.68281  1.0000
  C   C696      1.0  0.33214  0.97285  0.70875  1.0000
  C   C697      1.0  0.27314  0.95972  0.50210  1.0000
  H   H1186     1.0  0.99391  0.74781  0.58324  1.0000
  H   H1187     1.0  0.08983  0.81428  0.72962  1.0000
  H   H1188     1.0  0.30737  0.88504  0.69307  1.0000
  N   N50       1.0  0.25649  0.91416  0.67730  1.0000
  H   H1189     1.0  0.22319  0.93115  0.68646  1.0000
  H   H1190     1.0  0.24629  0.89810  0.71093  1.0000
  H   H1191     1.0  0.28220  0.98195  0.67350  1.0000
  C   C698      1.0  0.27081  0.79047  0.72322  1.0000
  C   C699      1.0  0.22799  0.90248  0.70531  1.0000
  H   H1192     1.0  0.04872  0.77553  0.56304  1.0000
  H   H1193     1.0  0.20545  0.89520  0.65665  1.0000
  H   H1194     1.0  0.24349  0.94079  0.66013  1.0000
  C   C700      1.0  0.99806  0.83589  0.50384  1.0000
  H   H1195     1.0  0.21747  0.73812  0.71312  1.0000
  H   H1196     1.0  0.28928  0.94893  0.50264  1.0000
  H   H1197     1.0  0.04025  0.85803  0.56351  1.0000
  C   C701      1.0  0.06626  0.80606  0.72543  1.0000
  C   C702      1.0  0.99820  0.72965  0.69644  1.0000
  H   H1198     1.0  0.05221  0.87313  0.54357  1.0000
  C   C703      1.0  0.05749  0.70936  0.73066  1.0000
  C   C704      1.0  0.99908  0.70089  0.69921  1.0000
  S   S207      1.0  0.27238  0.86790  0.73281  1.0000
  H   H1199     1.0  0.24834  0.98033  0.54531  1.0000
  H   H1200     1.0  0.02920  0.76249  0.52991  1.0000
  H   H1201     1.0  0.05468  0.75037  0.54000  1.0000
  H   H1202     1.0  0.21495  0.99776  0.50066  1.0000
  H   H1203     1.0  0.03447  0.68956  0.73468  1.0000
  C   C705      1.0  0.23437  0.72380  0.73432  1.0000
  C   C706      1.0  0.24060  0.77802  0.73483  1.0000
  C   C707      1.0  0.38824  0.00059  0.68815  1.0000
  S   S208      1.0  0.01581  0.78339  0.90722  1.0000
  C   C708      1.0  0.01942  0.72928  0.75213  1.0000
  H   H1204     1.0  0.02450  0.84797  0.90372  1.0000
  H   H1205     1.0  0.02464  0.74338  0.77581  1.0000
  H   H1206     1.0  0.02378  0.70892  0.75605  1.0000
  C   C709      1.0  0.00758  0.73870  0.76706  1.0000
  H   H1207     1.0  0.00121  0.75834  0.76483  1.0000
  H   H1208     1.0  0.99921  0.72038  0.74509  1.0000
  H   H1209     1.0  0.03544  0.79197  0.74669  1.0000
  H   H1210     1.0  0.04484  0.82396  0.85915  1.0000
  Fe  Fe108     1.0  0.28258  0.91532  0.73959  1.0000
  C   C710      1.0  0.48268  0.84739  0.76773  1.0000
  H   H1211     1.0  0.04965  0.85517  0.95205  1.0000
  H   H1212     1.0  0.47881  0.89133  0.77316  1.0000
  H   H1213     1.0  0.41776  0.86144  0.74473  1.0000
  C   C711      1.0  0.11737  0.81489  0.98217  1.0000
  H   H1214     1.0  0.45517  0.85963  0.74293  1.0000
  C   C712      1.0  0.19989  0.73600  0.75252  1.0000
  H   H1215     1.0  0.45107  0.76950  0.78512  1.0000
  H   H1216     1.0  0.24404  0.92518  0.98286  1.0000
  H   H1217     1.0  0.09852  0.77229  0.74267  1.0000
  H   H1218     1.0  0.47449  0.86654  0.79755  1.0000
  H   H1219     1.0  0.33224  0.90338  0.97718  1.0000
  C   C713      1.0  0.23671  0.90133  0.98056  1.0000
  H   H1220     1.0  0.06058  0.79144  0.76643  1.0000
  H   H1221     1.0  0.13888  0.86410  0.97626  1.0000
  H   H1222     1.0  0.41888  0.82509  0.74283  1.0000
  H   H1223     1.0  0.47400  0.79767  0.81848  1.0000
  N   N51       1.0  0.23288  0.74775  0.74441  1.0000
  Fe  Fe109     1.0  0.23613  0.89395  0.88605  1.0000
  H   H1224     1.0  0.24359  0.79664  0.74248  1.0000
  S   S209      1.0  0.22622  0.93618  0.88427  1.0000
  S   S210      1.0  0.33337  0.76619  0.98267  1.0000
  C   C714      1.0  0.23659  0.90464  0.84237  1.0000
  C   C715      1.0  0.23433  0.91229  0.82666  1.0000
  H   H1225     1.0  0.12859  0.84558  0.90674  1.0000
  Fe  Fe110     1.0  0.35791  0.73465  0.98081  1.0000
  C   C716      1.0  0.07473  0.87529  0.90360  1.0000
  C   C717      1.0  0.10615  0.84637  0.90599  1.0000
  S   S211      1.0  0.21575  0.92815  0.92290  1.0000
  C   C718      1.0  0.43032  0.84710  0.74807  1.0000
  H   H1226     1.0  0.06677  0.83886  0.93836  1.0000
  H   H1227     1.0  0.07305  0.89722  0.90242  1.0000
  H   H1228     1.0  0.25269  0.70612  0.76237  1.0000
  C   C719      1.0  0.22402  0.86295  0.96213  1.0000
  S   S212      1.0  0.22120  0.85250  0.94293  1.0000
  H   H1229     1.0  0.22777  0.93095  0.82358  1.0000
  C   C720      1.0  0.23302  0.89361  0.96522  1.0000
  S   S213      1.0  0.34560  0.70206  0.96241  1.0000
  H   H1230     1.0  0.23764  0.91146  0.95578  1.0000
  H   H1231     1.0  0.16957  0.74550  0.76953  1.0000
  S   S214      1.0  0.41002  0.75508  0.97359  1.0000
  S   S215      1.0  0.40169  0.68327  0.97291  1.0000
  S   S216      1.0  0.24839  0.87043  0.86616  1.0000
  S   S217      1.0  0.26865  0.91009  0.90465  1.0000
  Fe  Fe111     1.0  0.35024  0.69707  0.81763  1.0000
  H   H1232     1.0  0.08045  0.79672  0.90795  1.0000
  Fe  Fe112     1.0  0.22584  0.88634  0.92209  1.0000
  H   H1233     1.0  0.45029  0.75673  0.76640  1.0000
  C   C721      1.0  0.31234  0.88123  0.97527  1.0000
  H   H1234     1.0  0.09996  0.81163  0.75634  1.0000
  S   S218      1.0  0.42285  0.73051  0.93206  1.0000
  Fe  Fe113     1.0  0.39774  0.71961  0.95648  1.0000
  C   C722      1.0  0.25670  0.75333  0.75597  1.0000
  H   H1235     1.0  0.48304  0.79092  0.76999  1.0000
  H   H1236     1.0  0.38041  0.83804  0.96138  1.0000
  C   C723      1.0  0.07676  0.76338  0.75104  1.0000
  H   H1237     1.0  0.25854  0.77307  0.76259  1.0000
  H   H1238     1.0  0.06737  0.80383  0.86475  1.0000
  H   H1239     1.0  0.23205  0.91755  0.85124  1.0000
  C   C724      1.0  0.13478  0.84331  0.97006  1.0000
  C   C725      1.0  0.07879  0.81866  0.90669  1.0000
  H   H1240     1.0  0.13202  0.90471  0.95912  1.0000
  S   S219      1.0  0.37155  0.81080  0.81759  1.0000
  Fe  Fe114     1.0  0.22504  0.85255  0.74631  1.0000
  H   H1241     1.0  0.15880  0.84490  0.96681  1.0000
  S   S220      1.0  0.23812  0.90730  0.79529  1.0000
  Fe  Fe115     1.0  0.36466  0.71819  0.84998  1.0000
  Fe  Fe116     1.0  0.37555  0.76564  0.82235  1.0000
  S   S221      1.0  0.30283  0.90882  0.76168  1.0000
  H   H1242     1.0  0.36741  0.87816  0.97083  1.0000
  Fe  Fe117     1.0  0.25299  0.89034  0.77346  1.0000
  H   H1243     1.0  0.19202  0.71214  0.75837  1.0000
  H   H1244     1.0  0.17242  0.91066  0.95583  1.0000
  C   C726      1.0  0.04723  0.84747  0.90431  1.0000
  Fe  Fe118     1.0  0.28825  0.85974  0.75585  1.0000
  S   S222      1.0  0.39042  0.73956  0.80534  1.0000
  S   S223      1.0  0.33314  0.72402  0.83305  1.0000
  H   H1245     1.0  0.09223  0.78376  0.77237  1.0000
  H   H1246     1.0  0.29297  0.88747  0.97219  1.0000
  H   H1247     1.0  0.33849  0.84066  0.97821  1.0000
  S   S224      1.0  0.23993  0.84088  0.76905  1.0000
  C   C727      1.0  0.08195  0.78895  0.76200  1.0000
  S   S225      1.0  0.40638  0.76207  0.84032  1.0000
  S   S226      1.0  0.31474  0.82972  0.75586  1.0000
  H   H1248     1.0  0.33207  0.86635  0.78179  1.0000
  C   C728      1.0  0.32883  0.82382  0.77345  1.0000
  H   H1249     1.0  0.28850  0.81842  0.96809  1.0000
  C   C729      1.0  0.04925  0.81905  0.90590  1.0000
  C   C730      1.0  0.33413  0.79729  0.77653  1.0000
  H   H1250     1.0  0.35014  0.77199  0.79265  1.0000
  H   H1251     1.0  0.07007  0.82406  0.96659  1.0000
  C   C731      1.0  0.31233  0.83942  0.85522  1.0000
  H   H1252     1.0  0.41542  0.80744  0.79342  1.0000
  C   C732      1.0  0.34637  0.79262  0.79029  1.0000
  C   C733      1.0  0.39742  0.72243  0.88822  1.0000
  C   C734      1.0  0.34908  0.84155  0.79766  1.0000
  C   C735      1.0  0.36891  0.72031  0.91811  1.0000
  C   C736      1.0  0.25097  0.72564  0.76796  1.0000
  H   H1253     1.0  0.08697  0.87923  0.94150  1.0000
  S   S227      1.0  0.37834  0.68750  0.83546  1.0000
  H   H1254     1.0  0.27236  0.84290  0.96018  1.0000
  H   H1255     1.0  0.45375  0.81062  0.79532  1.0000
  C   C737      1.0  0.07236  0.85547  0.94722  1.0000
  C   C738      1.0  0.44881  0.85177  0.79876  1.0000
  H   H1256     1.0  0.32658  0.71032  0.90704  1.0000
  C   C739      1.0  0.24524  0.88071  0.84649  1.0000
  C   C740      1.0  0.35422  0.81497  0.80079  1.0000
  H   H1257     1.0  0.43965  0.73189  0.89939  1.0000
  H   H1258     1.0  0.32875  0.78030  0.76827  1.0000
  H   H1259     1.0  0.35786  0.71989  0.92952  1.0000
  C   C741      1.0  0.35128  0.71510  0.90533  1.0000
  H   H1260     1.0  0.40849  0.72310  0.87672  1.0000
  H   H1261     1.0  0.25464  0.85984  0.81003  1.0000
  H   H1262     1.0  0.07679  0.74293  0.75800  1.0000
  C   C742      1.0  0.21803  0.84001  0.97454  1.0000
  H   H1263     1.0  0.44269  0.79852  0.75400  1.0000
  C   C743      1.0  0.33594  0.84575  0.78414  1.0000
  N   N52       1.0  0.32204  0.86626  0.96228  1.0000
  H   H1264     1.0  0.14763  0.90734  0.83015  1.0000
  C   C744      1.0  0.41500  0.72736  0.90106  1.0000
  H   H1265     1.0  0.35543  0.85908  0.80564  1.0000
  H   H1266     1.0  0.26969  0.73314  0.77592  1.0000
  C   C745      1.0  0.36541  0.71597  0.89038  1.0000
  H   H1267     1.0  0.13118  0.87147  0.93323  1.0000
  C   C746      1.0  0.24114  0.89645  0.81487  1.0000
  S   S228      1.0  0.34185  0.70734  0.87491  1.0000
  C   C747      1.0  0.29427  0.82621  0.94295  1.0000
  H   H1268     1.0  0.34482  0.88219  0.93847  1.0000
  C   C748      1.0  0.09379  0.85471  0.86067  1.0000
  H   H1269     1.0  0.32390  0.91750  0.93079  1.0000
  S   S229      1.0  0.46655  0.73463  0.81824  1.0000
  H   H1270     1.0  0.12867  0.78403  0.93838  1.0000
  S   S230      1.0  0.23383  0.90040  0.75174  1.0000
  C   C749      1.0  0.31303  0.90333  0.94213  1.0000
  C   C750      1.0  0.13598  0.85969  0.83979  1.0000
  H   H1271     1.0  0.25746  0.84546  0.83775  1.0000
  H   H1272     1.0  0.09114  0.86316  0.96936  1.0000
  C   C751      1.0  0.45713  0.77785  0.77256  1.0000
  C   C752      1.0  0.13804  0.80669  0.94323  1.0000
  H   H1273     1.0  0.37182  0.85618  0.94489  1.0000
  H   H1274     1.0  0.41327  0.78153  0.77018  1.0000
  C   C753      1.0  0.33568  0.89052  0.94843  1.0000
  H   H1275     1.0  0.07123  0.81972  0.84459  1.0000
  H   H1276     1.0  0.31778  0.83397  0.93643  1.0000
  C   C754      1.0  0.25137  0.86439  0.83473  1.0000
  H   H1277     1.0  0.17349  0.89902  0.85606  1.0000
  C   C755      1.0  0.06832  0.82365  0.85694  1.0000
  H   H1278     1.0  0.10655  0.88057  0.82961  1.0000
  H   H1279     1.0  0.13711  0.87972  0.81646  1.0000
  H   H1280     1.0  0.44178  0.84415  0.81140  1.0000
  H   H1281     1.0  0.30866  0.91884  0.95000  1.0000
  C   C756      1.0  0.10428  0.87480  0.90442  1.0000
  H   H1282     1.0  0.09970  0.81646  0.93705  1.0000
  H   H1283     1.0  0.11916  0.91140  0.87143  1.0000
  N   N53       1.0  0.44801  0.82795  0.77263  1.0000
  H   H1284     1.0  0.21086  0.81618  0.97225  1.0000
  C   C757      1.0  0.13177  0.83355  0.86554  1.0000
  C   C758      1.0  0.08804  0.84649  0.96057  1.0000
  H   H1285     1.0  0.32606  0.85796  0.86235  1.0000
  H   H1286     1.0  0.15323  0.88586  0.87501  1.0000
  H   H1287     1.0  0.33109  0.82433  0.89105  1.0000
  H   H1288     1.0  0.43551  0.86524  0.79537  1.0000
  C   C759      1.0  0.43891  0.79645  0.76691  1.0000
  N   N54       1.0  0.12765  0.85991  0.85691  1.0000
  H   H1289     1.0  0.09193  0.79450  0.95525  1.0000
  H   H1290     1.0  0.08888  0.87314  0.85460  1.0000
  H   H1291     1.0  0.40183  0.82596  0.76982  1.0000
  C   C760      1.0  0.30649  0.81999  0.88934  1.0000
  C   C761      1.0  0.13126  0.88335  0.82860  1.0000
  N   N55       1.0  0.11842  0.84404  0.95581  1.0000
  C   C762      1.0  0.28256  0.75124  0.85543  1.0000
  H   H1292     1.0  0.26906  0.79509  0.87572  1.0000
  H   H1293     1.0  0.31388  0.78933  0.83896  1.0000
  H   H1294     1.0  0.27720  0.78999  0.84493  1.0000
  C   C763      1.0  0.14045  0.87131  0.94465  1.0000
  H   H1295     1.0  0.35983  0.83461  0.86740  1.0000
  H   H1296     1.0  0.30457  0.84220  0.88692  1.0000
  H   H1297     1.0  0.29924  0.74399  0.86094  1.0000
  H   H1298     1.0  0.08897  0.85607  0.87331  1.0000
  H   H1299     1.0  0.37603  0.79572  0.87247  1.0000
  C   C764      1.0  0.13923  0.91662  0.86240  1.0000
  H   H1300     1.0  0.35300  0.77175  0.85875  1.0000
  C   C765      1.0  0.32577  0.85222  0.83813  1.0000
  C   C766      1.0  0.35268  0.78675  0.86794  1.0000
  H   H1301     1.0  0.33588  0.77249  0.87799  1.0000
  H   H1302     1.0  0.35920  0.82072  0.84935  1.0000
  C   C767      1.0  0.34649  0.81416  0.86127  1.0000
  H   H1303     1.0  0.27517  0.73746  0.84543  1.0000
  H   H1304     1.0  0.28391  0.80050  0.94449  1.0000
  H   H1305     1.0  0.31221  0.83666  0.82976  1.0000
  H   H1306     1.0  0.27880  0.83224  0.93557  1.0000
  H   H1307     1.0  0.32405  0.87453  0.83557  1.0000
  C   C768      1.0  0.36120  0.84184  0.95615  1.0000
  C   C769      1.0  0.34739  0.85744  0.96759  1.0000
  H   H1308     1.0  0.20887  0.75782  0.77451  1.0000
  C   C770      1.0  0.16581  0.83631  0.86482  1.0000
  C   C771      1.0  0.42705  0.84143  0.76597  1.0000
  H   H1309     1.0  0.43036  0.86356  0.77049  1.0000
  H   H1310     1.0  0.28787  0.83771  0.85665  1.0000
  H   H1311     1.0  0.16123  0.86429  0.83730  1.0000
  H   H1312     1.0  0.22817  0.71751  0.77533  1.0000
  C   C772      1.0  0.24960  0.87237  0.81898  1.0000
  H   H1313     1.0  0.26101  0.74477  0.86365  1.0000
  H   H1314     1.0  0.15293  0.92078  0.94057  1.0000
  C   C773      1.0  0.14960  0.88986  0.86263  1.0000
  H   H1315     1.0  0.12284  0.83070  0.87806  1.0000
  H   H1316     1.0  0.16301  0.86949  0.94164  1.0000
  Fe  Fe119     1.0  0.41780  0.73223  0.82425  1.0000
  C   C774      1.0  0.40072  0.72601  0.91607  1.0000
  C   C775      1.0  0.29703  0.78599  0.84940  1.0000
  C   C776      1.0  0.29380  0.79830  0.87662  1.0000
  C   C777      1.0  0.14991  0.90349  0.95053  1.0000
  H   H1317     1.0  0.15501  0.82373  0.93392  1.0000
  H   H1318     1.0  0.29023  0.88474  0.94007  1.0000
  H   H1319     1.0  0.11772  0.81114  0.86105  1.0000
  N   N56       1.0  0.31260  0.80888  0.86079  1.0000
  H   H1320     1.0  0.16607  0.81685  0.87248  1.0000
  C   C778      1.0  0.19473  0.75615  0.76462  1.0000
  H   H1321     1.0  0.34344  0.81847  0.95439  1.0000
  H   H1322     1.0  0.35671  0.91070  0.95133  1.0000
  C   C779      1.0  0.29355  0.83811  0.95911  1.0000
  H   H1323     1.0  0.13268  0.92235  0.85103  1.0000
  H   H1324     1.0  0.15897  0.93777  0.86536  1.0000
  H   H1325     1.0  0.29185  0.80874  0.90058  1.0000
  H   H1326     1.0  0.17505  0.83463  0.85295  1.0000
  H   H1327     1.0  0.29161  0.77528  0.88133  1.0000
  H   H1328     1.0  0.15058  0.80425  0.95322  1.0000
  H   H1329     1.0  0.35102  0.85709  0.83589  1.0000
  H   H1330     1.0  0.18219  0.85789  0.86909  1.0000
  H   H1331     1.0  0.12238  0.83638  0.83608  1.0000
  Fe  Fe120     1.0  0.25612  0.95087  0.90400  1.0000
  C   C780      1.0  0.11037  0.81491  0.94791  1.0000
  C   C781      1.0  0.44083  0.82284  0.79008  1.0000
  Fe  Fe121     1.0  0.18661  0.90972  0.90330  1.0000
  S   S231      1.0  0.19420  0.86647  0.90360  1.0000
  S   S232      1.0  0.13843  0.90995  0.90346  1.0000
  H   H1332     1.0  0.19986  0.77968  0.75926  1.0000
  H   H1333     1.0  0.28073  0.76043  0.74990  1.0000
  H   H1334     1.0  0.11516  0.79313  0.97751  1.0000
  H   H1335     1.0  0.18283  0.73416  0.74394  1.0000
  S   S233      1.0  0.17882  0.82136  0.73775  1.0000
  S   S234      1.0  0.29701  0.99776  0.90466  1.0000
  N   N57       1.0  0.04796  0.75377  0.74235  1.0000
  H   H1336     1.0  0.25736  0.69848  0.98192  1.0000
  H   H1337     1.0  0.22714  0.70114  0.74138  1.0000
  H   H1338     1.0  0.07496  0.71086  0.73888  1.0000
  Fe  Fe122     1.0  0.35031  0.66832  0.98019  1.0000
  C   C782      1.0  0.04055  0.78043  0.73692  1.0000
  H   H1339     1.0  0.48931  0.84266  0.75589  1.0000
  Fe  Fe123     1.0  0.81352  0.25952  0.05101  1.0000
  S   S235      1.0  0.81677  0.21563  0.04536  1.0000
  S   S236      1.0  0.77046  0.26907  0.05171  1.0000
  Fe  Fe124     1.0  0.87988  0.28928  0.06005  1.0000
  S   S237      1.0  0.88936  0.24838  0.05495  1.0000
  H   H1340     1.0  0.56037  0.10954  0.14358  1.0000
  Fe  Fe125     1.0  0.86489  0.24775  0.03338  1.0000
  S   S238      1.0  0.88524  0.23576  0.01140  1.0000
  Fe  Fe126     1.0  0.84076  0.21945  0.06713  1.0000
  S   S239      1.0  0.83405  0.18020  0.08529  1.0000
  S   S240      1.0  0.85965  0.29152  0.03745  1.0000
  S   S241      1.0  0.83330  0.26050  0.07382  1.0000
  Fe  Fe127     1.0  0.70036  0.03839  0.17355  1.0000
  Fe  Fe128     1.0  0.69010  0.06608  0.14234  1.0000
  S   S242      1.0  0.64422  0.02525  0.14106  1.0000
  S   S243      1.0  0.69938  0.10389  0.12289  1.0000
  Fe  Fe129     1.0  0.63426  0.02841  0.16641  1.0000
  C   C783      1.0  0.74870  0.04455  0.22189  1.0000
  S   S244      1.0  0.67885  0.07120  0.16728  1.0000
  S   S245      1.0  0.71592  0.03722  0.14835  1.0000
  C   C784      1.0  0.73440  0.30208  0.01784  1.0000
  H   H1341     1.0  0.57916  0.07366  0.14894  1.0000
  H   H1342     1.0  0.54505  0.04345  0.13215  1.0000
  C   C785      1.0  0.51778  0.04616  0.21594  1.0000
  H   H1343     1.0  0.49813  0.00973  0.20158  1.0000
  C   C786      1.0  0.75858  0.03189  0.10904  1.0000
  H   H1344     1.0  0.89165  0.21968  0.11200  1.0000
  C   C787      1.0  0.62504  0.11165  0.14443  1.0000
  H   H1345     1.0  0.55356  0.04956  0.11164  1.0000
  C   C788      1.0  0.56444  0.04920  0.12260  1.0000
  H   H1346     1.0  0.80742  0.22004  0.10592  1.0000
  C   C789      1.0  0.56559  0.29354  0.01997  1.0000
  H   H1347     1.0  0.51785  0.03046  0.22594  1.0000
  C   C790      1.0  0.50608  0.02190  0.16490  1.0000
  H   H1348     1.0  0.53148  0.08287  0.13256  1.0000
  C   C791      1.0  0.53552  0.03370  0.17067  1.0000
  H   H1349     1.0  0.55141  0.27266  0.08376  1.0000
  C   C792      1.0  0.61959  0.08617  0.11281  1.0000
  C   C793      1.0  0.77683  0.27490  0.01978  1.0000
  C   C794      1.0  0.49271  0.02902  0.20521  1.0000
  H   H1350     1.0  0.56490  0.24854  0.07354  1.0000
  C   C795      1.0  0.94191  0.30104  0.10659  1.0000
  C   C796      1.0  0.92843  0.30261  0.09277  1.0000
  C   C797      1.0  0.68842  0.03400  0.23454  1.0000
  S   S246      1.0  0.59161  0.03398  0.17701  1.0000
  C   C798      1.0  0.77042  0.28410  0.00522  1.0000
  H   H1351     1.0  0.65964  0.04768  0.08479  1.0000
  H   H1352     1.0  0.92056  0.28306  0.08600  1.0000
  C   C799      1.0  0.55916  0.26882  0.07209  1.0000
  C   C800      1.0  0.79652  0.15891  0.09561  1.0000
  C   C801      1.0  0.79288  0.13740  0.10831  1.0000
  C   C802      1.0  0.76331  0.12076  0.11704  1.0000
  C   C803      1.0  0.73720  0.12534  0.11292  1.0000
  C   C804      1.0  0.74085  0.14676  0.10019  1.0000
  C   C805      1.0  0.77044  0.16360  0.09159  1.0000
  H   H1353     1.0  0.81306  0.13377  0.11148  1.0000
  H   H1354     1.0  0.76067  0.10423  0.12682  1.0000
  H   H1355     1.0  0.72070  0.15033  0.09693  1.0000
  H   H1356     1.0  0.77307  0.18018  0.08182  1.0000
  C   C806      1.0  0.60011  0.08065  0.14030  1.0000
  H   H1357     1.0  0.53920  0.26206  0.06490  1.0000
  C   C807      1.0  0.86307  0.24452  0.11664  1.0000
  H   H1358     1.0  0.76967  0.21616  0.13744  1.0000
  C   C808      1.0  0.87016  0.21611  0.11970  1.0000
  H   H1359     1.0  0.59977  0.12855  0.11923  1.0000
  H   H1360     1.0  0.79340  0.26463  0.02048  1.0000
  C   C809      1.0  0.82129  0.20635  0.15031  1.0000
  C   C810      1.0  0.72944  0.03411  0.10298  1.0000
  H   H1361     1.0  0.50654  0.27521  0.00069  1.0000
  H   H1362     1.0  0.61748  0.13066  0.14311  1.0000
  H   H1363     1.0  0.60761  0.10258  0.09085  1.0000
  H   H1364     1.0  0.72432  0.05056  0.10996  1.0000
  H   H1365     1.0  0.76666  0.08374  0.05733  1.0000
  C   C811      1.0  0.72562  0.04184  0.21185  1.0000
  H   H1366     1.0  0.77378  0.11856  0.06588  1.0000
  H   H1367     1.0  0.88360  0.26394  0.12030  1.0000
  C   C812      1.0  0.59539  0.29492  0.01519  1.0000
  H   H1368     1.0  0.60965  0.06333  0.14277  1.0000
  H   H1369     1.0  0.94437  0.28021  0.11041  1.0000
  N   N58       1.0  0.83276  0.24291  0.12465  1.0000
  H   H1370     1.0  0.72830  0.29504  0.04292  1.0000
  H   H1371     1.0  0.77213  0.04870  0.21698  1.0000
  H   H1372     1.0  0.86400  0.24919  0.10377  1.0000
  C   C813      1.0  0.74008  0.29202  0.03239  1.0000
  H   H1373     1.0  0.53685  0.31881  0.02012  1.0000
  H   H1374     1.0  0.69576  0.07971  0.08718  1.0000
  C   C814      1.0  0.57989  0.10509  0.12025  1.0000
  C   C815      1.0  0.83076  0.27292  0.11967  1.0000
  C   C816      1.0  0.57405  0.32906  0.09231  1.0000
  H   H1375     1.0  0.60022  0.27496  0.01781  1.0000
  C   C817      1.0  0.85832  0.30292  0.12309  1.0000
  H   H1376     1.0  0.81657  0.24899  0.14762  1.0000
  C   C818      1.0  0.77238  0.21457  0.12478  1.0000
  S   S247      1.0  0.53673  0.25942  0.03047  1.0000
  N   N59       1.0  0.59104  0.08029  0.12397  1.0000
  H   H1377     1.0  0.83483  0.20731  0.16042  1.0000
  C   C819      1.0  0.83246  0.23958  0.14213  1.0000
  H   H1378     1.0  0.76714  0.23247  0.11836  1.0000
  S   S248      1.0  0.97104  0.32375  0.13214  1.0000
  H   H1379     1.0  0.62872  0.10871  0.15685  1.0000
  H   H1380     1.0  0.54341  0.05510  0.17601  1.0000
  C   C820      1.0  0.69540  0.03645  0.21828  1.0000
  H   H1381     1.0  0.86475  0.28000  0.99631  1.0000
  C   C821      1.0  0.86938  0.26681  0.98759  1.0000
  H   H1382     1.0  0.82128  0.13817  0.22500  1.0000
  H   H1383     1.0  0.63843  0.10976  0.11336  1.0000
  C   C822      1.0  0.61412  0.08412  0.09550  1.0000
  H   H1384     1.0  0.80911  0.27346  0.12550  1.0000
  S   S249      1.0  0.73560  0.04532  0.19145  1.0000
  C   C823      1.0  0.55520  0.01836  0.16931  1.0000
  C   C824      1.0  0.95265  0.32637  0.11539  1.0000
  C   C825      1.0  0.80531  0.21723  0.11888  1.0000
  H   H1385     1.0  0.67783  0.04704  0.10207  1.0000
  H   H1386     1.0  0.59616  0.06121  0.09333  1.0000
  H   H1387     1.0  0.78337  0.10723  0.22565  1.0000
  H   H1388     1.0  0.87986  0.30826  0.11512  1.0000
  H   H1389     1.0  0.82886  0.27515  0.10694  1.0000
  H   H1390     1.0  0.60903  0.29777  0.06952  1.0000
  H   H1391     1.0  0.85124  0.19440  0.11688  1.0000
  C   C826      1.0  0.55958  0.31946  0.01650  1.0000
  H   H1392     1.0  0.68470  0.01223  0.08339  1.0000
  C   C827      1.0  0.74634  0.02650  0.07619  1.0000
  H   H1393     1.0  0.85633  0.25379  0.14550  1.0000
  C   C828      1.0  0.74956  0.29809  0.00425  1.0000
  S   S250      1.0  0.91189  0.33334  0.06951  1.0000
  C   C829      1.0  0.80425  0.11692  0.23219  1.0000
  H   H1394     1.0  0.79625  0.19708  0.15532  1.0000
  N   N60       1.0  0.73251  0.04392  0.08577  1.0000
  C   C830      1.0  0.75408  0.07798  0.08285  1.0000
  H   H1395     1.0  0.54147  0.05497  0.20920  1.0000
  C   C831      1.0  0.70029  0.03734  0.08106  1.0000
  H   H1396     1.0  0.67741  0.03434  0.21071  1.0000
  C   C832      1.0  0.75697  0.09377  0.06633  1.0000
  H   H1397     1.0  0.82603  0.33086  0.05793  1.0000
  H   H1398     1.0  0.80504  0.19428  0.12185  1.0000
  H   H1399     1.0  0.54640  0.12354  0.12757  1.0000
  H   H1400     1.0  0.74654  0.09114  0.09095  1.0000
  H   H1401     1.0  0.77843  0.08239  0.08531  1.0000
  H   H1402     1.0  0.78210  0.28089  0.99470  1.0000
  H   H1403     1.0  0.75393  0.02580  0.12185  1.0000
  H   H1404     1.0  0.70123  0.04254  0.06828  1.0000
  H   H1405     1.0  0.82459  0.18951  0.14311  1.0000
  H   H1406     1.0  0.85205  0.32273  0.12092  1.0000
  H   H1407     1.0  0.63654  0.08775  0.08866  1.0000
  H   H1408     1.0  0.54876  0.31930  0.09068  1.0000
  H   H1409     1.0  0.73429  0.09349  0.06336  1.0000
  C   C833      1.0  0.76156  0.27876  0.03338  1.0000
  H   H1410     1.0  0.49731  0.04490  0.19443  1.0000
  H   H1411     1.0  0.57950  0.31106  0.09850  1.0000
  H   H1412     1.0  0.96435  0.28690  0.98836  1.0000
  H   H1413     1.0  0.64825  0.11843  0.13762  1.0000
  H   H1414     1.0  0.49122  0.03401  0.16590  1.0000
  H   H1415     1.0  0.77148  0.03290  0.07792  1.0000
  H   H1416     1.0  0.97485  0.33069  0.06167  1.0000
  C   C834      1.0  0.57294  0.02129  0.12326  1.0000
  H   H1417     1.0  0.75422  0.19174  0.12251  1.0000
  H   H1418     1.0  0.77982  0.05421  0.10675  1.0000
  H   H1419     1.0  0.86364  0.30220  0.13532  1.0000
  C   C835      1.0  0.68279  0.05417  0.08935  1.0000
  H   H1420     1.0  0.57082  0.10305  0.10868  1.0000
  H   H1421     1.0  0.74733  0.03330  0.06357  1.0000
  H   H1422     1.0  0.87558  0.21361  0.13182  1.0000
  H   H1423     1.0  0.63041  0.07018  0.11616  1.0000
  C   C836      1.0  0.55308  0.10486  0.13179  1.0000
  H   H1424     1.0  0.71804  0.31256  0.01713  1.0000
  C   C837      1.0  0.87856  0.24336  0.99201  1.0000
  H   H1425     1.0  0.64200  0.32291  0.00336  1.0000
  H   H1426     1.0  0.76340  0.01325  0.10416  1.0000
  C   C838      1.0  0.61909  0.32204  0.00703  1.0000
  H   H1427     1.0  0.54855  0.31241  0.04841  1.0000
  H   H1428     1.0  0.59146  0.29006  0.05185  1.0000
  H   H1429     1.0  0.53581  0.30897  0.06813  1.0000
  H   H1430     1.0  0.64514  0.32786  0.04763  1.0000
  H   H1431     1.0  0.58982  0.02274  0.11328  1.0000
  H   H1432     1.0  0.58246  0.01835  0.13423  1.0000
  C   C839      1.0  0.58826  0.29675  0.06374  1.0000
  H   H1433     1.0  0.70887  0.01148  0.10649  1.0000
  H   H1434     1.0  0.51522  0.06646  0.22013  1.0000
  C   C840      1.0  0.92617  0.32981  0.08748  1.0000
  H   H1435     1.0  0.81412  0.09951  0.23308  1.0000
  C   C841      1.0  0.55474  0.32433  0.05905  1.0000
  N   N61       1.0  0.58697  0.32790  0.06265  1.0000
  H   H1436     1.0  0.55813  0.29495  0.98853  1.0000
  H   H1437     1.0  0.51733  0.23394  0.98846  1.0000
  C   C842      1.0  0.49780  0.26874  0.98923  1.0000
  C   C843      1.0  0.49462  0.23564  0.98775  1.0000
  C   C844      1.0  0.49743  0.11807  0.43944  1.0000
  S   S251      1.0  0.95749  0.30567  0.31385  1.0000
  S   S252      1.0  0.94297  0.21433  0.31628  1.0000
  Fe  Fe130     1.0  0.77241  0.06722  0.30890  1.0000
  S   S253      1.0  0.72105  0.05493  0.30650  1.0000
  S   S254      1.0  0.79908  0.11839  0.31327  1.0000
  C   C845      1.0  0.77921  0.30327  0.45472  1.0000
  H   H1438     1.0  0.85583  0.19570  0.27158  1.0000
  Fe  Fe131     1.0  0.72669  0.03092  0.28589  1.0000
  H   H1439     1.0  0.61035  0.31573  0.39775  1.0000
  S   S255      1.0  0.76076  0.02373  0.32512  1.0000
  S   S256      1.0  0.77847  0.04601  0.28708  1.0000
  H   H1440     1.0  0.74816  0.22169  0.42260  1.0000
  H   H1441     1.0  0.74608  0.24900  0.40813  1.0000
  C   C846      1.0  0.64112  0.31359  0.37179  1.0000
  Fe  Fe132     1.0  0.63741  0.26808  0.44883  1.0000
  S   S257      1.0  0.61837  0.21381  0.44744  1.0000
  S   S258      1.0  0.60938  0.29378  0.44035  1.0000
  S   S259      1.0  0.68313  0.30420  0.43536  1.0000
  Fe  Fe133     1.0  0.62300  0.14494  0.37597  1.0000
  S   S260      1.0  0.61072  0.13552  0.40174  1.0000
  S   S261      1.0  0.60211  0.10332  0.36077  1.0000
  Fe  Fe134     1.0  0.66464  0.21808  0.37862  1.0000
  S   S262      1.0  0.65377  0.20999  0.40465  1.0000
  S   S263      1.0  0.69628  0.26817  0.36587  1.0000
  Fe  Fe135     1.0  0.66190  0.16676  0.40369  1.0000
  S   S264      1.0  0.69853  0.15375  0.41475  1.0000
  Fe  Fe136     1.0  0.60348  0.17951  0.40057  1.0000
  S   S265      1.0  0.56189  0.18978  0.40963  1.0000
  S   S266      1.0  0.67461  0.17575  0.37765  1.0000
  S   S267      1.0  0.61389  0.18826  0.37444  1.0000
  H   H1442     1.0  0.59543  0.23283  0.35388  1.0000
  S   S268      1.0  0.53499  0.06339  0.44834  1.0000
  S   S269      1.0  0.53217  0.02515  0.40811  1.0000
  C   C847      1.0  0.58129  0.06127  0.36100  1.0000
  C   C848      1.0  0.57061  0.04875  0.34714  1.0000
  H   H1443     1.0  0.57502  0.06430  0.33669  1.0000
  C   C849      1.0  0.59665  0.17144  0.44894  1.0000
  C   C850      1.0  0.60706  0.15359  0.43966  1.0000
  C   C851      1.0  0.58895  0.12107  0.43949  1.0000
  C   C852      1.0  0.56027  0.10480  0.44897  1.0000
  C   C853      1.0  0.55121  0.12222  0.45923  1.0000
  C   C854      1.0  0.56852  0.15500  0.45888  1.0000
  H   H1444     1.0  0.62903  0.16509  0.43224  1.0000
  H   H1445     1.0  0.59738  0.10845  0.43203  1.0000
  H   H1446     1.0  0.52943  0.11064  0.46685  1.0000
  H   H1447     1.0  0.55957  0.16770  0.46603  1.0000
  H   H1448     1.0  0.78611  0.24656  0.47143  1.0000
  H   H1449     1.0  0.78052  0.13779  0.24596  1.0000
  C   C855      1.0  0.72147  0.30978  0.36365  1.0000
  H   H1450     1.0  0.85669  0.12616  0.24984  1.0000
  S   S270      1.0  0.74363  0.13874  0.48173  1.0000
  H   H1451     1.0  0.90791  0.16232  0.35584  1.0000
  H   H1452     1.0  0.72943  0.31578  0.38766  1.0000
  H   H1453     1.0  0.71932  0.31329  0.33894  1.0000
  C   C856      1.0  0.73216  0.14398  0.46295  1.0000
  C   C857      1.0  0.75060  0.14588  0.44917  1.0000
  C   C858      1.0  0.74003  0.14929  0.43460  1.0000
  C   C859      1.0  0.71109  0.15122  0.43355  1.0000
  C   C860      1.0  0.69279  0.14974  0.44733  1.0000
  C   C861      1.0  0.70324  0.14604  0.46190  1.0000
  H   H1454     1.0  0.77286  0.14436  0.44974  1.0000
  H   H1455     1.0  0.75438  0.15029  0.42406  1.0000
  H   H1456     1.0  0.67033  0.15087  0.44680  1.0000
  H   H1457     1.0  0.68866  0.14446  0.47248  1.0000
  H   H1458     1.0  0.55618  0.28259  0.40969  1.0000
  C   C862      1.0  0.84468  0.00865  0.48560  1.0000
  N   N62       1.0  0.73672  0.25103  0.44866  1.0000
  H   H1459     1.0  0.87775  0.21546  0.25351  1.0000
  C   C863      1.0  0.52333  0.13606  0.42840  1.0000
  C   C864      1.0  0.53139  0.16742  0.42468  1.0000
  C   C865      1.0  0.51306  0.18064  0.43214  1.0000
  H   H1460     1.0  0.89686  0.23527  0.39704  1.0000
  H   H1461     1.0  0.97467  0.28798  0.37668  1.0000
  H   H1462     1.0  0.53711  0.12556  0.42273  1.0000
  H   H1463     1.0  0.51872  0.20481  0.42907  1.0000
  H   H1464     1.0  0.70312  0.04372  0.44006  1.0000
  H   H1465     1.0  0.69142  0.23554  0.47630  1.0000
  H   H1466     1.0  0.77559  0.10085  0.25435  1.0000
  C   C866      1.0  0.85385  0.11973  0.27493  1.0000
  C   C867      1.0  0.95905  0.26392  0.37461  1.0000
  C   C868      1.0  0.71143  0.03669  0.24458  1.0000
  H   H1467     1.0  0.51090  0.09080  0.36906  1.0000
  H   H1468     1.0  0.83601  0.10642  0.28491  1.0000
  C   C869      1.0  0.90319  0.18844  0.31421  1.0000
  C   C870      1.0  0.89495  0.15640  0.31510  1.0000
  C   C871      1.0  0.86351  0.13470  0.31449  1.0000
  C   C872      1.0  0.83961  0.14470  0.31321  1.0000
  C   C873      1.0  0.84786  0.17676  0.31219  1.0000
  C   C874      1.0  0.87940  0.19850  0.31252  1.0000
  H   H1469     1.0  0.91303  0.14823  0.31643  1.0000
  H   H1470     1.0  0.85773  0.11020  0.31535  1.0000
  H   H1471     1.0  0.82968  0.18489  0.31115  1.0000
  H   H1472     1.0  0.88521  0.22299  0.31170  1.0000
  H   H1473     1.0  0.55279  0.25253  0.39772  1.0000
  H   H1474     1.0  0.61341  0.02509  0.46573  1.0000
  C   C875      1.0  0.64955  0.28441  0.40183  1.0000
  C   C876      1.0  0.89579  0.17776  0.35725  1.0000
  N   N63       1.0  0.69377  0.09747  0.35306  1.0000
  C   C877      1.0  0.72261  0.09854  0.34370  1.0000
  C   C878      1.0  0.69148  0.12759  0.34912  1.0000
  C   C879      1.0  0.66411  0.07136  0.34933  1.0000
  C   C880      1.0  0.69698  0.09244  0.37011  1.0000
  C   C881      1.0  0.72754  0.06868  0.34518  1.0000
  C   C882      1.0  0.71961  0.15706  0.35259  1.0000
  C   C883      1.0  0.65768  0.07089  0.33215  1.0000
  C   C884      1.0  0.67090  0.09323  0.38172  1.0000
  H   H1475     1.0  0.72297  0.10537  0.33112  1.0000
  H   H1476     1.0  0.74442  0.11660  0.34728  1.0000
  H   H1477     1.0  0.66952  0.12722  0.35503  1.0000
  H   H1478     1.0  0.68959  0.13113  0.33649  1.0000
  H   H1479     1.0  0.66348  0.04864  0.35329  1.0000
  H   H1480     1.0  0.64307  0.07172  0.35579  1.0000
  H   H1481     1.0  0.69684  0.06938  0.37298  1.0000
  H   H1482     1.0  0.72002  0.10957  0.37307  1.0000
  H   H1483     1.0  0.74925  0.07272  0.33763  1.0000
  H   H1484     1.0  0.73155  0.06257  0.35712  1.0000
  H   H1485     1.0  0.70787  0.04899  0.34123  1.0000
  H   H1486     1.0  0.71451  0.17739  0.34971  1.0000
  H   H1487     1.0  0.72363  0.15658  0.36503  1.0000
  H   H1488     1.0  0.74157  0.16139  0.34517  1.0000
  H   H1489     1.0  0.63663  0.04917  0.33102  1.0000
  H   H1490     1.0  0.67727  0.07078  0.32436  1.0000
  H   H1491     1.0  0.65194  0.09027  0.32817  1.0000
  H   H1492     1.0  0.66984  0.11586  0.38066  1.0000
  H   H1493     1.0  0.67625  0.08946  0.39374  1.0000
  H   H1494     1.0  0.64732  0.07474  0.38057  1.0000
  H   H1495     1.0  0.51412  0.14016  0.37619  1.0000
  C   C885      1.0  0.86557  0.19220  0.26021  1.0000
  H   H1496     1.0  0.51018  0.15215  0.48414  1.0000
  H   H1497     1.0  0.61091  0.27149  0.34514  1.0000
  H   H1498     1.0  0.87852  0.26808  0.33280  1.0000
  H   H1499     1.0  0.67234  0.30228  0.39605  1.0000
  C   C886      1.0  0.49956  0.13047  0.38764  1.0000
  H   H1500     1.0  0.51738  0.13640  0.39608  1.0000
  H   H1501     1.0  0.65734  0.02391  0.42752  1.0000
  H   H1502     1.0  0.73184  0.27710  0.42830  1.0000
  H   H1503     1.0  0.49111  0.17153  0.38277  1.0000
  H   H1504     1.0  0.65500  0.26781  0.40917  1.0000
  C   C887      1.0  0.88622  0.26669  0.34454  1.0000
  H   H1505     1.0  0.69505  0.21046  0.44482  1.0000
  C   C888      1.0  0.53500  0.09223  0.38892  1.0000
  H   H1506     1.0  0.57839  0.27622  0.36499  1.0000
  C   C889      1.0  0.51369  0.21042  0.47413  1.0000
  H   H1507     1.0  0.63849  0.29495  0.40979  1.0000
  H   H1508     1.0  0.78927  0.11486  0.27967  1.0000
  H   H1509     1.0  0.87369  0.24352  0.37551  1.0000
  H   H1510     1.0  0.86799  0.14311  0.27815  1.0000
  C   C890      1.0  0.62752  0.26721  0.38997  1.0000
  S   S271      1.0  0.83570  0.14579  0.48165  1.0000
  H   H1511     1.0  0.75963  0.04415  0.24575  1.0000
  H   H1512     1.0  0.88392  0.18377  0.26181  1.0000
  H   H1513     1.0  0.86595  0.26305  0.35309  1.0000
  H   H1514     1.0  0.55092  0.11705  0.38567  1.0000
  C   C891      1.0  0.79354  0.12339  0.24832  1.0000
  H   H1515     1.0  0.54744  0.07895  0.38416  1.0000
  C   C892      1.0  0.63931  0.01919  0.43762  1.0000
  H   H1516     1.0  0.64098  0.25844  0.38228  1.0000
  H   H1517     1.0  0.57603  0.24292  0.37648  1.0000
  C   C893      1.0  0.74168  0.04195  0.23818  1.0000
  Fe  Fe137     1.0  0.97328  0.26710  0.31468  1.0000
  H   H1518     1.0  0.58045  0.26267  0.41211  1.0000
  H   H1519     1.0  0.97455  0.25451  0.36882  1.0000
  C   C894      1.0  0.73415  0.32736  0.37599  1.0000
  H   H1520     1.0  0.94844  0.27753  0.35276  1.0000
  H   H1521     1.0  0.87530  0.21873  0.34390  1.0000
  C   C895      1.0  0.76180  0.22997  0.46985  1.0000
  H   H1522     1.0  0.82137  0.14989  0.28236  1.0000
  H   H1523     1.0  0.68837  0.24388  0.44722  1.0000
  C   C896      1.0  0.70173  0.23090  0.45148  1.0000
  H   H1524     1.0  0.65775  0.30672  0.36501  1.0000
  H   H1525     1.0  0.59244  0.03018  0.45053  1.0000
  H   H1526     1.0  0.90248  0.20269  0.39033  1.0000
  H   H1527     1.0  0.74377  0.20901  0.44919  1.0000
  Fe  Fe138     1.0  0.70976  0.01064  0.32163  1.0000
  H   H1528     1.0  0.72965  0.29124  0.45441  1.0000
  C   C897      1.0  0.73689  0.23755  0.42016  1.0000
  N   N64       1.0  0.64314  0.04868  0.44433  1.0000
  C   C898      1.0  0.61476  0.04180  0.45584  1.0000
  C   C899      1.0  0.88115  0.22455  0.37399  1.0000
  C   C900      1.0  0.64597  0.07233  0.43117  1.0000
  C   C901      1.0  0.67230  0.06143  0.45265  1.0000
  C   C902      1.0  0.61369  0.06977  0.46332  1.0000
  H   H1529     1.0  0.66497  0.03002  0.23936  1.0000
  C   C903      1.0  0.61744  0.06380  0.42174  1.0000
  C   C904      1.0  0.70340  0.06584  0.44329  1.0000
  C   C905      1.0  0.80372  0.13902  0.27424  1.0000
  C   C906      1.0  0.83805  0.11949  0.25985  1.0000
  H   H1530     1.0  0.71121  0.22396  0.42009  1.0000
  H   H1531     1.0  0.76994  0.27792  0.42868  1.0000
  H   H1532     1.0  0.65106  0.09523  0.43534  1.0000
  H   H1533     1.0  0.66641  0.07671  0.42254  1.0000
  H   H1534     1.0  0.67630  0.08452  0.45626  1.0000
  H   H1535     1.0  0.66935  0.04666  0.46368  1.0000
  H   H1536     1.0  0.59077  0.06217  0.47062  1.0000
  H   H1537     1.0  0.63251  0.07935  0.47106  1.0000
  H   H1538     1.0  0.61515  0.08837  0.45462  1.0000
  H   H1539     1.0  0.51121  0.25473  0.46700  1.0000
  C   C907      1.0  0.83993  0.17097  0.25086  1.0000
  H   H1540     1.0  0.62205  0.08351  0.41293  1.0000
  H   H1541     1.0  0.59526  0.05926  0.42900  1.0000
  H   H1542     1.0  0.61420  0.04389  0.41513  1.0000
  H   H1543     1.0  0.79433  0.18031  0.26943  1.0000
  H   H1544     1.0  0.72292  0.07577  0.45066  1.0000
  H   H1545     1.0  0.70939  0.08234  0.43269  1.0000
  S   S272      1.0  0.64828  0.29390  0.47036  1.0000
  H   H1546     1.0  0.53187  0.08694  0.40172  1.0000
  H   H1547     1.0  0.78406  0.31862  0.46420  1.0000
  H   H1548     1.0  0.58443  0.04866  0.38486  1.0000
  C   C908      1.0  0.59499  0.29689  0.39125  1.0000
  C   C909      1.0  0.74439  0.26260  0.43153  1.0000
  H   H1549     1.0  0.76033  0.14351  0.26905  1.0000
  C   C910      1.0  0.57554  0.03999  0.37418  1.0000
  C   C911      1.0  0.75538  0.23282  0.45266  1.0000
  S   S273      1.0  0.70104  0.03359  0.26493  1.0000
  H   H1550     1.0  0.88401  0.17737  0.34662  1.0000
  H   H1551     1.0  0.93255  0.20725  0.36948  1.0000
  H   H1552     1.0  0.78365  0.31838  0.44367  1.0000
  H   H1553     1.0  0.76110  0.20671  0.47287  1.0000
  C   C912      1.0  0.74454  0.27905  0.45745  1.0000
  C   C913      1.0  0.68792  0.21743  0.46838  1.0000
  H   H1554     1.0  0.77901  0.24347  0.44575  1.0000
  C   C914      1.0  0.60972  0.25717  0.35600  1.0000
  Fe  Fe139     1.0  0.51958  0.01970  0.43395  1.0000
  H   H1555     1.0  0.86432  0.19800  0.39677  1.0000
  Fe  Fe140     1.0  0.76296  0.00167  0.30305  1.0000
  Fe  Fe141     1.0  0.62023  0.31999  0.46129  1.0000
  H   H1556     1.0  0.92481  0.28076  0.36882  1.0000
  C   C915      1.0  0.56977  0.27195  0.40327  1.0000
  C   C916      1.0  0.59299  0.26526  0.36992  1.0000
  C   C917      1.0  0.89617  0.23970  0.34609  1.0000
  N   N65       1.0  0.61423  0.28581  0.38069  1.0000
  H   H1557     1.0  0.63354  0.25906  0.35768  1.0000
  H   H1558     1.0  0.60855  0.24589  0.39623  1.0000
  H   H1559     1.0  0.86985  0.10809  0.27346  1.0000
  H   H1560     1.0  0.90601  0.28945  0.34542  1.0000
  N   N66       1.0  0.81936  0.13868  0.25849  1.0000
  C   C918      1.0  0.55450  0.01632  0.34649  1.0000
  H   H1561     1.0  0.73874  0.27280  0.47017  1.0000
  C   C919      1.0  0.78202  0.15592  0.27465  1.0000
  C   C920      1.0  0.88704  0.21491  0.39036  1.0000
  H   H1562     1.0  0.87792  0.16755  0.36753  1.0000
  C   C921      1.0  0.92055  0.21041  0.35942  1.0000
  H   H1563     1.0  0.58234  0.30758  0.38434  1.0000
  H   H1564     1.0  0.52234  0.19536  0.46788  1.0000
  H   H1565     1.0  0.54712  0.25278  0.45948  1.0000
  H   H1566     1.0  0.77416  0.15636  0.28701  1.0000
  H   H1567     1.0  0.56930  0.21363  0.47879  1.0000
  H   H1568     1.0  0.93920  0.21805  0.34935  1.0000
  H   H1569     1.0  0.94846  0.25074  0.38609  1.0000
  H   H1570     1.0  0.85957  0.20550  0.37074  1.0000
  C   C922      1.0  0.93446  0.26504  0.36401  1.0000
  H   H1571     1.0  0.91445  0.24413  0.33614  1.0000
  N   N67       1.0  0.90816  0.23465  0.36128  1.0000
  H   H1572     1.0  0.66203  0.20397  0.46864  1.0000
  C   C923      1.0  0.52238  0.33237  0.48225  1.0000
  H   H1573     1.0  0.49194  0.05723  0.38257  1.0000
  H   H1574     1.0  0.51110  0.23181  0.45162  1.0000
  S   S274      1.0  0.84553  0.06670  0.48647  1.0000
  H   H1575     1.0  0.82261  0.09452  0.25927  1.0000
  C   C924      1.0  0.52141  0.23930  0.46256  1.0000
  H   H1576     1.0  0.74485  0.23237  0.47856  1.0000
  H   H1577     1.0  0.69702  0.20080  0.47277  1.0000
  H   H1578     1.0  0.79621  0.29276  0.45467  1.0000
  H   H1579     1.0  0.57312  0.25179  0.47964  1.0000
  H   H1580     1.0  0.61750  0.32115  0.35174  1.0000
  C   C925      1.0  0.50370  0.08300  0.38165  1.0000
  H   H1581     1.0  0.82524  0.18330  0.24777  1.0000
  H   H1582     1.0  0.85663  0.01744  0.47398  1.0000
  C   C926      1.0  0.55839  0.00734  0.37362  1.0000
  H   H1583     1.0  0.54733  0.00778  0.33552  1.0000
  C   C927      1.0  0.72852  0.32594  0.34868  1.0000
  C   C928      1.0  0.56268  0.22842  0.48633  1.0000
  H   H1584     1.0  0.65804  0.01316  0.39354  1.0000
  H   H1585     1.0  0.61623  0.00868  0.43288  1.0000
  H   H1586     1.0  0.68741  0.01344  0.36834  1.0000
  S   S275      1.0  0.57667  0.32544  0.47329  1.0000
  H   H1587     1.0  0.85261  0.17022  0.23967  1.0000
  H   H1588     1.0  0.65572  0.32927  0.37988  1.0000
  H   H1589     1.0  0.79716  0.00593  0.24569  1.0000
  H   H1590     1.0  0.49016  0.08967  0.41231  1.0000
  H   H1591     1.0  0.49163  0.09377  0.44219  1.0000
  Fe  Fe142     1.0  0.65550  0.33149  0.42953  1.0000
  Fe  Fe143     1.0  0.69329  0.33136  0.45613  1.0000
  C   C929      1.0  0.63171  0.33406  0.36069  1.0000
  Fe  Fe144     1.0  0.85297  0.17100  0.50271  1.0000
  S   S276      1.0  0.80357  0.16261  0.51243  1.0000
  H   H1592     1.0  0.74892  0.05218  0.73028  1.0000
  C   C930      1.0  0.97291  0.26797  0.53769  1.0000
  S   S277      1.0  0.78032  0.09071  0.50551  1.0000
  H   H1593     1.0  0.71655  0.15729  0.61270  1.0000
  Fe  Fe145     1.0  0.80072  0.11883  0.52514  1.0000
  S   S278      1.0  0.77498  0.09471  0.54911  1.0000
  S   S279      1.0  0.85103  0.12853  0.51691  1.0000
  H   H1594     1.0  0.67225  0.09299  0.56157  1.0000
  Fe  Fe146     1.0  0.72801  0.12985  0.67046  1.0000
  S   S280      1.0  0.69302  0.08035  0.67632  1.0000
  S   S281      1.0  0.73046  0.16212  0.68886  1.0000
  Fe  Fe147     1.0  0.74501  0.11943  0.63731  1.0000
  S   S282      1.0  0.71191  0.06897  0.64069  1.0000
  S   S283      1.0  0.77377  0.14721  0.61479  1.0000
  Fe  Fe148     1.0  0.67782  0.08430  0.65271  1.0000
  S   S284      1.0  0.62605  0.05915  0.65020  1.0000
  Fe  Fe149     1.0  0.72958  0.06861  0.66413  1.0000
  H   H1595     1.0  0.68890  0.07409  0.57470  1.0000
  S   S285      1.0  0.70927  0.13489  0.64779  1.0000
  S   S286      1.0  0.76615  0.11806  0.65982  1.0000
  S   S287      1.0  0.54896  0.13811  0.63664  1.0000
  C   C931      1.0  0.65505  0.20244  0.67151  1.0000
  Fe  Fe150     1.0  0.83052  0.10253  0.49661  1.0000
  H   H1596     1.0  0.50921  0.14006  0.50413  1.0000
  H   H1597     1.0  0.65128  0.05150  0.59773  1.0000
  H   H1598     1.0  0.96249  0.28206  0.72587  1.0000
  H   H1599     1.0  0.96383  0.32504  0.53388  1.0000
  C   C932      1.0  0.76606  0.18170  0.69700  1.0000
  C   C933      1.0  0.76662  0.19976  0.70922  1.0000
  C   C934      1.0  0.79419  0.21409  0.71654  1.0000
  C   C935      1.0  0.82124  0.21014  0.71175  1.0000
  C   C936      1.0  0.82070  0.19229  0.69946  1.0000
  C   C937      1.0  0.79334  0.17834  0.69203  1.0000
  H   H1600     1.0  0.74561  0.20246  0.71314  1.0000
  C   C938      1.0  0.72223  0.10744  0.72843  1.0000
  H   H1601     1.0  0.84141  0.18890  0.69577  1.0000
  H   H1602     1.0  0.79323  0.16457  0.68263  1.0000
  H   H1603     1.0  0.71341  0.10341  0.55981  1.0000
  H   H1604     1.0  0.71046  0.18983  0.60547  1.0000
  H   H1605     1.0  0.59074  0.07872  0.59635  1.0000
  C   C939      1.0  0.60485  0.08101  0.64575  1.0000
  C   C940      1.0  0.57181  0.06682  0.64811  1.0000
  C   C941      1.0  0.55433  0.08400  0.64517  1.0000
  C   C942      1.0  0.56985  0.11537  0.63960  1.0000
  C   C943      1.0  0.60288  0.12939  0.63688  1.0000
  C   C944      1.0  0.62037  0.11234  0.64007  1.0000
  H   H1606     1.0  0.55963  0.04255  0.65244  1.0000
  H   H1607     1.0  0.52886  0.07301  0.64728  1.0000
  H   H1608     1.0  0.61493  0.15366  0.63254  1.0000
  H   H1609     1.0  0.64579  0.12346  0.63817  1.0000
  Fe  Fe151     1.0  0.49583  0.11597  0.64259  1.0000
  H   H1610     1.0  0.50402  0.26474  0.70416  1.0000
  C   C945      1.0  0.77644  0.10994  0.56730  1.0000
  C   C946      1.0  0.76082  0.08942  0.58075  1.0000
  C   C947      1.0  0.76035  0.10040  0.59541  1.0000
  C   C948      1.0  0.77527  0.13213  0.59675  1.0000
  C   C949      1.0  0.79097  0.15266  0.58333  1.0000
  C   C950      1.0  0.79159  0.14166  0.56867  1.0000
  H   H1611     1.0  0.74912  0.06485  0.57980  1.0000
  H   H1612     1.0  0.74856  0.08434  0.60566  1.0000
  H   H1613     1.0  0.80261  0.17726  0.58425  1.0000
  H   H1614     1.0  0.80361  0.15768  0.55841  1.0000
  H   H1615     1.0  0.96800  0.26567  0.68539  1.0000
  H   H1616     1.0  0.70329  0.10717  0.72137  1.0000
  C   C951      1.0  0.93114  0.24484  0.49897  1.0000
  H   H1617     1.0  0.54599  0.16617  0.49373  1.0000
  H   H1618     1.0  0.66324  0.12658  0.68697  1.0000
  Fe  Fe152     1.0  0.78637  0.13530  0.49209  1.0000
  H   H1619     1.0  0.49547  0.24790  0.68651  1.0000
  H   H1620     1.0  0.69076  0.00170  0.65116  1.0000
  H   H1621     1.0  0.96388  0.29204  0.55596  1.0000
  H   H1622     1.0  0.63290  0.20529  0.67286  1.0000
  H   H1623     1.0  0.92948  0.03009  0.51782  1.0000
  H   H1624     1.0  0.52018  0.19105  0.51219  1.0000
  H   H1625     1.0  0.66852  0.21623  0.66043  1.0000
  C   C952      1.0  0.51315  0.18695  0.50025  1.0000
  H   H1626     1.0  0.77051  0.07846  0.69467  1.0000
  H   H1627     1.0  0.91336  0.04507  0.50314  1.0000
  H   H1628     1.0  0.66414  0.14597  0.71046  1.0000
  C   C953      1.0  0.63838  0.11838  0.68435  1.0000
  H   H1629     1.0  0.78001  0.05433  0.70861  1.0000
  H   H1630     1.0  0.81355  0.03084  0.51650  1.0000
  H   H1631     1.0  0.59441  0.07700  0.69249  1.0000
  C   C954      1.0  0.90655  0.28661  0.68564  1.0000
  C   C955      1.0  0.66039  0.16649  0.70626  1.0000
  H   H1632     1.0  0.89654  0.22518  0.68974  1.0000
  C   C956      1.0  0.58061  0.23164  0.50082  1.0000
  C   C957      1.0  0.78866  0.07745  0.70191  1.0000
  C   C958      1.0  0.51995  0.24072  0.49693  1.0000
  H   H1633     1.0  0.68087  0.18202  0.69796  1.0000
  H   H1634     1.0  0.93783  0.31342  0.70999  1.0000
  C   C959      1.0  0.79946  0.10395  0.71243  1.0000
  H   H1635     1.0  0.59267  0.16754  0.66320  1.0000
  H   H1636     1.0  0.70507  0.04222  0.69861  1.0000
  C   C960      1.0  0.94311  0.27733  0.49859  1.0000
  H   H1637     1.0  0.66188  0.04959  0.61663  1.0000
  C   C961      1.0  0.59475  0.13119  0.67940  1.0000
  C   C962      1.0  0.58123  0.15437  0.67468  1.0000
  H   H1638     1.0  0.57804  0.24883  0.50810  1.0000
  H   H1639     1.0  0.57813  0.11534  0.68928  1.0000
  H   H1640     1.0  0.82122  0.10461  0.71688  1.0000
  H   H1641     1.0  0.50723  0.17819  0.71085  1.0000
  H   H1642     1.0  0.58251  0.17009  0.68370  1.0000
  H   H1643     1.0  0.94205  0.26269  0.67132  1.0000
  H   H1644     1.0  0.80745  0.12607  0.70472  1.0000
  S   S288      1.0  0.73841  0.02764  0.67326  1.0000
  H   H1645     1.0  0.80903  0.07999  0.69365  1.0000
  H   H1646     1.0  0.66929  0.21316  0.68094  1.0000
  N   N68       1.0  0.52734  0.21659  0.48943  1.0000
  H   H1647     1.0  0.68526  0.01758  0.72560  1.0000
  C   C963      1.0  0.82038  0.01628  0.50948  1.0000
  H   H1648     1.0  0.53248  0.26383  0.49005  1.0000
  H   H1649     1.0  0.61174  0.11290  0.60511  1.0000
  C   C964      1.0  0.83595  0.02804  0.49450  1.0000
  H   H1650     1.0  0.50258  0.27146  0.66143  1.0000
  H   H1651     1.0  0.59234  0.11662  0.66968  1.0000
  H   H1652     1.0  0.90306  0.28095  0.67345  1.0000
  C   C965      1.0  0.76335  0.07270  0.73611  1.0000
  C   C966      1.0  0.97592  0.29632  0.49652  1.0000
  H   H1653     1.0  0.90041  0.32150  0.69943  1.0000
  S   S289      1.0  0.87328  0.30947  0.73252  1.0000
  C   C967      1.0  0.98549  0.25066  0.49524  1.0000
  H   H1654     1.0  0.98788  0.27286  0.56077  1.0000
  H   H1655     1.0  0.55588  0.14131  0.67319  1.0000
  C   C968      1.0  0.72365  0.00990  0.69244  1.0000
  H   H1656     1.0  0.75565  0.12179  0.70797  1.0000
  H   H1657     1.0  0.52890  0.24405  0.50851  1.0000
  C   C969      1.0  0.92108  0.23156  0.69235  1.0000
  H   H1658     1.0  0.65990  0.17913  0.71649  1.0000
  H   H1659     1.0  0.78671  0.15052  0.72794  1.0000
  S   S290      1.0  0.50341  0.29006  0.73536  1.0000
  H   H1660     1.0  0.69165  0.05988  0.60034  1.0000
  C   C970      1.0  0.67049  0.06284  0.60492  1.0000
  H   H1661     1.0  0.61005  0.14012  0.70785  1.0000
  H   H1662     1.0  0.73493  0.08137  0.71248  1.0000
  H   H1663     1.0  0.92801  0.21364  0.68809  1.0000
  N   N69       1.0  0.62815  0.14447  0.68361  1.0000
  H   H1664     1.0  0.57357  0.20922  0.50797  1.0000
  H   H1665     1.0  0.64311  0.16174  0.65925  1.0000
  H   H1666     1.0  0.52089  0.31699  0.49233  1.0000
  S   S291      1.0  0.85550  0.22520  0.72137  1.0000
  C   C971      1.0  0.61829  0.08987  0.69605  1.0000
  H   H1667     1.0  0.96278  0.24305  0.54217  1.0000
  C   C972      1.0  0.91367  0.02342  0.50853  1.0000
  H   H1668     1.0  0.66755  0.00832  0.67851  1.0000
  C   C973      1.0  0.70822  0.02197  0.70254  1.0000
  C   C974      1.0  0.93987  0.29229  0.70664  1.0000
  H   H1669     1.0  0.62331  0.17743  0.69839  1.0000
  N   N70       1.0  0.77525  0.10231  0.72533  1.0000
  N   N71       1.0  0.93897  0.29074  0.68934  1.0000
  C   C975      1.0  0.96931  0.29263  0.71359  1.0000
  H   H1670     1.0  0.95320  0.27146  0.53288  1.0000
  H   H1671     1.0  0.64680  0.00503  0.66227  1.0000
  C   C976      1.0  0.69678  0.00779  0.71779  1.0000
  C   C977      1.0  0.92466  0.00806  0.49579  1.0000
  C   C978      1.0  0.49772  0.26858  0.69234  1.0000
  C   C979      1.0  0.94393  0.26353  0.68404  1.0000
  C   C980      1.0  0.65040  0.16855  0.67086  1.0000
  H   H1672     1.0  0.83929  0.15296  0.72633  1.0000
  H   H1673     1.0  0.67468  0.16970  0.67059  1.0000
  H   H1674     1.0  0.62969  0.07365  0.69621  1.0000
  H   H1675     1.0  0.92679  0.28786  0.49981  1.0000
  C   C981      1.0  0.95266  0.23165  0.49729  1.0000
  H   H1676     1.0  0.88779  0.26678  0.69317  1.0000
  H   H1677     1.0  0.79434  0.22770  0.72605  1.0000
  C   C982      1.0  0.74755  0.10306  0.71776  1.0000
  N   N72       1.0  0.67351  0.11573  0.59293  1.0000
  C   C983      1.0  0.67740  0.14658  0.59811  1.0000
  C   C984      1.0  0.64077  0.10047  0.58804  1.0000
  C   C985      1.0  0.69792  0.12210  0.57919  1.0000
  C   C986      1.0  0.67867  0.09728  0.60639  1.0000
  C   C987      1.0  0.71043  0.16765  0.60237  1.0000
  C   C988      1.0  0.61337  0.09206  0.60104  1.0000
  C   C989      1.0  0.69225  0.09630  0.56843  1.0000
  H   H1678     1.0  0.67156  0.16021  0.58893  1.0000
  H   H1679     1.0  0.66081  0.14342  0.60860  1.0000
  H   H1680     1.0  0.63663  0.07881  0.58279  1.0000
  H   H1681     1.0  0.63765  0.11564  0.57859  1.0000
  H   H1682     1.0  0.70053  0.14282  0.57143  1.0000
  H   H1683     1.0  0.72154  0.12796  0.58312  1.0000
  H   H1684     1.0  0.70382  0.10786  0.60867  1.0000
  H   H1685     1.0  0.66595  0.09854  0.61750  1.0000
  H   H1686     1.0  0.72923  0.17358  0.59258  1.0000
  H   H1687     1.0  0.87374  0.30800  0.68521  1.0000
  H   H1688     1.0  0.61488  0.07719  0.61104  1.0000
  C   C990      1.0  0.52041  0.16016  0.49505  1.0000
  H   H1689     1.0  0.61655  0.09595  0.70808  1.0000
  H   H1690     1.0  0.63854  0.10982  0.67269  1.0000
  H   H1691     1.0  0.91877  0.27344  0.71339  1.0000
  S   S292      1.0  0.88930  0.22226  0.50161  1.0000
  H   H1692     1.0  0.92188  0.23032  0.70513  1.0000
  C   C991      1.0  0.62895  0.15705  0.69912  1.0000
  H   H1693     1.0  0.90599  0.00185  0.48780  1.0000
  H   H1694     1.0  0.97780  0.01146  0.50517  1.0000
  H   H1695     1.0  0.95570  0.32347  0.66851  1.0000
  H   H1696     1.0  0.88899  0.00864  0.51347  1.0000
  H   H1697     1.0  0.94400  0.20679  0.49754  1.0000
  H   H1698     1.0  0.50043  0.31289  0.66873  1.0000
  H   H1699     1.0  0.94624  0.02634  0.48899  1.0000
  H   H1700     1.0  0.62542  0.02659  0.68147  1.0000
  H   H1701     1.0  0.51746  0.28977  0.68645  1.0000
  C   C992      1.0  0.89857  0.31458  0.68750  1.0000
  H   H1702     1.0  0.97987  0.27870  0.70791  1.0000
  C   C993      1.0  0.96277  0.32048  0.68030  1.0000
  H   H1703     1.0  0.60616  0.24024  0.49691  1.0000
  H   H1704     1.0  0.98453  0.32117  0.49601  1.0000
  H   H1705     1.0  0.98744  0.31670  0.71356  1.0000
  H   H1706     1.0  0.73167  0.13015  0.73319  1.0000
  C   C994      1.0  0.98431  0.28772  0.55136  1.0000
  C   C995      1.0  0.78844  0.13029  0.73425  1.0000
  C   C996      1.0  0.61933  0.00150  0.68368  1.0000
  Fe  Fe153     1.0  0.86545  0.18610  0.90348  1.0000
  S   S293      1.0  0.85108  0.22568  0.90238  1.0000
  S   S294      1.0  0.82528  0.13852  0.90355  1.0000
  S   S295      1.0  0.92509  0.27182  0.90270  1.0000
  Fe  Fe154     1.0  0.88393  0.24396  0.92063  1.0000
  S   S296      1.0  0.87155  0.26742  0.94045  1.0000
  Fe  Fe155     1.0  0.89324  0.24982  0.88459  1.0000
  S   S297      1.0  0.89506  0.28185  0.86345  1.0000
  S   S298      1.0  0.89549  0.20286  0.92294  1.0000
  S   S299      1.0  0.90543  0.20916  0.88439  1.0000
  H   H1707     1.0  0.61162  0.25993  0.77884  1.0000
  H   H1708     1.0  0.96958  0.31031  0.81787  1.0000
  C   C997      1.0  0.52001  0.32436  0.97945  1.0000
  H   H1709     1.0  0.78052  0.06348  0.93801  1.0000
  C   C998      1.0  0.80760  0.25431  0.83296  1.0000
  Fe  Fe156     1.0  0.93457  0.22964  0.90372  1.0000
  H   H1710     1.0  0.72513  0.24738  0.84526  1.0000
  Fe  Fe157     1.0  0.88002  0.27152  0.77271  1.0000
  H   H1711     1.0  0.76420  0.22990  0.85748  1.0000
  S   S300      1.0  0.88215  0.24332  0.79453  1.0000
  Fe  Fe158     1.0  0.84830  0.30655  0.75619  1.0000
  H   H1712     1.0  0.60093  0.32037  0.96750  1.0000
  H   H1713     1.0  0.78607  0.02845  0.89669  1.0000
  S   S301      1.0  0.83441  0.25562  0.76185  1.0000
  S   S302      1.0  0.90770  0.27160  0.75044  1.0000
  C   C999      1.0  0.96671  0.21371  0.94757  1.0000
  H   H1714     1.0  0.96461  0.19676  0.85392  1.0000
  H   H1715     1.0  0.71104  0.08845  0.73801  1.0000
  H   H1716     1.0  0.79288  0.07642  0.75512  1.0000
  C   C1000     1.0  0.69559  0.27482  0.75352  1.0000
  H   H1717     1.0  0.52414  0.30392  0.95138  1.0000
  S   S303      1.0  0.98365  0.23161  0.90389  1.0000
  H   H1718     1.0  0.80778  0.33352  0.85406  1.0000
  H   H1719     1.0  0.97999  0.26888  0.87333  1.0000
  H   H1720     1.0  0.77296  0.26294  0.86748  1.0000
  C   C1001     1.0  0.96360  0.21847  0.84916  1.0000
  C   C1002     1.0  0.62249  0.26791  0.76661  1.0000
  H   H1721     1.0  0.77006  0.03070  0.97305  1.0000
  H   H1722     1.0  0.55272  0.27366  0.97227  1.0000
  H   H1723     1.0  0.83874  0.07150  0.95488  1.0000
  C   C1003     1.0  0.77130  0.29404  0.94570  1.0000
  H   H1724     1.0  0.74599  0.23559  0.83075  1.0000
  Fe  Fe159     1.0  0.51345  0.30300  0.75950  1.0000
  H   H1725     1.0  0.82984  0.10050  0.94520  1.0000
  C   C1004     1.0  0.89316  0.27117  0.84427  1.0000
  C   C1005     1.0  0.88686  0.24095  0.84120  1.0000
  C   C1006     1.0  0.88403  0.23298  0.82586  1.0000
  C   C1007     1.0  0.88729  0.25503  0.81346  1.0000
  C   C1008     1.0  0.89409  0.28540  0.81650  1.0000
  C   C1009     1.0  0.89705  0.29341  0.83184  1.0000
  H   H1726     1.0  0.88366  0.22357  0.85066  1.0000
  H   H1727     1.0  0.87879  0.20943  0.82360  1.0000
  H   H1728     1.0  0.89686  0.30261  0.80704  1.0000
  H   H1729     1.0  0.95281  0.20478  0.95912  1.0000
  C   C1010     1.0  0.87341  0.25706  0.96029  1.0000
  C   C1011     1.0  0.86702  0.27374  0.97178  1.0000
  C   C1012     1.0  0.88174  0.23308  0.96479  1.0000
  H   H1730     1.0  0.86048  0.29228  0.96844  1.0000
  H   H1731     1.0  0.88606  0.21961  0.95615  1.0000
  C   C1013     1.0  0.83435  0.04670  0.90157  1.0000
  C   C1014     1.0  0.80619  0.04872  0.89903  1.0000
  C   C1015     1.0  0.80398  0.07711  0.89951  1.0000
  C   C1016     1.0  0.83002  0.10389  0.90228  1.0000
  C   C1017     1.0  0.85845  0.10210  0.90452  1.0000
  C   C1018     1.0  0.86055  0.07355  0.90420  1.0000
  H   H1732     1.0  0.78197  0.07835  0.89768  1.0000
  H   H1733     1.0  0.87866  0.12259  0.90668  1.0000
  H   H1734     1.0  0.88247  0.07222  0.90614  1.0000
  H   H1735     1.0  0.65290  0.31073  0.75263  1.0000
  H   H1736     1.0  0.55295  0.28343  0.78154  1.0000
  C   C1019     1.0  0.57846  0.32267  0.96670  1.0000
  H   H1737     1.0  0.50568  0.25419  0.83735  1.0000
  H   H1738     1.0  0.75337  0.27927  0.93850  1.0000
  C   C1020     1.0  0.67252  0.28395  0.78603  1.0000
  C   C1021     1.0  0.79607  0.28063  0.94620  1.0000
  H   H1739     1.0  0.97587  0.19664  0.94433  1.0000
  H   H1740     1.0  0.83428  0.29158  0.81402  1.0000
  H   H1741     1.0  0.81169  0.28631  0.93513  1.0000
  C   C1022     1.0  0.78394  0.25209  0.85945  1.0000
  C   C1023     1.0  0.52916  0.26726  0.83072  1.0000
  H   H1742     1.0  0.84261  0.03237  0.93792  1.0000
  C   C1024     1.0  0.77375  0.28205  0.83835  1.0000
  H   H1743     1.0  0.57498  0.32381  0.95421  1.0000
  C   C1025     1.0  0.49453  0.30643  0.83904  1.0000
  H   H1744     1.0  0.52772  0.26645  0.81809  1.0000
  C   C1026     1.0  0.82690  0.30096  0.84643  1.0000
  H   H1745     1.0  0.81046  0.28829  0.95600  1.0000
  C   C1027     1.0  0.55152  0.29467  0.97649  1.0000
  H   H1746     1.0  0.81152  0.05462  0.93105  1.0000
  H   H1747     1.0  0.95878  0.21599  0.83685  1.0000
  S   S304      1.0  0.83710  0.01081  0.90231  1.0000
  H   H1748     1.0  0.75895  0.28954  0.95770  1.0000
  H   H1749     1.0  0.55197  0.33078  0.80823  1.0000
  H   H1750     1.0  0.81025  0.07153  0.73672  1.0000
  C   C1028     1.0  0.97940  0.31153  0.82923  1.0000
  H   H1751     1.0  0.80606  0.07919  0.96275  1.0000
  H   H1752     1.0  0.72625  0.02108  0.93837  1.0000
  C   C1029     1.0  0.57226  0.30260  0.78537  1.0000
  H   H1753     1.0  0.70800  0.30981  0.80136  1.0000
  C   C1030     1.0  0.73675  0.00981  0.93051  1.0000
  H   H1754     1.0  0.77851  0.03979  0.74709  1.0000
  H   H1755     1.0  0.78235  0.31177  0.91691  1.0000
  H   H1756     1.0  0.84598  0.29483  0.84999  1.0000
  H   H1757     1.0  0.63622  0.31453  0.77088  1.0000
  C   C1031     1.0  0.96201  0.30512  0.93781  1.0000
  H   H1758     1.0  0.78369  0.29947  0.82797  1.0000
  H   H1759     1.0  0.70688  0.32291  0.74955  1.0000
  H   H1760     1.0  0.74682  0.02539  0.91951  1.0000
  C   C1032     1.0  0.79709  0.05391  0.94190  1.0000
  H   H1761     1.0  0.78378  0.25498  0.94835  1.0000
  H   H1762     1.0  0.77875  0.00285  0.92738  1.0000
  H   H1763     1.0  0.82492  0.26371  0.87291  1.0000
  H   H1764     1.0  0.71588  0.27741  0.74517  1.0000
  H   H1765     1.0  0.94978  0.24417  0.96982  1.0000
  C   C1033     1.0  0.82759  0.00900  0.94392  1.0000
  H   H1766     1.0  0.95558  0.26306  0.83482  1.0000
  C   C1034     1.0  0.81905  0.07724  0.95198  1.0000
  C   C1035     1.0  0.79679  0.33222  0.92281  1.0000
  H   H1767     1.0  0.82866  0.16086  0.74509  1.0000
  H   H1768     1.0  0.90213  0.31692  0.83410  1.0000
  H   H1769     1.0  0.69272  0.25638  0.76276  1.0000
  H   H1770     1.0  0.60326  0.26717  0.75965  1.0000
  H   H1771     1.0  0.82911  0.25200  0.83614  1.0000
  H   H1772     1.0  0.58176  0.27400  0.80268  1.0000
  C   C1036     1.0  0.58863  0.29732  0.79733  1.0000
  H   H1773     1.0  0.49949  0.28153  0.86043  1.0000
  H   H1774     1.0  0.95110  0.21425  0.93870  1.0000
  H   H1775     1.0  0.65360  0.28433  0.79443  1.0000
  C   C1037     1.0  0.96344  0.27356  0.94092  1.0000
  N   N73       1.0  0.79799  0.27234  0.84428  1.0000
  C   C1038     1.0  0.75695  0.02094  0.96305  1.0000
  H   H1776     1.0  0.79378  0.26823  0.81083  1.0000
  C   C1039     1.0  0.80687  0.24336  0.86839  1.0000
  C   C1040     1.0  0.74281  0.25563  0.83481  1.0000
  H   H1777     1.0  0.82909  0.12416  0.74296  1.0000
  H   H1778     1.0  0.95923  0.31535  0.94854  1.0000
  Fe  Fe160     1.0  0.91610  0.32120  0.74515  1.0000
  H   H1779     1.0  0.78959  0.22998  0.83353  1.0000
  H   H1780     1.0  0.82271  0.25332  0.80876  1.0000
  C   C1041     1.0  0.72711  0.31798  0.93378  1.0000
  H   H1781     1.0  0.82098  0.33318  0.92198  1.0000
  C   C1042     1.0  0.97616  0.28082  0.86271  1.0000
  C   C1043     1.0  0.81485  0.26801  0.81574  1.0000
  H   H1782     1.0  0.79346  0.22656  0.87866  1.0000
  N   N74       1.0  0.51869  0.29311  0.97635  1.0000
  H   H1783     1.0  0.73313  0.26431  0.82522  1.0000
  H   H1784     1.0  0.50859  0.31495  0.79305  1.0000
  H   H1785     1.0  0.69371  0.26895  0.80444  1.0000
  H   H1786     1.0  0.96836  0.26721  0.92922  1.0000
  H   H1787     1.0  0.51192  0.26462  0.95711  1.0000
  H   H1788     1.0  0.54386  0.25505  0.83391  1.0000
  H   H1789     1.0  0.94125  0.30196  0.93157  1.0000
  H   H1790     1.0  0.95051  0.26870  0.86162  1.0000
  N   N75       1.0  0.98685  0.27186  0.95162  1.0000
  H   H1791     1.0  0.81232  0.30933  0.86995  1.0000
  H   H1792     1.0  0.77427  0.12607  0.74574  1.0000
  C   C1044     1.0  0.64820  0.30152  0.76516  1.0000
  C   C1045     1.0  0.88459  0.22649  0.98053  1.0000
  H   H1793     1.0  0.74639  0.07275  0.74574  1.0000
  H   H1794     1.0  0.81870  0.23206  0.86123  1.0000
  C   C1046     1.0  0.70087  0.28865  0.79523  1.0000
  H   H1795     1.0  0.98312  0.32178  0.93014  1.0000
  C   C1047     1.0  0.50855  0.28520  0.96049  1.0000
  H   H1796     1.0  0.63109  0.25121  0.76241  1.0000
  S   S305      1.0  0.63370  0.31439  0.81733  1.0000
  S   S306      1.0  0.89213  0.32237  0.76848  1.0000
  H   H1797     1.0  0.93915  0.25627  0.94526  1.0000
  C   C1048     1.0  0.96506  0.29022  0.97550  1.0000
  H   H1798     1.0  0.84002  0.32586  0.78731  1.0000
  H   H1799     1.0  0.74535  0.03642  0.96015  1.0000
  H   H1800     1.0  0.72137  0.28909  0.78785  1.0000
  N   N76       1.0  0.77929  0.02123  0.94953  1.0000
  N   N77       1.0  0.67866  0.30697  0.77199  1.0000
  H   H1801     1.0  0.98704  0.25836  0.97619  1.0000
  C   C1049     1.0  0.82332  0.14221  0.73726  1.0000
  H   H1802     1.0  0.73328  0.31583  0.92148  1.0000
  H   H1803     1.0  0.67477  0.26769  0.74696  1.0000
  C   C1050     1.0  0.58103  0.33268  0.77840  1.0000
  C   C1051     1.0  0.97261  0.26508  0.96837  1.0000
  H   H1804     1.0  0.96082  0.31441  0.87164  1.0000
  H   H1805     1.0  0.83694  0.31589  0.83524  1.0000
  H   H1806     1.0  0.66335  0.25987  0.78291  1.0000
  Fe  Fe161     1.0  0.86310  0.25977  0.73920  1.0000
  H   H1807     1.0  0.76639  0.29463  0.84699  1.0000
  C   C1052     1.0  0.80123  0.00856  0.95576  1.0000
  C   C1053     1.0  0.61374  0.32203  0.80240  1.0000
  C   C1054     1.0  0.82233  0.32190  0.85824  1.0000
  C   C1055     1.0  0.98312  0.31402  0.86668  1.0000
  C   C1056     1.0  0.70293  0.30608  0.75987  1.0000
  C   C1057     1.0  0.78796  0.06528  0.74417  1.0000
  H   H1808     1.0  0.96301  0.31577  0.83760  1.0000
  C   C1058     1.0  0.52970  0.32916  0.81438  1.0000
  S   S307      1.0  0.81189  0.32590  0.75849  1.0000
  N   N78       1.0  0.78350  0.32788  0.93966  1.0000
  H   H1809     1.0  0.89147  0.20817  0.98387  1.0000
  H   H1810     1.0  0.56909  0.31078  0.82854  1.0000
  H   H1811     1.0  0.49719  0.28327  0.80772  1.0000
  C   C1059     1.0  0.98057  0.28044  0.83390  1.0000
  H   H1812     1.0  0.54872  0.29917  0.84745  1.0000
  H   H1813     1.0  0.71338  0.29464  0.94016  1.0000
  C   C1060     1.0  0.50231  0.30801  0.80577  1.0000
  C   C1061     1.0  0.54505  0.30061  0.83493  1.0000
  H   H1814     1.0  0.72616  0.31337  0.76443  1.0000
  H   H1815     1.0  0.94365  0.22038  0.85583  1.0000
  H   H1816     1.0  0.49836  0.31845  0.86328  1.0000
  S   S308      1.0  0.49120  0.25414  0.77105  1.0000
  H   H1817     1.0  0.94168  0.28847  0.97275  1.0000
  H   H1818     1.0  0.98324  0.31399  0.97201  1.0000
  H   H1819     1.0  0.71127  0.32996  0.93389  1.0000
  N   N79       1.0  0.52830  0.32099  0.83171  1.0000
  S   S309      1.0  0.74332  0.31098  0.98594  1.0000
  H   H1820     1.0  0.81263  0.02100  0.96562  1.0000
  H   H1821     1.0  0.74817  0.33445  0.95449  1.0000
  C   C1062     1.0  0.76196  0.00141  0.93747  1.0000
  H   H1822     1.0  0.84331  0.00122  0.95014  1.0000
  H   H1823     1.0  0.95758  0.37287  0.11707  1.0000
  H   H1824     1.0  0.76685  0.61967  0.08228  1.0000
  H   H1825     1.0  0.75928  0.62307  0.14709  1.0000
  Fe  Fe162     1.0  0.60539  0.63685  0.14335  1.0000
  S   S310      1.0  0.55526  0.60697  0.13845  1.0000
  S   S311      1.0  0.63455  0.62232  0.15855  1.0000
  H   H1826     1.0  0.64960  0.62273  0.22156  1.0000
  C   C1063     1.0  0.78208  0.57898  0.11653  1.0000
  C   C1064     1.0  0.83478  0.35471  0.05195  1.0000
  Fe  Fe163     1.0  0.81889  0.59995  0.04595  1.0000
  H   H1827     1.0  0.58505  0.51289  0.15958  1.0000
  S   S312      1.0  0.77771  0.55805  0.03962  1.0000
  H   H1828     1.0  0.85880  0.43243  0.00450  1.0000
  S   S313      1.0  0.96685  0.45209  0.15721  1.0000
  C   C1065     1.0  0.81843  0.40375  0.03570  1.0000
  H   H1829     1.0  0.55600  0.51765  0.13878  1.0000
  S   S314      1.0  0.87013  0.61380  0.03880  1.0000
  S   S315      1.0  0.82603  0.61045  0.07068  1.0000
  N   N80       1.0  0.82622  0.62723  0.12538  1.0000
  Fe  Fe164     1.0  0.87793  0.62879  0.06287  1.0000
  S   S316      1.0  0.69626  0.61365  0.12821  1.0000
  C   C1066     1.0  0.73559  0.61708  0.10245  1.0000
  C   C1067     1.0  0.54801  0.49689  0.11743  1.0000
  S   S317      1.0  0.71953  0.37558  0.00447  1.0000
  C   C1068     1.0  0.81174  0.37632  0.01232  1.0000
  H   H1830     1.0  0.94558  0.60032  0.09908  1.0000
  H   H1831     1.0  0.93499  0.37621  0.09229  1.0000
  H   H1832     1.0  0.85035  0.59479  0.14821  1.0000
  C   C1069     1.0  0.58328  0.34657  0.00840  1.0000
  H   H1833     1.0  0.87572  0.63345  0.98975  1.0000
  H   H1834     1.0  0.78680  0.35932  0.01544  1.0000
  C   C1070     1.0  0.92137  0.65811  0.09875  1.0000
  Fe  Fe165     1.0  0.75879  0.42008  0.99323  1.0000
  H   H1835     1.0  0.77655  0.36946  0.05066  1.0000
  C   C1071     1.0  0.78385  0.52906  0.03025  1.0000
  C   C1072     1.0  0.81279  0.52709  0.02962  1.0000
  C   C1073     1.0  0.81675  0.50349  0.02217  1.0000
  C   C1074     1.0  0.79194  0.48195  0.01517  1.0000
  C   C1075     1.0  0.76311  0.48409  0.01567  1.0000
  C   C1076     1.0  0.75906  0.50750  0.02326  1.0000
  H   H1836     1.0  0.83193  0.54344  0.03509  1.0000
  H   H1837     1.0  0.79179  0.59950  0.01125  1.0000
  H   H1838     1.0  0.74387  0.46761  0.01030  1.0000
  H   H1839     1.0  0.73661  0.50891  0.02370  1.0000
  C   C1077     1.0  0.72755  0.63358  0.11345  1.0000
  C   C1078     1.0  0.81319  0.58459  0.99237  1.0000
  C   C1079     1.0  0.76108  0.63249  0.09085  1.0000
  H   H1840     1.0  0.56248  0.56611  0.11418  1.0000
  H   H1841     1.0  0.60281  0.52439  0.10175  1.0000
  H   H1842     1.0  0.81262  0.56614  0.00099  1.0000
  H   H1843     1.0  0.87618  0.40517  0.03319  1.0000
  H   H1844     1.0  0.61287  0.37240  0.04869  1.0000
  C   C1080     1.0  0.53312  0.56813  0.14673  1.0000
  C   C1081     1.0  0.54225  0.55556  0.15945  1.0000
  C   C1082     1.0  0.52506  0.52413  0.16517  1.0000
  H   H1845     1.0  0.76300  0.58450  0.12171  1.0000
  C   C1083     1.0  0.94704  0.65588  0.12210  1.0000
  S   S318      1.0  0.96946  0.37039  0.16860  1.0000
  H   H1846     1.0  0.56253  0.57007  0.16489  1.0000
  H   H1847     1.0  0.53248  0.51450  0.17492  1.0000
  H   H1848     1.0  0.62458  0.53229  0.16409  1.0000
  C   C1084     1.0  0.58795  0.57306  0.11073  1.0000
  H   H1849     1.0  0.87364  0.38441  0.01710  1.0000
  H   H1850     1.0  0.85430  0.63255  0.10341  1.0000
  H   H1851     1.0  0.77818  0.40748  0.04774  1.0000
  C   C1085     1.0  0.98104  0.48795  0.16502  1.0000
  H   H1852     1.0  0.65331  0.57253  0.10322  1.0000
  H   H1853     1.0  0.84203  0.53725  0.99139  1.0000
  C   C1086     1.0  0.60360  0.56509  0.12434  1.0000
  H   H1854     1.0  0.59107  0.56312  0.09996  1.0000
  H   H1855     1.0  0.82948  0.33800  0.02955  1.0000
  C   C1087     1.0  0.85428  0.63713  0.13461  1.0000
  H   H1856     1.0  0.65833  0.54156  0.09485  1.0000
  C   C1088     1.0  0.68575  0.64764  0.23606  1.0000
  H   H1857     1.0  0.65562  0.36019  0.05932  1.0000
  H   H1858     1.0  0.77845  0.59871  0.14985  1.0000
  H   H1859     1.0  0.81850  0.63578  0.10143  1.0000
  H   H1860     1.0  0.89717  0.43400  0.00427  1.0000
  H   H1861     1.0  0.72209  0.59233  0.10287  1.0000
  H   H1862     1.0  0.88937  0.57685  0.99495  1.0000
  H   H1863     1.0  0.84874  0.38071  0.99384  1.0000
  C   C1089     1.0  0.98761  0.54158  0.16375  1.0000
  H   H1864     1.0  0.59929  0.59849  0.10748  1.0000
  C   C1090     1.0  0.81201  0.59260  0.12495  1.0000
  H   H1865     1.0  0.56502  0.36957  0.04611  1.0000
  H   H1866     1.0  0.59196  0.56934  0.13494  1.0000
  H   H1867     1.0  0.67914  0.65131  0.07093  1.0000
  Fe  Fe166     1.0  0.87244  0.66101  0.03195  1.0000
  C   C1091     1.0  0.78317  0.38975  0.04190  1.0000
  C   C1092     1.0  0.82118  0.35283  0.03617  1.0000
  C   C1093     1.0  0.50619  0.54917  0.14005  1.0000
  H   H1868     1.0  0.80555  0.57989  0.13675  1.0000
  H   H1869     1.0  0.80988  0.39711  0.00682  1.0000
  H   H1870     1.0  0.57861  0.36664  0.00586  1.0000
  C   C1094     1.0  0.93674  0.35511  0.09630  1.0000
  H   H1871     1.0  0.83026  0.61487  0.15814  1.0000
  H   H1872     1.0  0.80952  0.35658  0.99033  1.0000
  H   H1873     1.0  0.72980  0.66078  0.06750  1.0000
  H   H1874     1.0  0.82326  0.42560  0.02838  1.0000
  S   S319      1.0  0.91164  0.61679  0.07661  1.0000
  H   H1875     1.0  0.80690  0.62757  0.99480  1.0000
  H   H1876     1.0  0.78690  0.58649  0.10387  1.0000
  C   C1095     1.0  0.49851  0.50499  0.15829  1.0000
  H   H1877     1.0  0.87481  0.63651  0.12764  1.0000
  H   H1878     1.0  0.88245  0.45043  0.01942  1.0000
  H   H1879     1.0  0.82977  0.58553  0.11932  1.0000
  H   H1880     1.0  0.66213  0.64333  0.09060  1.0000
  C   C1096     1.0  0.85090  0.61773  0.15015  1.0000
  N   N81       1.0  0.82890  0.38319  0.02666  1.0000
  S   S320      1.0  0.82047  0.64630  0.03766  1.0000
  H   H1881     1.0  0.96418  0.62060  0.12394  1.0000
  H   H1882     1.0  0.86086  0.36406  0.05054  1.0000
  H   H1883     1.0  0.52349  0.48208  0.12273  1.0000
  H   H1884     1.0  0.66765  0.54834  0.11419  1.0000
  H   H1885     1.0  0.77300  0.55335  0.11776  1.0000
  C   C1097     1.0  0.86404  0.39964  0.02250  1.0000
  H   H1886     1.0  0.54685  0.51555  0.10966  1.0000
  H   H1887     1.0  0.56865  0.48774  0.13704  1.0000
  C   C1098     1.0  0.94188  0.61980  0.10285  1.0000
  H   H1888     1.0  0.83238  0.41143  0.04569  1.0000
  C   C1099     1.0  0.56889  0.50887  0.13062  1.0000
  C   C1100     1.0  0.95254  0.63131  0.11691  1.0000
  C   C1101     1.0  0.83813  0.64176  0.10881  1.0000
  H   H1889     1.0  0.60540  0.55469  0.15678  1.0000
  N   N82       1.0  0.60233  0.53298  0.12615  1.0000
  C   C1102     1.0  0.62156  0.53148  0.13918  1.0000
  C   C1103     1.0  0.61665  0.52566  0.11170  1.0000
  C   C1104     1.0  0.60795  0.53291  0.15573  1.0000
  C   C1105     1.0  0.65090  0.54856  0.10585  1.0000
  H   H1890     1.0  0.62507  0.50977  0.13958  1.0000
  H   H1891     1.0  0.64558  0.55084  0.13728  1.0000
  H   H1892     1.0  0.61614  0.50215  0.11367  1.0000
  H   H1893     1.0  0.62814  0.58329  0.12377  1.0000
  C   C1106     1.0  0.64430  0.35044  0.04895  1.0000
  C   C1107     1.0  0.92572  0.63276  0.09387  1.0000
  H   H1894     1.0  0.82686  0.36802  0.05982  1.0000
  C   C1108     1.0  0.87607  0.43086  0.01214  1.0000
  H   H1895     1.0  0.55574  0.48207  0.11052  1.0000
  S   S321      1.0  0.64203  0.65338  0.12259  1.0000
  H   H1896     1.0  0.76786  0.38340  0.03236  1.0000
  H   H1897     1.0  0.83339  0.62167  0.00761  1.0000
  Fe  Fe167     1.0  0.83151  0.65782  0.06188  1.0000
  H   H1898     1.0  0.83911  0.50194  0.02183  1.0000
  H   H1899     1.0  0.60106  0.36848  0.07541  1.0000
  H   H1900     1.0  0.78603  0.63784  0.12287  1.0000
  H   H1901     1.0  0.55516  0.36743  0.06703  1.0000
  C   C1109     1.0  0.94952  0.35327  0.11034  1.0000
  H   H1902     1.0  0.96068  0.50833  0.14870  1.0000
  Fe  Fe168     1.0  0.67239  0.64200  0.13825  1.0000
  S   S322      1.0  0.79785  0.45284  0.00583  1.0000
  C   C1110     1.0  0.61304  0.34792  0.00362  1.0000
  C   C1111     1.0  0.61047  0.34818  0.04919  1.0000
  C   C1112     1.0  0.82568  0.36320  0.99953  1.0000
  C   C1113     1.0  0.77891  0.66444  0.09032  1.0000
  S   S323      1.0  0.64187  0.38231  0.99345  1.0000
  H   H1903     1.0  0.86177  0.66151  0.13725  1.0000
  C   C1114     1.0  0.55047  0.35454  0.05665  1.0000
  C   C1115     1.0  0.81172  0.61017  0.00188  1.0000
  H   H1904     1.0  0.60221  0.33995  0.03797  1.0000
  C   C1116     1.0  0.67136  0.66148  0.08051  1.0000
  C   C1117     1.0  0.65320  0.62192  0.23410  1.0000
  H   H1905     1.0  0.49882  0.55876  0.13028  1.0000
  H   H1906     1.0  0.89655  0.60904  0.00621  1.0000
  H   H1907     1.0  0.87217  0.62978  0.15617  1.0000
  C   C1118     1.0  0.78302  0.62322  0.14726  1.0000
  C   C1119     1.0  0.97485  0.51217  0.15832  1.0000
  C   C1120     1.0  0.87916  0.59225  0.99948  1.0000
  C   C1121     1.0  0.59642  0.34359  0.07716  1.0000
  H   H1908     1.0  0.85863  0.57878  0.00812  1.0000
  C   C1122     1.0  0.80270  0.63882  0.13151  1.0000
  H   H1909     1.0  0.81471  0.66394  0.13289  1.0000
  H   H1910     1.0  0.98319  0.56027  0.15837  1.0000
  H   H1911     1.0  0.70345  0.64251  0.22902  1.0000
  H   H1912     1.0  0.61953  0.34441  0.07986  1.0000
  H   H1913     1.0  0.82806  0.34211  0.00401  1.0000
  H   H1914     1.0  0.79427  0.63633  0.15694  1.0000
  H   H1915     1.0  0.65127  0.66624  0.07728  1.0000
  H   H1916     1.0  0.65895  0.36636  0.03861  1.0000
  H   H1917     1.0  0.57710  0.34744  0.10009  1.0000
  H   H1918     1.0  0.98124  0.36235  0.04775  1.0000
  H   H1919     1.0  0.79531  0.33922  0.03861  1.0000
  C   C1123     1.0  0.74531  0.66553  0.11287  1.0000
  H   H1920     1.0  0.52559  0.34861  0.05470  1.0000
  H   H1921     1.0  0.79050  0.57388  0.98721  1.0000
  Fe  Fe169     1.0  0.69089  0.38578  0.98700  1.0000
  H   H1922     1.0  0.53669  0.33455  0.98816  1.0000
  H   H1923     1.0  0.61905  0.34548  0.36717  1.0000
  Fe  Fe170     1.0  0.87165  0.52493  0.36632  1.0000
  S   S324      1.0  0.83928  0.51529  0.34705  1.0000
  S   S325      1.0  0.92684  0.55056  0.36025  1.0000
  Fe  Fe171     1.0  0.81298  0.49936  0.39024  1.0000
  S   S326      1.0  0.77980  0.48988  0.37217  1.0000
  S   S327      1.0  0.78447  0.48574  0.41353  1.0000
  Fe  Fe172     1.0  0.80887  0.46810  0.36096  1.0000
  S   S328      1.0  0.78311  0.41790  0.35345  1.0000
  Fe  Fe173     1.0  0.81240  0.53755  0.36109  1.0000
  S   S329      1.0  0.78752  0.57011  0.35536  1.0000
  S   S330      1.0  0.84220  0.47726  0.37939  1.0000
  S   S331      1.0  0.84495  0.54759  0.37971  1.0000
  H   H1924     1.0  0.82851  0.46552  0.45713  1.0000
  C   C1124     1.0  0.56561  0.64421  0.38362  1.0000
  S   S332      1.0  0.66452  0.36217  0.40722  1.0000
  C   C1125     1.0  0.84985  0.49501  0.43506  1.0000
  H   H1925     1.0  0.95605  0.60601  0.31408  1.0000
  C   C1126     1.0  0.85995  0.58478  0.32283  1.0000
  H   H1926     1.0  0.98091  0.40824  0.43769  1.0000
  C   C1127     1.0  0.87243  0.60271  0.33684  1.0000
  H   H1927     1.0  0.63152  0.51966  0.37702  1.0000
  H   H1928     1.0  0.81611  0.49621  0.45475  1.0000
  C   C1128     1.0  0.97039  0.38001  0.37632  1.0000
  H   H1929     1.0  0.51180  0.55303  0.39804  1.0000
  C   C1129     1.0  0.87807  0.66454  0.32208  1.0000
  H   H1930     1.0  0.86987  0.56766  0.32114  1.0000
  S   S333      1.0  0.63412  0.65104  0.36056  1.0000
  H   H1931     1.0  0.49062  0.43070  0.44805  1.0000
  H   H1932     1.0  0.65355  0.35281  0.35445  1.0000
  H   H1933     1.0  0.90369  0.64407  0.30932  1.0000
  Fe  Fe174     1.0  0.95012  0.48379  0.43327  1.0000
  S   S334      1.0  0.95709  0.49902  0.40761  1.0000
  S   S335      1.0  0.89889  0.44867  0.44485  1.0000
  S   S336      1.0  0.97866  0.53313  0.43894  1.0000
  C   C1130     1.0  0.49868  0.34312  0.48117  1.0000
  H   H1934     1.0  0.97390  0.66652  0.42356  1.0000
  H   H1935     1.0  0.55691  0.59057  0.36955  1.0000
  H   H1936     1.0  0.67057  0.60298  0.26154  1.0000
  C   C1131     1.0  0.52475  0.37233  0.45661  1.0000
  C   C1132     1.0  0.54855  0.36099  0.45756  1.0000
  H   H1937     1.0  0.89753  0.53074  0.47090  1.0000
  H   H1938     1.0  0.52599  0.38787  0.44665  1.0000
  H   H1939     1.0  0.56771  0.36805  0.44833  1.0000
  C   C1133     1.0  0.78906  0.38297  0.45508  1.0000
  C   C1134     1.0  0.81006  0.38890  0.46656  1.0000
  C   C1135     1.0  0.84284  0.40833  0.46316  1.0000
  C   C1136     1.0  0.85644  0.42278  0.44808  1.0000
  C   C1137     1.0  0.83563  0.41679  0.43639  1.0000
  C   C1138     1.0  0.80244  0.39730  0.43985  1.0000
  H   H1940     1.0  0.92041  0.41669  0.33154  1.0000
  H   H1941     1.0  0.84495  0.42746  0.42464  1.0000
  H   H1942     1.0  0.78718  0.39353  0.43069  1.0000
  C   C1139     1.0  0.75975  0.37618  0.35821  1.0000
  H   H1943     1.0  0.75178  0.36974  0.33432  1.0000
  C   C1140     1.0  0.75151  0.45072  0.41231  1.0000
  C   C1141     1.0  0.72390  0.44238  0.42235  1.0000
  C   C1142     1.0  0.69684  0.41560  0.42059  1.0000
  C   C1143     1.0  0.69748  0.39685  0.40894  1.0000
  C   C1144     1.0  0.72485  0.40556  0.39875  1.0000
  C   C1145     1.0  0.75197  0.43208  0.40058  1.0000
  H   H1944     1.0  0.72331  0.45672  0.43139  1.0000
  H   H1945     1.0  0.67542  0.40957  0.42820  1.0000
  H   H1946     1.0  0.72518  0.39150  0.38957  1.0000
  H   H1947     1.0  0.77326  0.43784  0.39293  1.0000
  C   C1146     1.0  0.78289  0.60379  0.36159  1.0000
  C   C1147     1.0  0.75672  0.60916  0.35768  1.0000
  C   C1148     1.0  0.75248  0.63565  0.36179  1.0000
  H   H1948     1.0  0.94241  0.66344  0.27715  1.0000
  H   H1949     1.0  0.95052  0.63884  0.30668  1.0000
  C   C1149     1.0  0.80491  0.62593  0.36968  1.0000
  H   H1950     1.0  0.73955  0.59275  0.35128  1.0000
  H   H1951     1.0  0.92105  0.53490  0.40117  1.0000
  H   H1952     1.0  0.67923  0.51128  0.36737  1.0000
  H   H1953     1.0  0.82534  0.62274  0.37277  1.0000
  C   C1150     1.0  0.96962  0.56655  0.36031  1.0000
  H   H1954     1.0  0.66754  0.54757  0.38233  1.0000
  H   H1955     1.0  0.97940  0.59453  0.33838  1.0000
  C   C1151     1.0  0.75330  0.36011  0.37328  1.0000
  H   H1956     1.0  0.92074  0.47772  0.34243  1.0000
  H   H1957     1.0  0.56943  0.64051  0.37130  1.0000
  H   H1958     1.0  0.61601  0.58541  0.39449  1.0000
  N   N83       1.0  0.91682  0.44801  0.36352  1.0000
  H   H1959     1.0  0.83386  0.57220  0.32507  1.0000
  H   H1960     1.0  0.59312  0.59363  0.37517  1.0000
  H   H1961     1.0  0.80123  0.46397  0.44382  1.0000
  H   H1962     1.0  0.53028  0.46889  0.43051  1.0000
  H   H1963     1.0  0.97541  0.39817  0.47239  1.0000
  H   H1964     1.0  0.92226  0.61475  0.36199  1.0000
  H   H1965     1.0  0.80083  0.37839  0.47835  1.0000
  H   H1966     1.0  0.60781  0.56276  0.41253  1.0000
  H   H1967     1.0  0.88337  0.61191  0.36789  1.0000
  C   C1152     1.0  0.69471  0.62214  0.25949  1.0000
  C   C1153     1.0  0.82277  0.48014  0.44852  1.0000
  H   H1968     1.0  0.66380  0.61935  0.34319  1.0000
  H   H1969     1.0  0.85231  0.43554  0.35526  1.0000
  H   H1970     1.0  0.70009  0.63519  0.31881  1.0000
  H   H1971     1.0  0.64037  0.51669  0.39662  1.0000
  S   S337      1.0  0.97569  0.34390  0.35345  1.0000
  C   C1154     1.0  0.57580  0.62443  0.39481  1.0000
  H   H1972     1.0  0.95296  0.61812  0.38241  1.0000
  H   H1973     1.0  0.64126  0.44052  0.41739  1.0000
  H   H1974     1.0  0.69686  0.43473  0.37535  1.0000
  H   H1975     1.0  0.63301  0.44769  0.39829  1.0000
  H   H1976     1.0  0.66507  0.44471  0.37245  1.0000
  H   H1977     1.0  0.96904  0.50364  0.34777  1.0000
  H   H1978     1.0  0.86784  0.45731  0.33680  1.0000
  H   H1979     1.0  0.93937  0.41677  0.36326  1.0000
  H   H1980     1.0  0.75874  0.52388  0.39296  1.0000
  H   H1981     1.0  0.60167  0.63251  0.39188  1.0000
  H   H1982     1.0  0.70741  0.60105  0.27930  1.0000
  H   H1983     1.0  0.70648  0.54641  0.39543  1.0000
  H   H1984     1.0  0.95713  0.42206  0.33793  1.0000
  C   C1155     1.0  0.97433  0.48996  0.35704  1.0000
  H   H1985     1.0  0.95033  0.35915  0.38134  1.0000
  H   H1986     1.0  0.72130  0.47636  0.39104  1.0000
  H   H1987     1.0  0.69505  0.63017  0.28430  1.0000
  C   C1156     1.0  0.70863  0.62407  0.27518  1.0000
  H   H1988     1.0  0.88652  0.45091  0.38288  1.0000
  H   H1989     1.0  0.88034  0.40373  0.39941  1.0000
  C   C1157     1.0  0.66926  0.65716  0.26249  1.0000
  C   C1158     1.0  0.94590  0.47165  0.36922  1.0000
  H   H1990     1.0  0.87365  0.58544  0.34573  1.0000
  C   C1159     1.0  0.55696  0.54715  0.37721  1.0000
  C   C1160     1.0  0.87283  0.44361  0.34623  1.0000
  H   H1991     1.0  0.63359  0.62508  0.24044  1.0000
  H   H1992     1.0  0.75263  0.65346  0.24404  1.0000
  H   H1993     1.0  0.75905  0.55800  0.39992  1.0000
  H   H1994     1.0  0.95278  0.63857  0.33456  1.0000
  H   H1995     1.0  0.57329  0.63099  0.40675  1.0000
  C   C1161     1.0  0.56904  0.57441  0.40737  1.0000
  H   H1996     1.0  0.90856  0.39829  0.38653  1.0000
  C   C1162     1.0  0.69002  0.65042  0.32280  1.0000
  C   C1163     1.0  0.93881  0.61639  0.31412  1.0000
  N   N84       1.0  0.90367  0.63070  0.33391  1.0000
  C   C1164     1.0  0.66926  0.64130  0.33657  1.0000
  H   H1997     1.0  0.55092  0.46827  0.47553  1.0000
  H   H1998     1.0  0.71846  0.49055  0.37186  1.0000
  H   H1999     1.0  0.67319  0.50487  0.41294  1.0000
  H   H2000     1.0  0.86480  0.48230  0.43610  1.0000
  C   C1165     1.0  0.52372  0.57877  0.39702  1.0000
  H   H2001     1.0  0.69044  0.47833  0.41295  1.0000
  C   C1166     1.0  0.93815  0.43019  0.33915  1.0000
  S   S338      1.0  0.66551  0.35863  0.44998  1.0000
  H   H2002     1.0  0.51541  0.57853  0.42253  1.0000
  N   N85       1.0  0.55901  0.58990  0.39450  1.0000
  H   H2003     1.0  0.85362  0.60838  0.34239  1.0000
  H   H2004     1.0  0.85779  0.41225  0.47245  1.0000
  H   H2005     1.0  0.98205  0.52586  0.47665  1.0000
  H   H2006     1.0  0.91988  0.43217  0.39716  1.0000
  H   H2007     1.0  0.87413  0.42338  0.34127  1.0000
  C   C1167     1.0  0.50837  0.47105  0.43283  1.0000
  H   H2008     1.0  0.97969  0.38004  0.42508  1.0000
  C   C1168     1.0  0.97461  0.41953  0.47630  1.0000
  H   H2009     1.0  0.73231  0.63913  0.35847  1.0000
  C   C1169     1.0  0.68237  0.44574  0.38066  1.0000
  H   H2010     1.0  0.73381  0.64072  0.27414  1.0000
  H   H2011     1.0  0.91742  0.64367  0.37257  1.0000
  C   C1170     1.0  0.77474  0.65805  0.36967  1.0000
  N   N86       1.0  0.69366  0.65145  0.25255  1.0000
  C   C1171     1.0  0.90794  0.62802  0.36346  1.0000
  H   H2012     1.0  0.87007  0.41581  0.37410  1.0000
  S   S339      1.0  0.97777  0.59036  0.40517  1.0000
  H   H2013     1.0  0.56792  0.53645  0.38520  1.0000
  H   H2014     1.0  0.83963  0.48885  0.42396  1.0000
  C   C1172     1.0  0.54768  0.34090  0.47053  1.0000
  H   H2015     1.0  0.86415  0.59970  0.31185  1.0000
  C   C1173     1.0  0.93040  0.62113  0.33099  1.0000
  H   H2016     1.0  0.61745  0.60370  0.41205  1.0000
  H   H2017     1.0  0.73616  0.52161  0.41123  1.0000
  H   H2018     1.0  0.96969  0.54295  0.38217  1.0000
  C   C1174     1.0  0.56740  0.58187  0.37877  1.0000
  C   C1175     1.0  0.97828  0.63021  0.38016  1.0000
  C   C1176     1.0  0.60461  0.58232  0.40648  1.0000
  C   C1177     1.0  0.49944  0.36345  0.46850  1.0000
  H   H2019     1.0  0.96546  0.40726  0.39455  1.0000
  H   H2020     1.0  0.76310  0.37286  0.38290  1.0000
  C   C1178     1.0  0.51074  0.58849  0.41160  1.0000
  H   H2021     1.0  0.92558  0.59920  0.33824  1.0000
  H   H2022     1.0  0.51981  0.61393  0.41151  1.0000
  C   C1179     1.0  0.74717  0.35833  0.34603  1.0000
  H   H2023     1.0  0.64784  0.47926  0.37776  1.0000
  H   H2024     1.0  0.52018  0.43022  0.47756  1.0000
  H   H2025     1.0  0.64701  0.63569  0.26519  1.0000
  H   H2026     1.0  0.53097  0.53414  0.37898  1.0000
  H   H2027     1.0  0.62397  0.46673  0.41384  1.0000
  N   N87       1.0  0.87006  0.52935  0.43425  1.0000
  C   C1180     1.0  0.90064  0.53665  0.42431  1.0000
  C   C1181     1.0  0.87842  0.53995  0.44998  1.0000
  C   C1182     1.0  0.85447  0.54770  0.42655  1.0000
  C   C1183     1.0  0.89804  0.53223  0.40689  1.0000
  C   C1184     1.0  0.89629  0.52437  0.45880  1.0000
  C   C1185     1.0  0.82571  0.54872  0.43580  1.0000
  H   H2028     1.0  0.91786  0.56103  0.42490  1.0000
  H   H2029     1.0  0.91220  0.52197  0.42865  1.0000
  H   H2030     1.0  0.85741  0.53631  0.45794  1.0000
  H   H2031     1.0  0.89314  0.56543  0.44881  1.0000
  H   H2032     1.0  0.87188  0.57224  0.42337  1.0000
  H   H2033     1.0  0.84613  0.53858  0.41545  1.0000
  H   H2034     1.0  0.88040  0.50893  0.40509  1.0000
  H   H2035     1.0  0.89297  0.55044  0.40073  1.0000
  H   H2036     1.0  0.92089  0.53265  0.45342  1.0000
  H   H2037     1.0  0.83134  0.55937  0.44679  1.0000
  H   H2038     1.0  0.80556  0.52564  0.43789  1.0000
  H   H2039     1.0  0.81743  0.56341  0.42862  1.0000
  H   H2040     1.0  0.67053  0.43131  0.39176  1.0000
  N   N88       1.0  0.68973  0.49874  0.39001  1.0000
  C   C1186     1.0  0.71575  0.53085  0.39017  1.0000
  C   C1187     1.0  0.66696  0.50185  0.37935  1.0000
  C   C1188     1.0  0.70454  0.47904  0.38329  1.0000
  C   C1189     1.0  0.67492  0.48612  0.40650  1.0000
  C   C1190     1.0  0.74370  0.53318  0.39918  1.0000
  C   C1191     1.0  0.65090  0.52269  0.38432  1.0000
  H   H2041     1.0  0.56323  0.58104  0.41883  1.0000
  C   C1192     1.0  0.64155  0.45899  0.40877  1.0000
  H   H2042     1.0  0.72588  0.54178  0.37806  1.0000
  C   C1193     1.0  0.89249  0.43322  0.37752  1.0000
  S   S340      1.0  0.74706  0.35736  0.46074  1.0000
  H   H2043     1.0  0.97082  0.47304  0.47657  1.0000
  C   C1194     1.0  0.80107  0.65282  0.37345  1.0000
  H   H2044     1.0  0.94004  0.48893  0.37511  1.0000
  H   H2045     1.0  0.94885  0.45480  0.33442  1.0000
  C   C1195     1.0  0.50403  0.49473  0.42409  1.0000
  H   H2046     1.0  0.55535  0.54882  0.40871  1.0000
  H   H2047     1.0  0.89913  0.48243  0.35849  1.0000
  H   H2048     1.0  0.89045  0.65602  0.35085  1.0000
  H   H2049     1.0  0.91821  0.60060  0.30881  1.0000
  H   H2050     1.0  0.95510  0.46061  0.37802  1.0000
  H   H2051     1.0  0.70787  0.61365  0.25129  1.0000
  H   H2052     1.0  0.85425  0.64527  0.32465  1.0000
  H   H2053     1.0  0.54074  0.64013  0.38651  1.0000
  C   C1196     1.0  0.90138  0.41603  0.39073  1.0000
  H   H2054     1.0  0.96334  0.42805  0.46743  1.0000
  H   H2055     1.0  0.90129  0.40154  0.35693  1.0000
  H   H2056     1.0  0.97769  0.66143  0.36086  1.0000
  H   H2057     1.0  0.56467  0.54444  0.36520  1.0000
  C   C1197     1.0  0.92349  0.42313  0.35636  1.0000
  C   C1198     1.0  0.90368  0.46443  0.35261  1.0000
  C   C1199     1.0  0.90877  0.64742  0.34834  1.0000
  H   H2058     1.0  0.67745  0.66373  0.27402  1.0000
  S   S341      1.0  0.50169  0.48633  0.40517  1.0000
  H   H2059     1.0  0.88445  0.49877  0.45951  1.0000
  H   H2060     1.0  0.51484  0.58652  0.38676  1.0000
  C   C1200     1.0  0.90458  0.65339  0.32072  1.0000
  C   C1201     1.0  0.65663  0.66102  0.34209  1.0000
  C   C1202     1.0  0.97885  0.40736  0.38384  1.0000
  C   C1203     1.0  0.98428  0.55909  0.37252  1.0000
  C   C1204     1.0  0.98757  0.37933  0.36238  1.0000
  Fe  Fe175     1.0  0.98731  0.54787  0.41304  1.0000
  H   H2061     1.0  0.65172  0.59862  0.23770  1.0000
  H   H2062     1.0  0.98441  0.47481  0.35212  1.0000
  C   C1205     1.0  0.53817  0.44724  0.48391  1.0000
  C   C1206     1.0  0.98962  0.58824  0.34803  1.0000
  H   H2063     1.0  0.67374  0.57459  0.65140  1.0000
  H   H2064     1.0  0.85296  0.64453  0.72251  1.0000
  C   C1207     1.0  0.55841  0.42370  0.51688  1.0000
  S   S342      1.0  0.55087  0.55340  0.62556  1.0000
  H   H2065     1.0  0.83915  0.65163  0.66311  1.0000
  H   H2066     1.0  0.58183  0.44810  0.67946  1.0000
  Fe  Fe176     1.0  0.50775  0.51030  0.63651  1.0000
  H   H2067     1.0  0.94262  0.39851  0.68704  1.0000
  H   H2068     1.0  0.89208  0.65730  0.71325  1.0000
  H   H2069     1.0  0.56708  0.41550  0.52705  1.0000
  S   S343      1.0  0.51137  0.42813  0.67340  1.0000
  H   H2070     1.0  0.54496  0.45739  0.52568  1.0000
  C   C1208     1.0  0.57706  0.58131  0.63641  1.0000
  C   C1209     1.0  0.56994  0.58129  0.65235  1.0000
  C   C1210     1.0  0.59180  0.60294  0.66075  1.0000
  C   C1211     1.0  0.62074  0.62534  0.65331  1.0000
  C   C1212     1.0  0.62766  0.62584  0.63730  1.0000
  C   C1213     1.0  0.60592  0.60383  0.62891  1.0000
  H   H2071     1.0  0.54755  0.56458  0.65819  1.0000
  H   H2072     1.0  0.58620  0.60227  0.67312  1.0000
  H   H2073     1.0  0.64983  0.64293  0.63140  1.0000
  H   H2074     1.0  0.61155  0.60416  0.61655  1.0000
  C   C1214     1.0  0.95200  0.37929  0.70834  1.0000
  C   C1215     1.0  0.49400  0.47059  0.52644  1.0000
  H   H2075     1.0  0.50157  0.35319  0.71727  1.0000
  H   H2076     1.0  0.75006  0.65688  0.52013  1.0000
  S   S344      1.0  0.64740  0.65146  0.66472  1.0000
  H   H2077     1.0  0.58078  0.55328  0.68544  1.0000
  S   S345      1.0  0.50404  0.46276  0.63271  1.0000
  C   C1216     1.0  0.52238  0.45564  0.49799  1.0000
  H   H2078     1.0  0.52100  0.41987  0.53427  1.0000
  H   H2079     1.0  0.54999  0.51768  0.69510  1.0000
  C   C1217     1.0  0.73508  0.66643  0.51443  1.0000
  N   N89       1.0  0.50804  0.43147  0.51192  1.0000
  H   H2080     1.0  0.97574  0.41353  0.51319  1.0000
  H   H2081     1.0  0.92834  0.37183  0.71401  1.0000
  H   H2082     1.0  0.50828  0.39389  0.49900  1.0000
  H   H2083     1.0  0.57369  0.46804  0.69500  1.0000
  H   H2084     1.0  0.60514  0.45642  0.69536  1.0000
  H   H2085     1.0  0.93911  0.66105  0.67643  1.0000
  S   S346      1.0  0.96577  0.35507  0.73535  1.0000
  C   C1218     1.0  0.85816  0.66480  0.69868  1.0000
  H   H2086     1.0  0.55030  0.40392  0.50985  1.0000
  H   H2087     1.0  0.74971  0.65016  0.72458  1.0000
  C   C1219     1.0  0.97456  0.37402  0.71622  1.0000
  H   H2088     1.0  0.49223  0.44413  0.72471  1.0000
  C   C1220     1.0  0.57370  0.66285  0.68143  1.0000
  H   H2089     1.0  0.56033  0.65109  0.69290  1.0000
  H   H2090     1.0  0.60575  0.52982  0.63404  1.0000
  H   H2091     1.0  0.90847  0.63835  0.69187  1.0000
  H   H2092     1.0  0.49480  0.37022  0.52676  1.0000
  H   H2093     1.0  0.98830  0.51445  0.49567  1.0000
  H   H2094     1.0  0.54021  0.47759  0.50146  1.0000
  H   H2095     1.0  0.65649  0.53895  0.64308  1.0000
  C   C1221     1.0  0.96019  0.39459  0.69311  1.0000
  H   H2096     1.0  0.67160  0.54013  0.66184  1.0000
  H   H2097     1.0  0.57852  0.44360  0.51015  1.0000
  H   H2098     1.0  0.55345  0.48821  0.67560  1.0000
  H   H2099     1.0  0.58864  0.65069  0.67835  1.0000
  H   H2100     1.0  0.58981  0.52540  0.69647  1.0000
  H   H2101     1.0  0.59860  0.65555  0.70884  1.0000
  H   H2102     1.0  0.50507  0.48955  0.51684  1.0000
  H   H2103     1.0  0.53109  0.39803  0.69733  1.0000
  H   H2104     1.0  0.96341  0.34064  0.68613  1.0000
  N   N90       1.0  0.60336  0.51173  0.66704  1.0000
  C   C1222     1.0  0.59735  0.49313  0.65326  1.0000
  C   C1223     1.0  0.61638  0.49698  0.67887  1.0000
  C   C1224     1.0  0.62672  0.54482  0.66241  1.0000
  C   C1225     1.0  0.57281  0.51186  0.67355  1.0000
  C   C1226     1.0  0.58770  0.50669  0.63899  1.0000
  C   C1227     1.0  0.59262  0.46566  0.68755  1.0000
  C   C1228     1.0  0.65882  0.54935  0.65423  1.0000
  C   C1229     1.0  0.57377  0.52819  0.68841  1.0000
  H   H2105     1.0  0.61828  0.48919  0.64922  1.0000
  H   H2106     1.0  0.57804  0.46958  0.65659  1.0000
  H   H2107     1.0  0.62731  0.51279  0.68774  1.0000
  H   H2108     1.0  0.63605  0.49267  0.67325  1.0000
  H   H2109     1.0  0.61677  0.55722  0.65471  1.0000
  H   H2110     1.0  0.63177  0.55795  0.67279  1.0000
  H   H2111     1.0  0.56424  0.52373  0.66485  1.0000
  H   H2112     1.0  0.96985  0.45535  0.50255  1.0000
  H   H2113     1.0  0.58433  0.49113  0.62966  1.0000
  H   H2114     1.0  0.56486  0.50777  0.64175  1.0000
  C   C1230     1.0  0.53230  0.43328  0.52275  1.0000
  H   H2115     1.0  0.84653  0.64070  0.69552  1.0000
  H   H2116     1.0  0.53269  0.63050  0.67171  1.0000
  H   H2117     1.0  0.98778  0.35175  0.51768  1.0000
  H   H2118     1.0  0.50400  0.46167  0.49313  1.0000
  H   H2119     1.0  0.91346  0.33486  0.67904  1.0000
  C   C1231     1.0  0.50572  0.38602  0.69782  1.0000
  H   H2120     1.0  0.87981  0.64780  0.67303  1.0000
  C   C1232     1.0  0.54903  0.65551  0.66969  1.0000
  H   H2121     1.0  0.51000  0.47360  0.53561  1.0000
  H   H2122     1.0  0.95953  0.41289  0.48755  1.0000
  C   C1233     1.0  0.92059  0.66146  0.68505  1.0000
  H   H2123     1.0  0.55536  0.43821  0.48707  1.0000
  C   C1234     1.0  0.49205  0.39967  0.50664  1.0000
  H   H2124     1.0  0.56031  0.65951  0.65754  1.0000
  C   C1235     1.0  0.98725  0.34430  0.53014  1.0000
  S   S347      1.0  0.49449  0.49863  0.66221  1.0000
  C   C1236     1.0  0.87157  0.66303  0.71428  1.0000
  H   H2125     1.0  0.81442  0.65583  0.67908  1.0000
  H   H2126     1.0  0.71406  0.64620  0.51169  1.0000
  H   H2127     1.0  0.98261  0.65863  0.71465  1.0000
  C   C1237     1.0  0.48971  0.39603  0.68725  1.0000
  S   S348      1.0  0.77520  0.39661  0.97547  1.0000
  C   C1238     1.0  0.85393  0.42640  0.78657  1.0000
  Fe  Fe177     1.0  0.74275  0.40499  0.96003  1.0000
  H   H2128     1.0  0.81243  0.50102  0.78843  1.0000
  Fe  Fe178     1.0  0.67463  0.35466  0.82493  1.0000
  S   S349      1.0  0.71803  0.38504  0.80916  1.0000
  H   H2129     1.0  0.87119  0.61569  0.83291  1.0000
  Fe  Fe179     1.0  0.70111  0.38549  0.85360  1.0000
  S   S350      1.0  0.74720  0.41897  0.84020  1.0000
  S   S351      1.0  0.68229  0.37844  0.87905  1.0000
  Fe  Fe180     1.0  0.71715  0.42388  0.82204  1.0000
  S   S352      1.0  0.72327  0.46607  0.80627  1.0000
  Fe  Fe181     1.0  0.74482  0.37776  0.82820  1.0000
  S   S353      1.0  0.67107  0.39384  0.83633  1.0000
  H   H2130     1.0  0.87500  0.47375  0.79076  1.0000
  S   S354      1.0  0.78692  0.36649  0.82427  1.0000
  H   H2131     1.0  0.75028  0.41221  0.87987  1.0000
  H   H2132     1.0  0.80788  0.39210  0.94549  1.0000
  Fe  Fe182     1.0  0.85748  0.63086  0.78356  1.0000
  S   S355      1.0  0.84647  0.59170  0.80258  1.0000
  N   N91       1.0  0.84064  0.59470  0.97986  1.0000
  C   C1239     1.0  0.86180  0.62976  0.95362  1.0000
  H   H2133     1.0  0.82245  0.56295  0.96245  1.0000
  C   C1240     1.0  0.75703  0.50125  0.80574  1.0000
  C   C1241     1.0  0.76266  0.52508  0.79391  1.0000
  C   C1242     1.0  0.78994  0.55306  0.79284  1.0000
  C   C1243     1.0  0.81168  0.55732  0.80363  1.0000
  C   C1244     1.0  0.80595  0.53357  0.81553  1.0000
  C   C1245     1.0  0.77864  0.50565  0.81663  1.0000
  H   H2134     1.0  0.74593  0.52182  0.78548  1.0000
  H   H2135     1.0  0.79416  0.57128  0.78364  1.0000
  H   H2136     1.0  0.82275  0.53675  0.82391  1.0000
  H   H2137     1.0  0.77428  0.48756  0.82588  1.0000
  C   C1246     1.0  0.77799  0.35905  0.79348  1.0000
  H   H2138     1.0  0.79811  0.42088  0.77697  1.0000
  H   H2139     1.0  0.64200  0.37131  0.79930  1.0000
  C   C1247     1.0  0.70611  0.38950  0.89441  1.0000
  C   C1248     1.0  0.69154  0.38179  0.90979  1.0000
  C   C1249     1.0  0.70943  0.39103  0.92237  1.0000
  C   C1250     1.0  0.74205  0.40826  0.91963  1.0000
  C   C1251     1.0  0.73886  0.40614  0.89167  1.0000
  C   C1252     1.0  0.82931  0.64386  0.82923  1.0000
  H   H2140     1.0  0.69787  0.38539  0.93414  1.0000
  H   H2141     1.0  0.66622  0.36896  0.91197  1.0000
  C   C1253     1.0  0.77397  0.44988  0.77449  1.0000
  H   H2142     1.0  0.79537  0.61515  0.87767  1.0000
  Fe  Fe183     1.0  0.73359  0.35326  0.98514  1.0000
  S   S356      1.0  0.76503  0.42140  0.93510  1.0000
  H   H2143     1.0  0.85400  0.46581  0.81420  1.0000
  C   C1254     1.0  0.80607  0.33792  0.77669  1.0000
  H   H2144     1.0  0.89164  0.61613  0.97676  1.0000
  H   H2145     1.0  0.77473  0.63311  0.84950  1.0000
  S   S357      1.0  0.70141  0.34400  0.84305  1.0000
  H   H2146     1.0  0.86251  0.57256  0.96504  1.0000
  H   H2147     1.0  0.83977  0.38789  0.93419  1.0000
  C   C1255     1.0  0.75676  0.41556  0.90427  1.0000
  S   S358      1.0  0.72944  0.43221  0.97707  1.0000
  H   H2148     1.0  0.84415  0.41624  0.79871  1.0000
  H   H2149     1.0  0.71526  0.34504  0.78132  1.0000
  H   H2150     1.0  0.71348  0.36952  0.75549  1.0000
  H   H2151     1.0  0.82599  0.48018  0.82111  1.0000
  H   H2152     1.0  0.82329  0.66182  0.85840  1.0000
  H   H2153     1.0  0.77791  0.35422  0.90563  1.0000
  H   H2154     1.0  0.82854  0.60514  0.87484  1.0000
  H   H2155     1.0  0.53031  0.35261  0.81190  1.0000
  C   C1256     1.0  0.83918  0.56746  0.97146  1.0000
  H   H2156     1.0  0.73906  0.57972  0.83755  1.0000
  Fe  Fe184     1.0  0.83869  0.66598  0.75829  1.0000
  H   H2157     1.0  0.49334  0.35015  0.98644  1.0000
  H   H2158     1.0  0.83987  0.41105  0.77827  1.0000
  N   N92       1.0  0.82653  0.46344  0.78652  1.0000
  C   C1257     1.0  0.82096  0.62420  0.87393  1.0000
  H   H2159     1.0  0.76962  0.59573  0.85717  1.0000
  C   C1258     1.0  0.83292  0.49718  0.78356  1.0000
  H   H2160     1.0  0.59541  0.35883  0.83432  1.0000
  C   C1259     1.0  0.69547  0.36588  0.76534  1.0000
  H   H2161     1.0  0.87780  0.42686  0.78485  1.0000
  C   C1260     1.0  0.81730  0.34471  0.80343  1.0000
  H   H2162     1.0  0.86257  0.51664  0.80241  1.0000
  N   N93       1.0  0.81540  0.62371  0.84445  1.0000
  C   C1261     1.0  0.87198  0.61038  0.98612  1.0000
  H   H2163     1.0  0.77220  0.35389  0.76925  1.0000
  C   C1262     1.0  0.82204  0.59546  0.84419  1.0000
  C   C1263     1.0  0.78021  0.61328  0.84684  1.0000
  H   H2164     1.0  0.81964  0.44071  0.82603  1.0000
  H   H2165     1.0  0.83951  0.63894  0.97360  1.0000
  C   C1264     1.0  0.85704  0.60132  0.84368  1.0000
  C   C1265     1.0  0.76205  0.59908  0.83300  1.0000
  C   C1266     1.0  0.82871  0.46017  0.81656  1.0000
  H   H2166     1.0  0.81352  0.60812  0.96409  1.0000
  H   H2167     1.0  0.83172  0.51911  0.97406  1.0000
  C   C1267     1.0  0.78416  0.35049  0.77890  1.0000
  H   H2168     1.0  0.82111  0.63060  0.81913  1.0000
  C   C1268     1.0  0.75629  0.33675  0.94190  1.0000
  C   C1269     1.0  0.82473  0.38142  0.94548  1.0000
  H   H2169     1.0  0.85579  0.64542  0.94577  1.0000
  S   S359      1.0  0.83546  0.66436  0.78442  1.0000
  H   H2170     1.0  0.83086  0.34333  0.81275  1.0000
  H   H2171     1.0  0.80887  0.57816  0.85435  1.0000
  C   C1270     1.0  0.80862  0.34606  0.94957  1.0000
  C   C1271     1.0  0.80968  0.44985  0.80258  1.0000
  C   C1272     1.0  0.83737  0.61787  0.96820  1.0000
  H   H2172     1.0  0.54638  0.34617  0.85146  1.0000
  C   C1273     1.0  0.57995  0.37054  0.83183  1.0000
  H   H2173     1.0  0.80292  0.52612  0.98557  1.0000
  S   S360      1.0  0.79568  0.65995  0.74599  1.0000
  H   H2174     1.0  0.77413  0.58944  0.82494  1.0000
  H   H2175     1.0  0.75623  0.61630  0.82632  1.0000
  H   H2176     1.0  0.77788  0.47424  0.77149  1.0000
  H   H2177     1.0  0.61330  0.38069  0.77801  1.0000
  C   C1274     1.0  0.79427  0.35589  0.80585  1.0000
  C   C1275     1.0  0.82845  0.53600  0.98138  1.0000
  S   S361      1.0  0.70183  0.35970  0.96850  1.0000
  C   C1276     1.0  0.62265  0.35210  0.79542  1.0000
  H   H2178     1.0  0.58933  0.39246  0.83737  1.0000
  H   H2179     1.0  0.75856  0.44052  0.78562  1.0000
  H   H2180     1.0  0.76064  0.43644  0.76538  1.0000
  H   H2181     1.0  0.85858  0.57876  0.84358  1.0000
  C   C1277     1.0  0.86228  0.52114  0.78978  1.0000
  H   H2182     1.0  0.81759  0.45342  0.76281  1.0000
  H   H2183     1.0  0.84576  0.34060  0.85955  1.0000
  H   H2184     1.0  0.79886  0.42408  0.80366  1.0000
  H   H2185     1.0  0.84059  0.39184  0.95445  1.0000
  H   H2186     1.0  0.83586  0.50441  0.77082  1.0000
  H   H2187     1.0  0.52944  0.34099  0.96871  1.0000
  H   H2188     1.0  0.86749  0.46860  0.77135  1.0000
  H   H2189     1.0  0.83339  0.64042  0.88236  1.0000
  S   S362      1.0  0.56059  0.34027  0.76365  1.0000
  H   H2190     1.0  0.78898  0.45528  0.80471  1.0000
  H   H2191     1.0  0.85522  0.65194  0.82766  1.0000
  H   H2192     1.0  0.86229  0.54434  0.78775  1.0000
  C   C1278     1.0  0.60643  0.35736  0.78337  1.0000
  C   C1279     1.0  0.80510  0.44620  0.77484  1.0000
  H   H2193     1.0  0.82826  0.33882  0.94890  1.0000
  S   S363      1.0  0.85648  0.62893  0.75782  1.0000
  H   H2194     1.0  0.78200  0.42891  0.90209  1.0000
  H   H2195     1.0  0.86176  0.61084  0.94688  1.0000
  H   H2196     1.0  0.86800  0.61189  0.85397  1.0000
  H   H2197     1.0  0.81329  0.58317  0.83392  1.0000
  H   H2198     1.0  0.76120  0.36870  0.79503  1.0000
  H   H2199     1.0  0.67296  0.36304  0.76091  1.0000
  H   H2200     1.0  0.88442  0.52303  0.78334  1.0000
  H   H2201     1.0  0.79988  0.38073  0.91884  1.0000
  C   C1280     1.0  0.85677  0.45968  0.78359  1.0000
  C   C1281     1.0  0.82991  0.64215  0.85754  1.0000
  H   H2202     1.0  0.67634  0.33946  0.78772  1.0000
  H   H2203     1.0  0.70377  0.38755  0.77111  1.0000
  H   H2204     1.0  0.53249  0.36570  0.83781  1.0000
  H   H2205     1.0  0.88590  0.64390  0.95658  1.0000
  C   C1282     1.0  0.79825  0.36081  0.91259  1.0000
  C   C1283     1.0  0.54537  0.35075  0.83880  1.0000
  H   H2206     1.0  0.81947  0.36945  0.90393  1.0000
  H   H2207     1.0  0.58234  0.37705  0.81912  1.0000
  H   H2208     1.0  0.76314  0.36135  0.93802  1.0000
  H   H2209     1.0  0.58207  0.34495  0.97122  1.0000
  H   H2210     1.0  0.85602  0.65310  0.85530  1.0000
  S   S364      1.0  0.94259  0.66369  0.73973  1.0000
  C   C1284     1.0  0.69158  0.33886  0.77741  1.0000
  C   C1285     1.0  0.82279  0.33519  0.78896  1.0000
  H   H2211     1.0  0.79875  0.34136  0.96205  1.0000
  S   S365      1.0  0.90714  0.66771  0.78127  1.0000
  H   H2212     1.0  0.79785  0.66778  0.82777  1.0000
  H   H2213     1.0  0.56019  0.97889  0.16122  1.0000
  H   H2214     1.0  0.87616  0.68669  0.11303  1.0000
  H   H2215     1.0  0.62401  0.97281  0.09002  1.0000
  Fe  Fe185     1.0  0.66088  0.69946  0.13185  1.0000
  S   S366      1.0  0.68119  0.74426  0.11580  1.0000
  S   S367      1.0  0.69433  0.68945  0.14623  1.0000
  Fe  Fe186     1.0  0.65517  0.86786  0.02925  1.0000
  S   S368      1.0  0.61049  0.82410  0.03135  1.0000
  S   S369      1.0  0.69523  0.87354  0.01112  1.0000
  Fe  Fe187     1.0  0.63038  0.89438  0.05555  1.0000
  S   S370      1.0  0.58364  0.85283  0.05938  1.0000
  S   S371      1.0  0.63710  0.93700  0.06776  1.0000
  Fe  Fe188     1.0  0.61233  0.82520  0.05718  1.0000
  S   S372      1.0  0.59530  0.78007  0.07283  1.0000
  Fe  Fe189     1.0  0.58580  0.85517  0.03340  1.0000
  S   S373      1.0  0.54611  0.85290  0.01944  1.0000
  S   S374      1.0  0.65921  0.86665  0.05515  1.0000
  S   S375      1.0  0.63039  0.89898  0.02951  1.0000
  C   C1286     1.0  0.71541  0.96137  0.22283  1.0000
  H   H2216     1.0  0.63505  0.82900  0.09828  1.0000
  C   C1287     1.0  0.69802  0.69061  0.08540  1.0000
  S   S376      1.0  0.66816  0.95462  0.13750  1.0000
  H   H2217     1.0  0.68726  0.86855  0.10228  1.0000
  C   C1288     1.0  0.64361  0.93965  0.08751  1.0000
  C   C1289     1.0  0.65872  0.92357  0.09484  1.0000
  C   C1290     1.0  0.66594  0.92825  0.11021  1.0000
  C   C1291     1.0  0.65824  0.94908  0.11832  1.0000
  C   C1292     1.0  0.64302  0.96506  0.11099  1.0000
  C   C1293     1.0  0.63564  0.96025  0.09566  1.0000
  H   H2218     1.0  0.66574  0.90836  0.08846  1.0000
  H   H2219     1.0  0.67830  0.91633  0.11572  1.0000
  H   H2220     1.0  0.68830  0.69679  0.05435  1.0000
  C   C1294     1.0  0.49361  0.76026  0.02197  1.0000
  H   H2221     1.0  0.74482  0.98017  0.07617  1.0000
  C   C1295     1.0  0.74009  0.73658  0.21577  1.0000
  C   C1296     1.0  0.65750  0.75292  0.10321  1.0000
  C   C1297     1.0  0.67075  0.78071  0.09328  1.0000
  C   C1298     1.0  0.65223  0.78885  0.08346  1.0000
  C   C1299     1.0  0.62023  0.76939  0.08368  1.0000
  C   C1300     1.0  0.60715  0.74131  0.09339  1.0000
  C   C1301     1.0  0.62573  0.73302  0.10311  1.0000
  H   H2222     1.0  0.69535  0.79618  0.09332  1.0000
  H   H2223     1.0  0.66254  0.81048  0.07599  1.0000
  H   H2224     1.0  0.58239  0.72614  0.09360  1.0000
  H   H2225     1.0  0.61532  0.71154  0.11072  1.0000
  H   H2226     1.0  0.95735  0.69438  0.21859  1.0000
  H   H2227     1.0  0.92684  0.70578  0.22411  1.0000
  C   C1302     1.0  0.51629  0.78937  0.02473  1.0000
  C   C1303     1.0  0.51875  0.81609  0.01599  1.0000
  C   C1304     1.0  0.74492  0.96588  0.23095  1.0000
  H   H2228     1.0  0.66081  0.71455  0.21744  1.0000
  H   H2229     1.0  0.69718  0.93727  0.22431  1.0000
  H   H2230     1.0  0.53153  0.79117  0.03377  1.0000
  S   S377      1.0  0.81083  0.68472  0.07588  1.0000
  H   H2231     1.0  0.76736  0.72682  0.19759  1.0000
  H   H2232     1.0  0.73954  0.67840  0.12142  1.0000
  H   H2233     1.0  0.68644  0.69941  0.09432  1.0000
  H   H2234     1.0  0.90993  0.66888  0.09165  1.0000
  H   H2235     1.0  0.56564  0.83849  0.11072  1.0000
  Fe  Fe190     1.0  0.65382  0.67119  0.16527  1.0000
  H   H2236     1.0  0.98934  0.68555  0.09314  1.0000
  C   C1305     1.0  0.73875  0.68100  0.05851  1.0000
  H   H2237     1.0  0.92811  0.68890  0.11666  1.0000
  C   C1306     1.0  0.71825  0.70829  0.19374  1.0000
  C   C1307     1.0  0.68801  0.70435  0.19940  1.0000
  C   C1308     1.0  0.68409  0.71730  0.21305  1.0000
  H   H2238     1.0  0.72159  0.69844  0.18326  1.0000
  H   H2239     1.0  0.65584  0.72303  0.05518  1.0000
  H   H2240     1.0  0.58490  0.78016  0.00323  1.0000
  C   C1309     1.0  0.71002  0.73349  0.22116  1.0000
  H   H2241     1.0  0.72222  0.96686  0.21006  1.0000
  H   H2242     1.0  0.54169  0.78879  0.99392  1.0000
  H   H2243     1.0  0.74085  0.90850  0.22401  1.0000
  C   C1310     1.0  0.51541  0.97878  0.15673  1.0000
  C   C1311     1.0  0.69649  0.88834  0.99168  1.0000
  H   H2244     1.0  0.58820  0.83417  0.09389  1.0000
  C   C1312     1.0  0.57116  0.82179  0.10428  1.0000
  C   C1313     1.0  0.59667  0.83647  0.98860  1.0000
  H   H2245     1.0  0.68250  0.75442  0.06430  1.0000
  H   H2246     1.0  0.65930  0.90278  0.99627  1.0000
  C   C1314     1.0  0.72813  0.99084  0.07831  1.0000
  S   S378      1.0  0.62168  0.68450  0.15132  1.0000
  H   H2247     1.0  0.78496  0.70552  0.10116  1.0000
  H   H2248     1.0  0.76124  0.68208  0.05283  1.0000
  C   C1315     1.0  0.67587  0.90108  0.98748  1.0000
  S   S379      1.0  0.88410  0.67705  0.05558  1.0000
  H   H2249     1.0  0.63367  0.86161  0.10615  1.0000
  C   C1316     1.0  0.49571  0.99415  0.15812  1.0000
  H   H2250     1.0  0.70503  0.97709  0.22673  1.0000
  C   C1317     1.0  0.49899  0.81355  0.00427  1.0000
  H   H2251     1.0  0.75749  0.99122  0.23138  1.0000
  N   N94       1.0  0.71779  0.71601  0.07267  1.0000
  C   C1318     1.0  0.73054  0.74660  0.07947  1.0000
  C   C1319     1.0  0.69924  0.71881  0.05962  1.0000
  C   C1320     1.0  0.74579  0.71117  0.06598  1.0000
  H   H2252     1.0  0.70677  0.74354  0.23158  1.0000
  C   C1321     1.0  0.75172  0.74933  0.09265  1.0000
  H   H2253     1.0  0.58579  0.83164  0.00089  1.0000
  H   H2254     1.0  0.70994  0.98289  0.07007  1.0000
  H   H2255     1.0  0.71642  0.98145  0.09022  1.0000
  H   H2256     1.0  0.74409  0.76604  0.07023  1.0000
  H   H2257     1.0  0.71101  0.75160  0.08456  1.0000
  H   H2258     1.0  0.50747  0.95724  0.15151  1.0000
  S   S380      1.0  0.77305  0.75468  0.22616  1.0000
  H   H2259     1.0  0.76089  0.73080  0.05712  1.0000
  H   H2260     1.0  0.76120  0.71103  0.07507  1.0000
  H   H2261     1.0  0.50115  0.83418  0.99735  1.0000
  H   H2262     1.0  0.97838  0.70621  0.07100  1.0000
  H   H2263     1.0  0.77550  0.75192  0.08814  1.0000
  H   H2264     1.0  0.75519  0.77056  0.09829  1.0000
  H   H2265     1.0  0.74085  0.72963  0.10191  1.0000
  H   H2266     1.0  0.65933  0.71759  0.07553  1.0000
  H   H2267     1.0  0.68740  0.66962  0.23012  1.0000
  H   H2268     1.0  0.71519  0.73590  0.04990  1.0000
  H   H2269     1.0  0.63678  0.98099  0.11713  1.0000
  H   H2270     1.0  0.97911  0.74372  0.22926  1.0000
  H   H2271     1.0  0.84412  0.68398  0.99992  1.0000
  H   H2272     1.0  0.93168  0.67525  0.23587  1.0000
  C   C1322     1.0  0.67273  0.72893  0.06407  1.0000
  C   C1323     1.0  0.54523  0.99098  0.16221  1.0000
  N   N95       1.0  0.61259  0.81952  0.12199  1.0000
  C   C1324     1.0  0.58271  0.80201  0.11472  1.0000
  C   C1325     1.0  0.62259  0.79588  0.12920  1.0000
  C   C1326     1.0  0.63735  0.84049  0.10917  1.0000
  C   C1327     1.0  0.60540  0.83814  0.13380  1.0000
  C   C1328     1.0  0.59915  0.77237  0.14228  1.0000
  C   C1329     1.0  0.67219  0.85119  0.11204  1.0000
  C   C1330     1.0  0.63133  0.85524  0.14414  1.0000
  H   H2273     1.0  0.58556  0.78480  0.10744  1.0000
  H   H2274     1.0  0.56272  0.78835  0.12377  1.0000
  H   H2275     1.0  0.64538  0.80668  0.13409  1.0000
  H   H2276     1.0  0.62702  0.78244  0.12009  1.0000
  H   H2277     1.0  0.59998  0.85648  0.12791  1.0000
  H   H2278     1.0  0.58333  0.82386  0.14156  1.0000
  H   H2279     1.0  0.54909  0.80618  0.09979  1.0000
  H   H2280     1.0  0.57718  0.75654  0.13786  1.0000
  H   H2281     1.0  0.61006  0.75754  0.14715  1.0000
  H   H2282     1.0  0.59363  0.78390  0.15199  1.0000
  H   H2283     1.0  0.67925  0.83171  0.11212  1.0000
  H   H2284     1.0  0.67772  0.86233  0.12287  1.0000
  H   H2285     1.0  0.64694  0.87894  0.13861  1.0000
  H   H2286     1.0  0.64575  0.84290  0.14727  1.0000
  H   H2287     1.0  0.62010  0.85745  0.15544  1.0000
  C   C1331     1.0  0.74412  0.72428  0.20193  1.0000
  H   H2288     1.0  0.75507  0.68486  0.23047  1.0000
  H   H2289     1.0  0.76132  0.96096  0.22282  1.0000
  S   S381      1.0  0.65422  0.68112  0.19067  1.0000
  H   H2290     1.0  0.71324  0.68257  0.09190  1.0000
  C   C1332     1.0  0.89273  0.69717  0.99167  1.0000
  C   C1333     1.0  0.77102  0.68085  0.10140  1.0000
  H   H2291     1.0  0.83928  0.68840  0.10940  1.0000
  H   H2292     1.0  0.72267  0.67741  0.04937  1.0000
  Fe  Fe191     1.0  0.66900  0.99650  0.14879  1.0000
  C   C1334     1.0  0.94394  0.69799  0.22879  1.0000
  S   S382      1.0  0.90387  0.68710  0.00961  1.0000
  C   C1335     1.0  0.86187  0.69300  0.98997  1.0000
  H   H2293     1.0  0.86422  0.68489  0.09396  1.0000
  C   C1336     1.0  0.93189  0.66951  0.11284  1.0000
  H   H2294     1.0  0.98743  0.72519  0.10598  1.0000
  S   S383      1.0  0.65493  0.99565  0.17440  1.0000
  C   C1337     1.0  0.73710  0.89874  0.23635  1.0000
  H   H2295     1.0  0.63609  0.77977  0.00153  1.0000
  S   S384      1.0  0.95729  0.66946  0.14030  1.0000
  H   H2296     1.0  0.55117  0.99982  0.12284  1.0000
  C   C1338     1.0  0.85539  0.67746  0.10647  1.0000
  C   C1339     1.0  0.59778  0.78542  0.99129  1.0000
  C   C1340     1.0  0.63309  0.79680  0.99321  1.0000
  H   H2297     1.0  0.64310  0.81916  0.99824  1.0000
  H   H2298     1.0  0.49139  0.73966  0.02896  1.0000
  H   H2299     1.0  0.62214  0.84864  0.98947  1.0000
  H   H2300     1.0  0.52110  0.90186  0.41127  1.0000
  H   H2301     1.0  0.92505  0.94831  0.46552  1.0000
  S   S385      1.0  0.94167  0.73380  0.30472  1.0000
  Fe  Fe192     1.0  0.77107  0.76692  0.25105  1.0000
  S   S386      1.0  0.79881  0.81452  0.25818  1.0000
  H   H2302     1.0  0.77752  0.68376  0.31336  1.0000
  Fe  Fe193     1.0  0.74938  0.73812  0.28479  1.0000
  S   S387      1.0  0.77503  0.78316  0.29461  1.0000
  Fe  Fe194     1.0  0.75683  0.80379  0.27571  1.0000
  S   S388      1.0  0.73120  0.83456  0.27986  1.0000
  Fe  Fe195     1.0  0.81526  0.79046  0.27648  1.0000
  S   S389      1.0  0.86663  0.81053  0.28166  1.0000
  S   S390      1.0  0.72787  0.75760  0.26720  1.0000
  S   S391      1.0  0.79085  0.74410  0.26807  1.0000
  H   H2303     1.0  0.52437  0.80171  0.45546  1.0000
  H   H2304     1.0  0.73150  0.98649  0.25609  1.0000
  S   S392      1.0  0.78905  0.97128  0.30017  1.0000
  H   H2305     1.0  0.89168  0.70387  0.24243  1.0000
  S   S393      1.0  0.69278  0.67481  0.39335  1.0000
  S   S394      1.0  0.80589  0.82029  0.46136  1.0000
  Fe  Fe196     1.0  0.69050  0.71384  0.40596  1.0000
  S   S395      1.0  0.73069  0.75081  0.39076  1.0000
  S   S396      1.0  0.68963  0.71964  0.43207  1.0000
  Fe  Fe197     1.0  0.69266  0.75394  0.37644  1.0000
  S   S397      1.0  0.67810  0.79525  0.37231  1.0000
  S   S398      1.0  0.65307  0.71632  0.39163  1.0000
  Fe  Fe198     1.0  0.52237  0.84144  0.36223  1.0000
  S   S399      1.0  0.53568  0.87717  0.37923  1.0000
  S   S400      1.0  0.55742  0.81998  0.35427  1.0000
  S   S401      1.0  0.52728  0.95334  0.35788  1.0000
  Fe  Fe199     1.0  0.54254  0.98290  0.41185  1.0000
  S   S402      1.0  0.52988  0.97740  0.43799  1.0000
  S   S403      1.0  0.59190  0.98346  0.40568  1.0000
  S   S404      1.0  0.49564  0.86432  0.34875  1.0000
  H   H2306     1.0  0.69770  0.90778  0.24393  1.0000
  S   S405      1.0  0.72566  0.68986  0.29755  1.0000
  C   C1341     1.0  0.61231  0.98354  0.38729  1.0000
  H   H2307     1.0  0.55574  0.91570  0.42083  1.0000
  H   H2308     1.0  0.88408  0.73696  0.24522  1.0000
  H   H2309     1.0  0.91714  0.68348  0.25943  1.0000
  C   C1342     1.0  0.64065  0.79641  0.36889  1.0000
  C   C1343     1.0  0.62690  0.81077  0.37891  1.0000
  C   C1344     1.0  0.60064  0.81667  0.37515  1.0000
  C   C1345     1.0  0.58802  0.80945  0.36092  1.0000
  C   C1346     1.0  0.60144  0.79468  0.35107  1.0000
  C   C1347     1.0  0.62719  0.78821  0.35498  1.0000
  H   H2310     1.0  0.63692  0.81803  0.38956  1.0000
  H   H2311     1.0  0.59103  0.82806  0.38297  1.0000
  H   H2312     1.0  0.59234  0.78881  0.34004  1.0000
  H   H2313     1.0  0.63749  0.77794  0.34681  1.0000
  C   C1348     1.0  0.68541  0.69897  0.31971  1.0000
  C   C1349     1.0  0.96732  0.72264  0.23772  1.0000
  C   C1350     1.0  0.77287  0.79228  0.45369  1.0000
  C   C1351     1.0  0.77752  0.78340  0.43892  1.0000
  C   C1352     1.0  0.75239  0.76127  0.43224  1.0000
  C   C1353     1.0  0.72200  0.74770  0.44019  1.0000
  C   C1354     1.0  0.71724  0.75663  0.45499  1.0000
  C   C1355     1.0  0.74245  0.77899  0.46165  1.0000
  H   H2314     1.0  0.80090  0.79348  0.43263  1.0000
  H   H2315     1.0  0.75671  0.75441  0.42100  1.0000
  H   H2316     1.0  0.69383  0.74648  0.46123  1.0000
  H   H2317     1.0  0.73829  0.78631  0.47279  1.0000
  H   H2318     1.0  0.67844  0.96006  0.26768  1.0000
  H   H2319     1.0  0.72390  0.70016  0.24682  1.0000
  H   H2320     1.0  0.81210  0.69211  0.32280  1.0000
  Fe  Fe200     1.0  0.50858  0.89981  0.36653  1.0000
  H   H2321     1.0  0.95934  0.80072  0.29968  1.0000
  C   C1356     1.0  0.72194  0.91443  0.24708  1.0000
  C   C1357     1.0  0.59674  0.96583  0.37576  1.0000
  C   C1358     1.0  0.61329  0.96667  0.36133  1.0000
  H   H2322     1.0  0.57171  0.95152  0.37793  1.0000
  H   H2323     1.0  0.60034  0.95365  0.35241  1.0000
  H   H2324     1.0  0.49391  0.98280  0.32360  1.0000
  H   H2325     1.0  0.89417  0.95037  0.47811  1.0000
  C   C1359     1.0  0.74765  0.87196  0.28621  1.0000
  C   C1360     1.0  0.77959  0.88716  0.28822  1.0000
  C   C1361     1.0  0.79180  0.91739  0.29273  1.0000
  C   C1362     1.0  0.77232  0.93278  0.29517  1.0000
  C   C1363     1.0  0.74036  0.91749  0.29320  1.0000
  C   C1364     1.0  0.72807  0.88716  0.28889  1.0000
  H   H2326     1.0  0.79493  0.87572  0.28617  1.0000
  H   H2327     1.0  0.81659  0.92903  0.29418  1.0000
  H   H2328     1.0  0.72523  0.92918  0.29471  1.0000
  H   H2329     1.0  0.70333  0.87552  0.28736  1.0000
  H   H2330     1.0  0.65435  0.70493  0.33754  1.0000
  S   S406      1.0  0.77234  0.69385  0.37400  1.0000
  H   H2331     1.0  0.57405  0.87475  0.43343  1.0000
  H   H2332     1.0  0.65836  0.92177  0.30947  1.0000
  H   H2333     1.0  0.59653  0.91478  0.43524  1.0000
  C   C1365     1.0  0.92294  0.75613  0.29676  1.0000
  C   C1366     1.0  0.89290  0.74063  0.29181  1.0000
  C   C1367     1.0  0.87605  0.75708  0.28644  1.0000
  C   C1368     1.0  0.88870  0.78925  0.28633  1.0000
  C   C1369     1.0  0.91911  0.80486  0.29084  1.0000
  C   C1370     1.0  0.93628  0.78843  0.29592  1.0000
  H   H2334     1.0  0.88241  0.71574  0.29219  1.0000
  H   H2335     1.0  0.85288  0.74483  0.28281  1.0000
  H   H2336     1.0  0.92918  0.82979  0.29072  1.0000
  C   C1371     1.0  0.64601  0.98457  0.35824  1.0000
  N   N96       1.0  0.81360  0.74849  0.33378  1.0000
  C   C1372     1.0  0.78787  0.72260  0.32703  1.0000
  C   C1373     1.0  0.79761  0.76239  0.34460  1.0000
  C   C1374     1.0  0.83219  0.73457  0.34254  1.0000
  C   C1375     1.0  0.83460  0.77164  0.32058  1.0000
  C   C1376     1.0  0.79872  0.70298  0.31670  1.0000
  C   C1377     1.0  0.77905  0.77857  0.33689  1.0000
  C   C1378     1.0  0.84959  0.75174  0.35586  1.0000
  C   C1379     1.0  0.86083  0.80164  0.32486  1.0000
  H   H2337     1.0  0.77023  0.70625  0.33652  1.0000
  H   H2338     1.0  0.77446  0.73161  0.31967  1.0000
  H   H2339     1.0  0.81443  0.77968  0.35124  1.0000
  H   H2340     1.0  0.78084  0.74425  0.35362  1.0000
  H   H2341     1.0  0.81665  0.71069  0.34790  1.0000
  H   H2342     1.0  0.85015  0.73181  0.33443  1.0000
  H   H2343     1.0  0.84694  0.76097  0.31334  1.0000
  H   H2344     1.0  0.82090  0.77800  0.31224  1.0000
  H   H2345     1.0  0.67720  0.94699  0.24891  1.0000
  H   H2346     1.0  0.87838  0.67695  0.31077  1.0000
  H   H2347     1.0  0.72917  0.95739  0.27050  1.0000
  H   H2348     1.0  0.79429  0.79796  0.32806  1.0000
  H   H2349     1.0  0.75845  0.76217  0.33171  1.0000
  H   H2350     1.0  0.76942  0.78865  0.34595  1.0000
  H   H2351     1.0  0.86410  0.74020  0.36021  1.0000
  H   H2352     1.0  0.83271  0.75026  0.36588  1.0000
  H   H2353     1.0  0.86567  0.77620  0.35214  1.0000
  H   H2354     1.0  0.88272  0.79856  0.32624  1.0000
  H   H2355     1.0  0.85412  0.81045  0.33530  1.0000
  H   H2356     1.0  0.86622  0.82044  0.31532  1.0000
  N   N97       1.0  0.66916  0.89515  0.33746  1.0000
  C   C1380     1.0  0.63993  0.89868  0.33341  1.0000
  C   C1381     1.0  0.66533  0.88745  0.35485  1.0000
  C   C1382     1.0  0.67012  0.86837  0.32949  1.0000
  C   C1383     1.0  0.69773  0.92481  0.33185  1.0000
  C   C1384     1.0  0.63684  0.90318  0.31591  1.0000
  C   C1385     1.0  0.66092  0.91151  0.36461  1.0000
  C   C1386     1.0  0.69683  0.85882  0.33269  1.0000
  C   C1387     1.0  0.72813  0.93120  0.33969  1.0000
  H   H2357     1.0  0.61817  0.87820  0.33865  1.0000
  H   H2358     1.0  0.63852  0.91898  0.33839  1.0000
  H   H2359     1.0  0.68519  0.88348  0.35899  1.0000
  H   H2360     1.0  0.64454  0.86515  0.35825  1.0000
  H   H2361     1.0  0.64745  0.84741  0.33256  1.0000
  H   H2362     1.0  0.67267  0.87348  0.31662  1.0000
  H   H2363     1.0  0.70377  0.92606  0.31916  1.0000
  H   H2364     1.0  0.69229  0.94499  0.33347  1.0000
  C   C1388     1.0  0.78042  0.72612  0.46900  1.0000
  H   H2365     1.0  0.93959  0.75902  0.23767  1.0000
  H   H2366     1.0  0.55338  0.99164  0.38398  1.0000
  H   H2367     1.0  0.66349  0.90616  0.37696  1.0000
  H   H2368     1.0  0.67850  0.93548  0.36069  1.0000
  H   H2369     1.0  0.63685  0.91042  0.36440  1.0000
  H   H2370     1.0  0.72013  0.87684  0.32753  1.0000
  H   H2371     1.0  0.69323  0.83785  0.32677  1.0000
  H   H2372     1.0  0.69690  0.85233  0.34519  1.0000
  H   H2373     1.0  0.74878  0.94195  0.33068  1.0000
  H   H2374     1.0  0.72974  0.91073  0.34548  1.0000
  H   H2375     1.0  0.73161  0.94867  0.34805  1.0000
  C   C1389     1.0  0.93195  0.74476  0.24919  1.0000
  H   H2376     1.0  0.53705  0.87550  0.41678  1.0000
  C   C1390     1.0  0.53303  0.89534  0.42054  1.0000
  H   H2377     1.0  0.77538  0.69184  0.24769  1.0000
  H   H2378     1.0  0.58040  0.66909  0.38455  1.0000
  H   H2379     1.0  0.80081  0.74182  0.46060  1.0000
  H   H2380     1.0  0.93271  0.76124  0.25787  1.0000
  C   C1391     1.0  0.66033  0.68279  0.25578  1.0000
  H   H2381     1.0  0.73099  0.68495  0.26411  1.0000
  N   N98       1.0  0.73985  0.94901  0.24696  1.0000
  N   N99       1.0  0.72021  0.83418  0.41519  1.0000
  C   C1392     1.0  0.68500  0.81726  0.41499  1.0000
  C   C1393     1.0  0.73024  0.86687  0.40783  1.0000
  C   C1394     1.0  0.72712  0.83402  0.43201  1.0000
  C   C1395     1.0  0.73545  0.81717  0.40620  1.0000
  C   C1396     1.0  0.66958  0.78350  0.42270  1.0000
  C   C1397     1.0  0.72333  0.87044  0.39082  1.0000
  C   C1398     1.0  0.75601  0.86181  0.43637  1.0000
  C   C1399     1.0  0.77167  0.83223  0.40361  1.0000
  H   H2382     1.0  0.67273  0.83005  0.42069  1.0000
  H   H2383     1.0  0.67865  0.81574  0.40290  1.0000
  H   H2384     1.0  0.75592  0.88090  0.40786  1.0000
  H   H2385     1.0  0.71862  0.87875  0.41482  1.0000
  H   H2386     1.0  0.70690  0.83311  0.43994  1.0000
  H   H2387     1.0  0.72997  0.81276  0.43583  1.0000
  H   H2388     1.0  0.72867  0.79369  0.41223  1.0000
  H   H2389     1.0  0.72668  0.81329  0.39459  1.0000
  H   H2390     1.0  0.64355  0.77478  0.42333  1.0000
  H   H2391     1.0  0.67593  0.76813  0.41554  1.0000
  H   H2392     1.0  0.67552  0.78101  0.43471  1.0000
  H   H2393     1.0  0.73374  0.85899  0.38294  1.0000
  H   H2394     1.0  0.69773  0.86185  0.38980  1.0000
  H   H2395     1.0  0.73409  0.89543  0.38644  1.0000
  H   H2396     1.0  0.77793  0.86723  0.42875  1.0000
  H   H2397     1.0  0.76046  0.85639  0.44840  1.0000
  H   H2398     1.0  0.75147  0.88283  0.43637  1.0000
  H   H2399     1.0  0.78128  0.85553  0.39704  1.0000
  H   H2400     1.0  0.77955  0.81769  0.39653  1.0000
  H   H2401     1.0  0.78206  0.83307  0.41471  1.0000
  C   C1400     1.0  0.95782  0.68505  0.26964  1.0000
  H   H2402     1.0  0.69167  0.72130  0.31328  1.0000
  C   C1401     1.0  0.91937  0.96288  0.47357  1.0000
  C   C1402     1.0  0.51186  0.88767  0.43609  1.0000
  H   H2403     1.0  0.84426  0.96332  0.48441  1.0000
  H   H2404     1.0  0.92740  0.70742  0.27470  1.0000
  Fe  Fe201     1.0  0.73264  0.71128  0.37776  1.0000
  Fe  Fe202     1.0  0.81726  0.83686  0.48540  1.0000
  C   C1403     1.0  0.55500  0.89392  0.45264  1.0000
  C   C1404     1.0  0.89651  0.72322  0.24963  1.0000
  H   H2405     1.0  0.96933  0.67825  0.25988  1.0000
  C   C1405     1.0  0.58184  0.89189  0.44192  1.0000
  H   H2406     1.0  0.97577  0.69930  0.27693  1.0000
  H   H2407     1.0  0.97854  0.70629  0.42130  1.0000
  C   C1406     1.0  0.69857  0.67942  0.31446  1.0000
  H   H2408     1.0  0.75920  0.72590  0.46415  1.0000
  H   H2409     1.0  0.96506  0.98652  0.48141  1.0000
  S   S407      1.0  0.70250  0.72162  0.36103  1.0000
  N   N100      1.0  0.95399  0.72981  0.25252  1.0000
  Fe  Fe203     1.0  0.66302  0.68441  0.37646  1.0000
  H   H2410     1.0  0.68076  0.70563  0.25390  1.0000
  H   H2411     1.0  0.93176  0.66838  0.34667  1.0000
  H   H2412     1.0  0.64276  0.68501  0.26432  1.0000
  H   H2413     1.0  0.55188  0.83708  0.46138  1.0000
  H   H2414     1.0  0.63819  0.97361  0.44246  1.0000
  C   C1407     1.0  0.79200  0.98842  0.25578  1.0000
  H   H2415     1.0  0.71865  0.90288  0.25909  1.0000
  C   C1408     1.0  0.98116  0.75262  0.25990  1.0000
  C   C1409     1.0  0.51571  0.84111  0.44738  1.0000
  H   H2416     1.0  0.52676  0.91395  0.47517  1.0000
  C   C1410     1.0  0.54800  0.99487  0.35970  1.0000
  H   H2417     1.0  0.63066  0.88129  0.31051  1.0000
  H   H2418     1.0  0.52637  0.83950  0.43586  1.0000
  C   C1411     1.0  0.66418  0.68960  0.33341  1.0000
  C   C1412     1.0  0.77191  0.95514  0.25200  1.0000
  H   H2419     1.0  0.55879  0.88862  0.46484  1.0000
  H   H2420     1.0  0.51074  0.90967  0.43840  1.0000
  C   C1413     1.0  0.52683  0.82402  0.45962  1.0000
  H   H2421     1.0  0.61721  0.91008  0.31456  1.0000
  C   C1414     1.0  0.93750  0.70137  0.26408  1.0000
  S   S408      1.0  0.71161  0.98558  0.30061  1.0000
  H   H2422     1.0  0.81259  0.71665  0.30572  1.0000
  H   H2423     1.0  0.88198  0.68141  0.33078  1.0000
  H   H2424     1.0  0.59766  0.88596  0.44907  1.0000
  H   H2425     1.0  0.64932  0.67748  0.24482  1.0000
  N   N101      1.0  0.52156  0.87396  0.44984  1.0000
  H   H2426     1.0  0.97278  0.75642  0.27161  1.0000
  H   H2427     1.0  0.78101  0.99463  0.26596  1.0000
  H   H2428     1.0  0.55908  0.91872  0.45167  1.0000
  H   H2429     1.0  0.72316  0.71690  0.48288  1.0000
  H   H2430     1.0  0.76963  0.93932  0.26252  1.0000
  S   S409      1.0  0.66507  0.98599  0.33927  1.0000
  C   C1415     1.0  0.72322  0.96103  0.25856  1.0000
  H   H2431     1.0  0.78664  0.95017  0.24290  1.0000
  H   H2432     1.0  0.67677  0.92246  0.26586  1.0000
  C   C1416     1.0  0.68686  0.94655  0.26011  1.0000
  H   H2433     1.0  0.98437  0.79666  0.24792  1.0000
  S   S410      1.0  0.49328  0.94922  0.40764  1.0000
  C   C1417     1.0  0.98061  0.68746  0.41522  1.0000
  H   H2434     1.0  0.92757  0.67419  0.31948  1.0000
  H   H2435     1.0  0.96316  0.68117  0.40659  1.0000
  H   H2436     1.0  0.92314  0.98471  0.46658  1.0000
  H   H2437     1.0  0.88580  0.71371  0.26175  1.0000
  C   C1418     1.0  0.75333  0.67689  0.24299  1.0000
  C   C1419     1.0  0.72498  0.67894  0.25223  1.0000
  H   H2438     1.0  0.51190  0.81795  0.47092  1.0000
  H   H2439     1.0  0.78014  0.70279  0.46920  1.0000
  H   H2440     1.0  0.81874  0.66978  0.37940  1.0000
  C   C1420     1.0  0.49965  0.87201  0.46397  1.0000
  H   H2441     1.0  0.81498  0.98979  0.25902  1.0000
  H   H2442     1.0  0.98597  0.71493  0.24012  1.0000
  H   H2443     1.0  0.75949  0.89977  0.24023  1.0000
  C   C1421     1.0  0.64007  0.99336  0.44904  1.0000
  H   H2444     1.0  0.61974  0.98439  0.45820  1.0000
  C   C1422     1.0  0.78489  0.73855  0.48510  1.0000
  H   H2445     1.0  0.78861  0.76323  0.48348  1.0000
  C   C1423     1.0  0.50403  0.90295  0.47022  1.0000
  H   H2446     1.0  0.50220  0.85796  0.47403  1.0000
  H   H2447     1.0  0.50201  0.91970  0.46145  1.0000
  C   C1424     1.0  0.64537  0.00021  0.38456  1.0000
  C   C1425     1.0  0.66213  0.00053  0.37021  1.0000
  H   H2448     1.0  0.66234  0.00070  0.45448  1.0000
  H   H2449     1.0  0.48997  0.82673  0.44712  1.0000
  H   H2450     1.0  0.72095  0.87375  0.23693  1.0000
  Fe  Fe204     1.0  0.82454  0.88856  0.50663  1.0000
  S   S411      1.0  0.78481  0.84258  0.50397  1.0000
  H   H2451     1.0  0.90085  0.93130  0.50749  1.0000
  Fe  Fe205     1.0  0.87405  0.86133  0.50449  1.0000
  S   S412      1.0  0.83749  0.81334  0.50200  1.0000
  H   H2452     1.0  0.81651  0.81408  0.71681  1.0000
  Fe  Fe206     1.0  0.80710  0.82209  0.52083  1.0000
  S   S413      1.0  0.77035  0.78645  0.53925  1.0000
  S   S414      1.0  0.84495  0.86809  0.52452  1.0000
  Fe  Fe207     1.0  0.74685  0.74279  0.63433  1.0000
  S   S415      1.0  0.69777  0.73750  0.64236  1.0000
  S   S416      1.0  0.78001  0.76478  0.61182  1.0000
  Fe  Fe208     1.0  0.75905  0.72657  0.66766  1.0000
  S   S417      1.0  0.71130  0.72009  0.67807  1.0000
  N   N102      1.0  0.93063  0.98036  0.50102  1.0000
  Fe  Fe209     1.0  0.69319  0.69471  0.65719  1.0000
  Fe  Fe210     1.0  0.71882  0.76265  0.66272  1.0000
  S   S418      1.0  0.71180  0.80405  0.67045  1.0000
  S   S419      1.0  0.74099  0.69814  0.64788  1.0000
  S   S420      1.0  0.76772  0.77102  0.65370  1.0000
  C   C1426     1.0  0.58986  0.74114  0.69711  1.0000
  H   H2453     1.0  0.64288  0.75290  0.65226  1.0000
  C   C1427     1.0  0.90098  0.95426  0.50917  1.0000
  C   C1428     1.0  0.96270  0.68895  0.72285  1.0000
  C   C1429     1.0  0.83777  0.97794  0.49151  1.0000
  C   C1430     1.0  0.96163  0.71760  0.72002  1.0000
  H   H2454     1.0  0.80173  0.97705  0.52706  1.0000
  H   H2455     1.0  0.94444  0.72933  0.67297  1.0000
  C   C1431     1.0  0.79837  0.71178  0.69901  1.0000
  H   H2456     1.0  0.85284  0.71116  0.67917  1.0000
  N   N103      1.0  0.75902  0.72067  0.49815  1.0000
  C   C1432     1.0  0.76979  0.73556  0.51275  1.0000
  C   C1433     1.0  0.90346  0.71571  0.69073  1.0000
  H   H2457     1.0  0.60960  0.97512  0.65053  1.0000
  C   C1434     1.0  0.69730  0.80477  0.68974  1.0000
  C   C1435     1.0  0.68448  0.77802  0.70024  1.0000
  C   C1436     1.0  0.67164  0.77875  0.71529  1.0000
  C   C1437     1.0  0.67255  0.80651  0.72017  1.0000
  C   C1438     1.0  0.68597  0.83350  0.70979  1.0000
  C   C1439     1.0  0.69801  0.83252  0.69456  1.0000
  H   H2458     1.0  0.68452  0.75681  0.69675  1.0000
  H   H2459     1.0  0.66118  0.75781  0.72327  1.0000
  H   H2460     1.0  0.68678  0.85501  0.71344  1.0000
  H   H2461     1.0  0.70802  0.85338  0.68650  1.0000
  C   C1440     1.0  0.76482  0.77878  0.70314  1.0000
  H   H2462     1.0  0.89523  0.97593  0.53050  1.0000
  H   H2463     1.0  0.87649  0.70800  0.66310  1.0000
  H   H2464     1.0  0.95696  0.79275  0.50412  1.0000
  H   H2465     1.0  0.94399  0.75959  0.68370  1.0000
  S   S421      1.0  0.92770  0.88118  0.50516  1.0000
  H   H2466     1.0  0.71751  0.94768  0.71678  1.0000
  C   C1441     1.0  0.95413  0.86292  0.50462  1.0000
  C   C1442     1.0  0.94363  0.83088  0.50454  1.0000
  H   H2467     1.0  0.98483  0.97289  0.52480  1.0000
  C   C1443     1.0  0.77348  0.78064  0.55939  1.0000
  C   C1444     1.0  0.74603  0.76276  0.56953  1.0000
  C   C1445     1.0  0.74740  0.75778  0.58564  1.0000
  C   C1446     1.0  0.77638  0.77034  0.59173  1.0000
  C   C1447     1.0  0.80381  0.78815  0.58155  1.0000
  C   C1448     1.0  0.80241  0.79342  0.56548  1.0000
  H   H2468     1.0  0.72354  0.75272  0.56492  1.0000
  H   H2469     1.0  0.72615  0.74397  0.59332  1.0000
  H   H2470     1.0  0.82634  0.79789  0.58616  1.0000
  H   H2471     1.0  0.82374  0.80709  0.55783  1.0000
  H   H2472     1.0  0.91872  0.81640  0.50472  1.0000
  H   H2473     1.0  0.58661  0.73556  0.70995  1.0000
  H   H2474     1.0  0.87019  0.93596  0.53091  1.0000
  C   C1449     1.0  0.96516  0.79771  0.54716  1.0000
  H   H2475     1.0  0.77753  0.82895  0.69837  1.0000
  H   H2476     1.0  0.95092  0.99756  0.52216  1.0000
  H   H2477     1.0  0.94748  0.72428  0.72808  1.0000
  C   C1450     1.0  0.92870  0.73906  0.67817  1.0000
  C   C1451     1.0  0.82232  0.96629  0.50653  1.0000
  C   C1452     1.0  0.95742  0.99042  0.51102  1.0000
  H   H2478     1.0  0.59110  0.71013  0.65840  1.0000
  H   H2479     1.0  0.56086  0.71692  0.67967  1.0000
  H   H2480     1.0  0.57366  0.94223  0.65417  1.0000
  C   C1453     1.0  0.82465  0.72255  0.70745  1.0000
  N   N104      1.0  0.59405  0.69671  0.68248  1.0000
  C   C1454     1.0  0.89434  0.95387  0.52695  1.0000
  H   H2481     1.0  0.69468  0.96967  0.64372  1.0000
  C   C1455     1.0  0.78259  0.81053  0.69339  1.0000
  H   H2482     1.0  0.76348  0.73068  0.72197  1.0000
  C   C1456     1.0  0.80355  0.78940  0.72165  1.0000
  C   C1457     1.0  0.63248  0.74573  0.66459  1.0000
  C   C1458     1.0  0.69998  0.70825  0.50573  1.0000
  H   H2483     1.0  0.77219  0.76212  0.69763  1.0000
  N   N105      1.0  0.76870  0.86595  0.56630  1.0000
  C   C1459     1.0  0.76586  0.84696  0.58149  1.0000
  C   C1460     1.0  0.79967  0.87169  0.55730  1.0000
  C   C1461     1.0  0.74219  0.84661  0.55738  1.0000
  C   C1462     1.0  0.76631  0.89552  0.56982  1.0000
  C   C1463     1.0  0.73391  0.83484  0.59167  1.0000
  C   C1464     1.0  0.82894  0.88561  0.56617  1.0000
  C   C1465     1.0  0.74162  0.86026  0.54086  1.0000
  C   C1466     1.0  0.78321  0.92411  0.55765  1.0000
  H   H2484     1.0  0.77050  0.82649  0.57935  1.0000
  H   H2485     1.0  0.78392  0.86046  0.58900  1.0000
  H   H2486     1.0  0.80439  0.88722  0.54640  1.0000
  H   H2487     1.0  0.79891  0.84968  0.55340  1.0000
  H   H2488     1.0  0.74240  0.82357  0.55632  1.0000
  H   H2489     1.0  0.71887  0.84179  0.56367  1.0000
  H   H2490     1.0  0.74116  0.89160  0.57173  1.0000
  H   H2491     1.0  0.77605  0.90311  0.58094  1.0000
  H   H2492     1.0  0.71552  0.81531  0.58676  1.0000
  H   H2493     1.0  0.73642  0.82544  0.60333  1.0000
  H   H2494     1.0  0.72599  0.85336  0.59340  1.0000
  H   H2495     1.0  0.82890  0.90472  0.57272  1.0000
  H   H2496     1.0  0.83056  0.86747  0.57430  1.0000
  H   H2497     1.0  0.85056  0.89492  0.55775  1.0000
  H   H2498     1.0  0.72337  0.84213  0.53511  1.0000
  H   H2499     1.0  0.76405  0.86734  0.53332  1.0000
  H   H2500     1.0  0.73456  0.87965  0.54117  1.0000
  H   H2501     1.0  0.80921  0.93328  0.55718  1.0000
  H   H2502     1.0  0.77688  0.94300  0.56102  1.0000
  H   H2503     1.0  0.77651  0.91970  0.54580  1.0000
  N   N106      1.0  0.63843  0.96085  0.67516  1.0000
  C   C1467     1.0  0.63827  0.95009  0.69200  1.0000
  H   H2504     1.0  0.61512  0.75516  0.69323  1.0000
  C   C1468     1.0  0.66493  0.95736  0.66575  1.0000
  C   C1469     1.0  0.60692  0.94071  0.67008  1.0000
  C   C1470     1.0  0.63863  0.91806  0.69528  1.0000
  H   H2505     1.0  0.97316  0.81668  0.53749  1.0000
  H   H2506     1.0  0.91062  0.94739  0.53339  1.0000
  H   H2507     1.0  0.75080  0.72726  0.52254  1.0000
  H   H2508     1.0  0.63740  0.91273  0.70807  1.0000
  H   H2509     1.0  0.63499  0.68873  0.68697  1.0000
  C   C1471     1.0  0.59954  0.94992  0.65395  1.0000
  H   H2510     1.0  0.73869  0.97339  0.68984  1.0000
  C   C1472     1.0  0.77122  0.68585  0.70530  1.0000
  H   H2511     1.0  0.65808  0.93274  0.66371  1.0000
  H   H2512     1.0  0.60434  0.91654  0.66984  1.0000
  H   H2513     1.0  0.58712  0.93821  0.67878  1.0000
  H   H2514     1.0  0.61814  0.89923  0.69126  1.0000
  C   C1473     1.0  0.97004  0.96599  0.51507  1.0000
  H   H2515     1.0  0.70391  0.74237  0.72849  1.0000
  C   C1474     1.0  0.81372  0.98568  0.51544  1.0000
  H   H2516     1.0  0.87999  0.95386  0.50388  1.0000
  H   H2517     1.0  0.77610  0.68519  0.49752  1.0000
  H   H2518     1.0  0.73466  0.79745  0.72183  1.0000
  C   C1475     1.0  0.86166  0.69509  0.67408  1.0000
  H   H2519     1.0  0.61728  0.94906  0.69928  1.0000
  C   C1476     1.0  0.98674  0.88126  0.50440  1.0000
  H   H2520     1.0  0.96309  0.80695  0.55831  1.0000
  H   H2521     1.0  0.66089  0.91780  0.69019  1.0000
  H   H2522     1.0  0.89041  0.72785  0.69637  1.0000
  H   H2523     1.0  0.93373  0.67867  0.69274  1.0000
  H   H2524     1.0  0.82144  0.67803  0.66079  1.0000
  H   H2525     1.0  0.80167  0.74141  0.53045  1.0000
  S   S422      1.0  0.80109  0.73070  0.68041  1.0000
  C   C1477     1.0  0.67752  0.97682  0.64978  1.0000
  C   C1478     1.0  0.79811  0.73184  0.51904  1.0000
  C   C1479     1.0  0.73016  0.72496  0.49431  1.0000
  H   H2526     1.0  0.98526  0.96445  0.50504  1.0000
  H   H2527     1.0  0.84560  0.74283  0.70269  1.0000
  H   H2528     1.0  0.68156  0.71500  0.50170  1.0000
  H   H2529     1.0  0.94073  0.78121  0.54571  1.0000
  H   H2530     1.0  0.84449  0.71548  0.72833  1.0000
  H   H2531     1.0  0.62194  0.69846  0.66110  1.0000
  H   H2532     1.0  0.97903  0.76033  0.70487  1.0000
  N   N107      1.0  0.76874  0.77796  0.72030  1.0000
  C   C1480     1.0  0.75566  0.79873  0.72748  1.0000
  H   H2533     1.0  0.77304  0.82341  0.72517  1.0000
  C   C1481     1.0  0.75321  0.68708  0.49919  1.0000
  C   C1482     1.0  0.75200  0.74458  0.72717  1.0000
  C   C1483     1.0  0.82410  0.70713  0.72195  1.0000
  H   H2534     1.0  0.77609  0.76081  0.51083  1.0000
  H   H2535     1.0  0.82042  0.74517  0.51142  1.0000
  H   H2536     1.0  0.68593  0.96389  0.67233  1.0000
  C   C1484     1.0  0.61931  0.69820  0.69262  1.0000
  H   H2537     1.0  0.77464  0.80880  0.68159  1.0000
  H   H2538     1.0  0.80836  0.81736  0.69173  1.0000
  H   H2539     1.0  0.83860  0.67162  0.70154  1.0000
  C   C1485     1.0  0.71475  0.96828  0.71282  1.0000
  C   C1486     1.0  0.98656  0.78049  0.54676  1.0000
  C   C1487     1.0  0.72682  0.98294  0.69760  1.0000
  H   H2540     1.0  0.70302  0.71493  0.51770  1.0000
  H   H2541     1.0  0.91653  0.71122  0.69994  1.0000
  S   S423      1.0  0.81353  0.92800  0.51486  1.0000
  H   H2542     1.0  0.71300  0.72258  0.71308  1.0000
  H   H2543     1.0  0.65245  0.75012  0.67154  1.0000
  H   H2544     1.0  0.57797  0.75661  0.69491  1.0000
  C   C1488     1.0  0.79721  0.68074  0.72809  1.0000
  N   N108      1.0  0.88065  0.68618  0.68518  1.0000
  H   H2545     1.0  0.91833  0.74771  0.66895  1.0000
  H   H2546     1.0  0.97156  0.75553  0.55051  1.0000
  H   H2547     1.0  0.96130  0.75512  0.57688  1.0000
  H   H2548     1.0  0.63523  0.72219  0.69409  1.0000
  C   C1489     1.0  0.70000  0.98094  0.72300  1.0000
  H   H2549     1.0  0.73971  0.77130  0.70128  1.0000
  H   H2550     1.0  0.59557  0.98904  0.67996  1.0000
  H   H2551     1.0  0.65894  0.96685  0.69701  1.0000
  C   C1490     1.0  0.71663  0.72834  0.72518  1.0000
  C   C1491     1.0  0.96544  0.81753  0.50419  1.0000
  H   H2552     1.0  0.62749  0.68807  0.71632  1.0000
  H   H2553     1.0  0.80785  0.73921  0.48788  1.0000
  H   H2554     1.0  0.62055  0.76079  0.66729  1.0000
  C   C1492     1.0  0.57349  0.71144  0.68897  1.0000
  C   C1493     1.0  0.60918  0.71136  0.66626  1.0000
  H   H2555     1.0  0.60725  0.93858  0.64480  1.0000
  H   H2556     1.0  0.95088  0.94264  0.51867  1.0000
  C   C1494     1.0  0.77065  0.67046  0.71983  1.0000
  C   C1495     1.0  0.94120  0.96938  0.48666  1.0000
  H   H2557     1.0  0.73541  0.75004  0.49331  1.0000
  H   H2558     1.0  0.94360  0.94746  0.48967  1.0000
  H   H2559     1.0  0.65902  0.97390  0.64208  1.0000
  C   C1496     1.0  0.97948  0.73795  0.70688  1.0000
  C   C1497     1.0  0.98153  0.68071  0.71245  1.0000
  H   H2560     1.0  0.55473  0.69469  0.69787  1.0000
  H   H2561     1.0  0.79421  0.70735  0.52106  1.0000
  C   C1498     1.0  0.60746  0.68096  0.70913  1.0000
  H   H2562     1.0  0.75088  0.67738  0.69889  1.0000
  H   H2563     1.0  0.61883  0.99649  0.69640  1.0000
  H   H2564     1.0  0.70580  0.70604  0.73279  1.0000
  H   H2565     1.0  0.81358  0.77625  0.71461  1.0000
  H   H2566     1.0  0.87786  0.68481  0.71981  1.0000
  C   C1499     1.0  0.98407  0.76518  0.58187  1.0000
  S   S424      1.0  0.85580  0.88469  0.48673  1.0000
  H   H2567     1.0  0.90973  0.68333  0.66509  1.0000
  H   H2568     1.0  0.58890  0.68633  0.71504  1.0000
  C   C1500     1.0  0.64441  0.99451  0.67436  1.0000
  H   H2569     1.0  0.69038  0.68279  0.50574  1.0000
  H   H2570     1.0  0.97903  0.77040  0.59380  1.0000
  H   H2571     1.0  0.74012  0.67598  0.48941  1.0000
  H   H2572     1.0  0.72669  0.67791  0.52314  1.0000
  C   C1501     1.0  0.89723  0.66997  0.67645  1.0000
  H   H2573     1.0  0.53463  0.66880  0.67096  1.0000
  C   C1502     1.0  0.83268  0.66822  0.66913  1.0000
  Fe  Fe211     1.0  0.77067  0.89613  0.90287  1.0000
  S   S425      1.0  0.71982  0.88805  0.90287  1.0000
  S   S426      1.0  0.77858  0.85240  0.90271  1.0000
  Fe  Fe212     1.0  0.79341  0.96593  0.90203  1.0000
  S   S427      1.0  0.74458  0.96277  0.90181  1.0000
  C   C1503     1.0  0.74474  0.79198  0.74517  1.0000
  Fe  Fe213     1.0  0.73061  0.92277  0.92034  1.0000
  S   S428      1.0  0.69569  0.92033  0.94061  1.0000
  Fe  Fe214     1.0  0.73816  0.92842  0.88436  1.0000
  S   S429      1.0  0.71211  0.93202  0.86372  1.0000
  S   S430      1.0  0.78008  0.92794  0.92178  1.0000
  S   S431      1.0  0.78832  0.93444  0.88318  1.0000
  Fe  Fe215     1.0  0.89915  0.74568  0.92218  1.0000
  S   S432      1.0  0.93732  0.79388  0.92139  1.0000
  H   H2574     1.0  0.80800  0.80371  0.74532  1.0000
  Fe  Fe216     1.0  0.91106  0.74451  0.88659  1.0000
  S   S433      1.0  0.94993  0.79269  0.88335  1.0000
  S   S434      1.0  0.89781  0.71122  0.86793  1.0000
  Fe  Fe217     1.0  0.96606  0.77844  0.90509  1.0000
  Fe  Fe218     1.0  0.91764  0.80404  0.89980  1.0000
  S   S435      1.0  0.91266  0.84934  0.89654  1.0000
  S   S436      1.0  0.92911  0.72922  0.90743  1.0000
  S   S437      1.0  0.87753  0.75684  0.90153  1.0000
  C   C1504     1.0  0.71821  0.88674  0.98012  1.0000
  Fe  Fe219     1.0  0.68370  0.87821  0.78042  1.0000
  S   S438      1.0  0.64118  0.83555  0.77669  1.0000
  S   S439      1.0  0.71222  0.87374  0.79987  1.0000
  Fe  Fe220     1.0  0.67418  0.91600  0.75276  1.0000
  Fe  Fe221     1.0  0.61708  0.86673  0.77284  1.0000
  S   S440      1.0  0.56957  0.86144  0.78386  1.0000
  Fe  Fe222     1.0  0.65910  0.84789  0.75120  1.0000
  S   S441      1.0  0.65828  0.90858  0.77845  1.0000
  S   S442      1.0  0.70349  0.88887  0.75510  1.0000
  Fe  Fe223     1.0  0.88512  0.70120  0.78062  1.0000
  S   S443      1.0  0.89938  0.74178  0.79518  1.0000
  H   H2575     1.0  0.50093  0.89375  0.75485  1.0000
  S   S444      1.0  0.88682  0.70582  0.75433  1.0000
  H   H2576     1.0  0.64705  0.79795  0.98212  1.0000
  C   C1505     1.0  0.52210  0.77041  0.80008  1.0000
  C   C1506     1.0  0.54522  0.79840  0.79236  1.0000
  C   C1507     1.0  0.54220  0.82602  0.79379  1.0000
  C   C1508     1.0  0.51660  0.82568  0.80333  1.0000
  N   N109      1.0  0.58830  0.80660  0.98136  1.0000
  H   H2577     1.0  0.52417  0.74896  0.79876  1.0000
  H   H2578     1.0  0.56502  0.79850  0.78510  1.0000
  H   H2579     1.0  0.51461  0.84712  0.80477  1.0000
  H   H2580     1.0  0.87953  0.96856  0.84710  1.0000
  C   C1509     1.0  0.90254  0.72264  0.84766  1.0000
  C   C1510     1.0  0.90558  0.70251  0.83724  1.0000
  C   C1511     1.0  0.90526  0.70853  0.82116  1.0000
  C   C1512     1.0  0.90204  0.73487  0.81527  1.0000
  C   C1513     1.0  0.90041  0.75579  0.82558  1.0000
  C   C1514     1.0  0.90058  0.74968  0.84174  1.0000
  H   H2581     1.0  0.59426  0.86452  0.96769  1.0000
  H   H2582     1.0  0.63678  0.85749  0.95420  1.0000
  H   H2583     1.0  0.89821  0.77639  0.82111  1.0000
  H   H2584     1.0  0.89824  0.76539  0.84963  1.0000
  C   C1515     1.0  0.87685  0.71228  0.96231  1.0000
  C   C1516     1.0  0.90776  0.71679  0.96406  1.0000
  H   H2585     1.0  0.87483  0.80267  0.97466  1.0000
  H   H2586     1.0  0.92557  0.72579  0.95413  1.0000
  C   C1517     1.0  0.71479  0.91755  0.84568  1.0000
  C   C1518     1.0  0.72987  0.89809  0.84345  1.0000
  C   C1519     1.0  0.72933  0.88521  0.82925  1.0000
  C   C1520     1.0  0.71379  0.89172  0.81718  1.0000
  C   C1521     1.0  0.69915  0.91154  0.81934  1.0000
  C   C1522     1.0  0.69968  0.92438  0.83352  1.0000
  H   H2587     1.0  0.74127  0.89249  0.85279  1.0000
  H   H2588     1.0  0.74043  0.86967  0.82770  1.0000
  H   H2589     1.0  0.68728  0.91686  0.81013  1.0000
  H   H2590     1.0  0.68804  0.93948  0.83516  1.0000
  C   C1523     1.0  0.69753  0.90900  0.96021  1.0000
  C   C1524     1.0  0.67626  0.91116  0.97180  1.0000
  S   S445      1.0  0.65649  0.80596  0.73929  1.0000
  C   C1525     1.0  0.71879  0.89706  0.96443  1.0000
  H   H2591     1.0  0.65980  0.92046  0.96863  1.0000
  S   S446      1.0  0.86541  0.71989  0.94401  1.0000
  H   H2592     1.0  0.73523  0.89524  0.95559  1.0000
  C   C1526     1.0  0.85400  0.70054  0.97535  1.0000
  C   C1527     1.0  0.81623  0.85262  0.90029  1.0000
  C   C1528     1.0  0.84356  0.87912  0.90166  1.0000
  C   C1529     1.0  0.87307  0.87791  0.90027  1.0000
  C   C1530     1.0  0.87540  0.85024  0.89758  1.0000
  C   C1531     1.0  0.84812  0.82401  0.89578  1.0000
  C   C1532     1.0  0.81864  0.82517  0.89720  1.0000
  H   H2593     1.0  0.84193  0.90041  0.90399  1.0000
  H   H2594     1.0  0.89415  0.89839  0.90152  1.0000
  H   H2595     1.0  0.84972  0.80277  0.89338  1.0000
  H   H2596     1.0  0.79757  0.80464  0.89603  1.0000
  N   N110      1.0  0.83700  0.88731  0.84999  1.0000
  C   C1533     1.0  0.84657  0.86330  0.85721  1.0000
  C   C1534     1.0  0.80884  0.88569  0.86022  1.0000
  C   C1535     1.0  0.86439  0.91866  0.84983  1.0000
  C   C1536     1.0  0.82957  0.87993  0.83371  1.0000
  C   C1537     1.0  0.87752  0.86334  0.84982  1.0000
  C   C1538     1.0  0.81336  0.78782  0.73814  1.0000
  C   C1539     1.0  0.85702  0.94729  0.84909  1.0000
  Fe  Fe224     1.0  0.90456  0.66869  0.75546  1.0000
  H   H2597     1.0  0.84943  0.86625  0.86970  1.0000
  H   H2598     1.0  0.82805  0.83946  0.85693  1.0000
  H   H2599     1.0  0.78224  0.83551  0.86750  1.0000
  H   H2600     1.0  0.81509  0.89023  0.87225  1.0000
  H   H2601     1.0  0.87645  0.91973  0.86056  1.0000
  H   H2602     1.0  0.88259  0.92265  0.83991  1.0000
  H   H2603     1.0  0.85126  0.88305  0.82631  1.0000
  H   H2604     1.0  0.81378  0.85497  0.83347  1.0000
  H   H2605     1.0  0.56112  0.85305  0.98260  1.0000
  C   C1540     1.0  0.82325  0.67320  0.82717  1.0000
  H   H2606     1.0  0.93956  0.71261  0.97988  1.0000
  H   H2607     1.0  0.75595  0.77991  0.75205  1.0000
  H   H2608     1.0  0.75973  0.85740  0.86868  1.0000
  H   H2609     1.0  0.75114  0.97639  0.94188  1.0000
  H   H2610     1.0  0.86743  0.85290  0.93336  1.0000
  H   H2611     1.0  0.49707  0.84050  0.77548  1.0000
  H   H2612     1.0  0.83456  0.92040  0.81814  1.0000
  H   H2613     1.0  0.79951  0.90577  0.83190  1.0000
  H   H2614     1.0  0.84290  0.94829  0.83961  1.0000
  H   H2615     1.0  0.58797  0.81786  0.95682  1.0000
  H   H2616     1.0  0.80071  0.88510  0.81613  1.0000
  H   H2617     1.0  0.81787  0.99250  0.93523  1.0000
  H   H2618     1.0  0.75388  0.74162  0.73977  1.0000
  H   H2619     1.0  0.53979  0.74100  0.98442  1.0000
  H   H2620     1.0  0.78481  0.84054  0.94517  1.0000
  C   C1541     1.0  0.53827  0.75889  0.97611  1.0000
  H   H2621     1.0  0.71745  0.99115  0.98001  1.0000
  S   S447      1.0  0.63112  0.87576  0.74701  1.0000
  H   H2622     1.0  0.71350  0.97928  0.96093  1.0000
  H   H2623     1.0  0.86699  0.77323  0.96150  1.0000
  C   C1542     1.0  0.81560  0.89923  0.82464  1.0000
  H   H2624     1.0  0.83002  0.69701  0.97410  1.0000
  H   H2625     1.0  0.90716  0.69256  0.81332  1.0000
  H   H2626     1.0  0.90458  0.83097  0.93002  1.0000
  C   C1543     1.0  0.91561  0.70925  0.97867  1.0000
  H   H2627     1.0  0.60197  0.78921  0.96101  1.0000
  C   C1544     1.0  0.63668  0.83645  0.96054  1.0000
  C   C1545     1.0  0.85606  0.78343  0.96978  1.0000
  H   H2628     1.0  0.51716  0.89246  0.77257  1.0000
  H   H2629     1.0  0.65076  0.84319  0.97041  1.0000
  H   H2630     1.0  0.54877  0.75847  0.96431  1.0000
  H   H2631     1.0  0.90447  0.82295  0.95069  1.0000
  C   C1546     1.0  0.49478  0.88300  0.76710  1.0000
  H   H2632     1.0  0.88189  0.84503  0.85645  1.0000
  C   C1547     1.0  0.90074  0.83802  0.94162  1.0000
  H   H2633     1.0  0.73436  0.87706  0.98330  1.0000
  H   H2634     1.0  0.84495  0.94852  0.86035  1.0000
  C   C1548     1.0  0.49361  0.79776  0.81107  1.0000
  H   H2635     1.0  0.51268  0.75205  0.97548  1.0000
  N   N111      1.0  0.83956  0.80783  0.94617  1.0000
  C   C1549     1.0  0.81167  0.81341  0.94170  1.0000
  C   C1550     1.0  0.84393  0.78611  0.93537  1.0000
  C   C1551     1.0  0.86817  0.83862  0.94393  1.0000
  C   C1552     1.0  0.83236  0.79417  0.96296  1.0000
  C   C1553     1.0  0.80638  0.83955  0.94918  1.0000
  C   C1554     1.0  0.81565  0.75433  0.93573  1.0000
  H   H2636     1.0  0.71681  0.98835  0.92803  1.0000
  H   H2637     1.0  0.90782  0.68190  0.84165  1.0000
  H   H2638     1.0  0.81374  0.81907  0.92890  1.0000
  H   H2639     1.0  0.78925  0.79220  0.94467  1.0000
  H   H2640     1.0  0.86462  0.78146  0.93745  1.0000
  H   H2641     1.0  0.84950  0.79709  0.92318  1.0000
  H   H2642     1.0  0.71867  0.77911  0.74730  1.0000
  H   H2643     1.0  0.86839  0.85227  0.95388  1.0000
  H   H2644     1.0  0.83063  0.81126  0.97063  1.0000
  H   H2645     1.0  0.80855  0.77450  0.96521  1.0000
  H   H2646     1.0  0.82592  0.86265  0.94543  1.0000
  H   H2647     1.0  0.78783  0.98399  0.96074  1.0000
  H   H2648     1.0  0.80251  0.83543  0.96205  1.0000
  H   H2649     1.0  0.79488  0.75629  0.93138  1.0000
  H   H2650     1.0  0.82228  0.74017  0.92780  1.0000
  H   H2651     1.0  0.80933  0.74132  0.94748  1.0000
  H   H2652     1.0  0.87614  0.85777  0.83761  1.0000
  H   H2653     1.0  0.64975  0.82801  0.95226  1.0000
  C   C1555     1.0  0.60253  0.81131  0.96466  1.0000
  C   C1556     1.0  0.58688  0.86020  0.98037  1.0000
  C   C1557     1.0  0.73077  0.98886  0.96942  1.0000
  H   H2654     1.0  0.80148  0.90401  0.85641  1.0000
  N   N112      1.0  0.60289  0.83544  0.83403  1.0000
  C   C1558     1.0  0.60937  0.86889  0.83530  1.0000
  C   C1559     1.0  0.61406  0.82445  0.84811  1.0000
  C   C1560     1.0  0.56769  0.81734  0.83426  1.0000
  C   C1561     1.0  0.62001  0.83404  0.81888  1.0000
  C   C1562     1.0  0.59729  0.88431  0.82269  1.0000
  C   C1563     1.0  0.64968  0.84097  0.84945  1.0000
  C   C1564     1.0  0.55394  0.78192  0.83821  1.0000
  C   C1565     1.0  0.62187  0.80324  0.81614  1.0000
  H   H2655     1.0  0.59910  0.87153  0.84682  1.0000
  H   H2656     1.0  0.63508  0.88363  0.83466  1.0000
  H   H2657     1.0  0.60825  0.79944  0.84878  1.0000
  H   H2658     1.0  0.60148  0.82700  0.85896  1.0000
  H   H2659     1.0  0.55484  0.82552  0.84287  1.0000
  H   H2660     1.0  0.56008  0.82136  0.82284  1.0000
  H   H2661     1.0  0.60889  0.83940  0.80886  1.0000
  H   H2662     1.0  0.64447  0.85270  0.81702  1.0000
  H   H2663     1.0  0.60910  0.88576  0.81092  1.0000
  H   H2664     1.0  0.57136  0.87258  0.82265  1.0000
  H   H2665     1.0  0.60309  0.90850  0.82511  1.0000
  H   H2666     1.0  0.65662  0.86507  0.85225  1.0000
  H   H2667     1.0  0.65562  0.82888  0.85923  1.0000
  H   H2668     1.0  0.66408  0.84064  0.83882  1.0000
  H   H2669     1.0  0.52837  0.77187  0.83679  1.0000
  H   H2670     1.0  0.55559  0.77540  0.85053  1.0000
  H   H2671     1.0  0.56460  0.77079  0.83036  1.0000
  H   H2672     1.0  0.60305  0.78945  0.80910  1.0000
  H   H2673     1.0  0.62085  0.78872  0.82678  1.0000
  H   H2674     1.0  0.64502  0.80839  0.80955  1.0000
  C   C1566     1.0  0.77895  0.85496  0.86145  1.0000
  H   H2675     1.0  0.91936  0.86183  0.94178  1.0000
  H   H2676     1.0  0.59835  0.88262  0.98532  1.0000
  H   H2677     1.0  0.89827  0.88544  0.85054  1.0000
  H   H2678     1.0  0.77057  0.84915  0.84995  1.0000
  H   H2679     1.0  0.98559  0.71886  0.77243  1.0000
  H   H2680     1.0  0.59110  0.76281  0.98650  1.0000
  C   C1567     1.0  0.49590  0.76998  0.80918  1.0000
  H   H2681     1.0  0.83417  0.68570  0.81549  1.0000
  H   H2682     1.0  0.80318  0.76395  0.74411  1.0000
  S   S448      1.0  0.68639  0.96522  0.74250  1.0000
  H   H2683     1.0  0.75012  0.81430  0.75008  1.0000
  H   H2684     1.0  0.83463  0.68972  0.83562  1.0000
  H   H2685     1.0  0.83936  0.79584  0.73720  1.0000
  H   H2686     1.0  0.54419  0.80576  0.97471  1.0000
  H   H2687     1.0  0.74028  0.97193  0.97279  1.0000
  C   C1568     1.0  0.55282  0.79129  0.98185  1.0000
  H   H2688     1.0  0.84343  0.76439  0.97926  1.0000
