data_image0
_chemical_formula_structural       CH2FeS2FeS2FeSFeS3FeS2FeS2FeSFeS3H2SH4FeS2FeS2FeSHFeSFeS3FeS2FeS2FeSFeS3HC2H2CH2C4SH3CH4CHC6H4C3H2CH2C7H4C6H4C6H8CH2C3H2C5H3NH5CHCH4CNC8H11C2H3CH3NH2C2HC2H3CHCHC2H7CHCH2CH5CH4C2H2CH2CH2NHNH2CH2C2H2CSH4CH6NC9H9FeH9NC8H12C2H3C2H2FeHC2HCNCHCHCH4CHSHC3H2C3HSCH4C3H2NH4CH3C2HCHC3H2SH2NHSH2CSH3SCHFeH4SCH6CHCH2CHCHCHCHC2H3C3HCH2CH2CH3CHCH3C3H2FeSHFeSFeSH2SFeSFeSH2CHFeS2FeS2Fe2S3FeS2FeS2FeCFeS3CH2C7H4C6H5C4H4C6H5CHCH2C3H6CNH4C6H5SNCHC4H7CH9CH9NC8H24CHCH2C2HCH3C2H4SHSC2H2NC2SHCHCHNHCHC2H3C2H3CH2CH5SH4CHNC4H2CHCH4CSHNHCHFeHC2H2CH2CHSCH3CHC2H3C2H3C2HC2H4CH4CH2C2HCSCH2NCHCH2CHC3H4C3H2FeSCH5C2HSC2H5CHCH4CH3CHSHFeSFeSHFeSFeCSFeS2FeS2FeSFeS3FeS2FeS2FeSFeS3FeSHFeS2FeSFeS3C7HCH5C4HNH2C6H4C6H7C2H7C2NH2CHC6H6CH4CHCH4CH3NH2CHCHCH9CH3C2H4CH2CH2C2H2NC8H13CH6NHC2H2CH8CHCHCH3SC2SHCNC8H20CHCH4CH2CHNH4CHC4H8C4HCH2CH2CNCH2SH2C6HCSHCH3CH2CHSH5CH2CH3SFeSCH3SH2SH2FeH3CHCHCH2NHCH5CSHCH5CNHC2H4CHCH3C3H7C2H4C5HC2H4C2H3CH2FeSH4NH2CFeCHCHNH5C3HCH4NSHC2H5CH2CHC2H2CHC2H5CSH3C2HSC3FeS2H2Fe2CHSHSCH3S2H5CH2C2H2NH3CH3C2H3CFeCH3C2SCH2CHCH2CH3CHNHC2HC2HCHC2H2CH5CHC2H6C3SCHSCNH2CHSH14CH3CH2C2FeCHSCS2FeCFeSNSFeS2FeS2FeCFeHS2FeS2FeSHFeSFeS3FeS2FeSCFeSFeS3H2SH3CHCH6CH2C4H2C3H2C6H2CHC6H5CNC2HCH3NHCHCHC6H4C6H7CHCSH9FeCH10SH2CHNH2FeH2C5H3FeC3H3SC2H3CH4CH3CHCH4CHNC8H8CH3CH4CH2NC8H20CH2CHCSCH4CHCH2CH3C2H2C3H12CH2CHCHCHFeS2CFeHSCFeS2FeS2FeSFeS3FeS2FeS2FeSFeS3FeS2FeS2FeHFeS3C2H10C7HCHC8H4CH4CHC2H3CH5CHC7H5C6H6C2H2CHCNHC3H5CH2CH4C5H4C3H3NHCH8C2HCH2C2H7SC2H3CH2SHC3H4NCHSNCHCH2NHCHC2HCHCNH10CFeHC2H8NCH2C2SHCH3C2H4CH5CH4CH4CH2CNC5H4CH4CH2NC8H13C3H4C2H6C2HCHCHC2H6CH7C4H3CH9CSNCH2CH3CH3CH4CH2CHCH3CNHNCNHC2S2HFeSCSFeS2FeS2FeSFeS3FeS2FeS2FeSFeS3HSCFeSCFeSFeSHSFeS2FeS2FeSFeS3C2SC6H3NC6H5C5H2C6H5C3H3C6HCH2C3H2C6H4C6H4C3HCHC4H4CHNC8H29C3H3C2HC2H2CH2CHCHNSC2NHCSHCH6CH2CH2C2SCH5CH4CHFeH7C2HCNC8H22C3H2CH7CH6CH7C2H3CH6CHC3HC2FeNH7CH4CH12SCH3CH6CH3CH4CNH2C2H4CHCHC2H5C2SH3CHCHCFeH2CHSHCH3C2H3CH2FeHC2FeS2FeS2FeSFeHS2FeC2FeS2FeHFeCS2CHCHNH7C3H2CHCH4SH2CHCHSC6H4CH2CSHCH2C4H4CH6CH5CH3CH2CH4C2HCH4SH7CHC2H3CNC8H10NC2H2CH12C3H5SHCH3CHNHFeSCFeS2FeHFeSHSFeS2FeS2Fe2S3FeS2FeS2FeSFeS2HFeS2FeS2FeSFeS3C6H3C7H4C6NCH2C6H5C3H2CH2CH3CNC2H7CHC2H3CHSH2CH3CH6C4HNC8H21CH3CH10C2H3SH4CHCH2CH2SHNHC2H2CH4CH3NH4CHC2H2NC8H10CH9C2H2CHCHCSHC2H2CH2C5HCH2CH3SH4SC2H6CH2NH5CH4C3H10C3HCH3NH3CHCH5CHFeHSH2S2Fe2HFeS2FeHFeSFeSC2HSHSFeSFeS2FeS2FeSFeSHFeSFeS3FeSNFeS2FeHFeS3FeS2FeS2FeHFeS3HC6H4CHC3SH4FeHC3H2C6HCHNC6H4C6H3C2H3C6H4C6H2CH2CHCH4CHCHSH2CH4CHNC8H27NCNHCH4CSC2H4NHSH4CSHSC3HCH3C2H4CHSH2CH3CNC2FeHCHSCHC2HCH5C3HSH2CHNC8H17CNC5HC2H3SH7CH2SH4CNC7H17SCHSH2SH2CHCSH2CSHCH5CHCH2CHCH2CHCH3CH3C2HC2H4CHC2H2C3HCHCH2CH2Fe2S2FeS2FeHFeS3FeSHFeSH2FeS2FeS2FeS2FeSFeS3FeSHFeS2FeSFeSFeS2FeS2FeSFeS3FeS2FeSHFeSFeSNHC6H7C6H5C6H4C6H3CH2C4H4C6H4C6H4NC2H4CH3C5H3C2HCH2C2H2CH5CSCH4SHNHC2H3C2H7CH7CHNH13SC2HCHC2H2C2H2C2H13C2H3CHCH9C3HCH6C2HNC5H12NH2SCH7CH3CH2CHC2HC2FeCHCH6C3HS2H4C2H3C3H3CHNCHCH6C2H2SC3HCH4C3HNH2C2HSH3CHCH3C2H2SCNSHCHNCHC3HCH2CNH2CHCH3C3HCHCHCHCH4CHC2H2CH2CH2CNH8C2H5CHCHCH2CHCH3CH2FeSHFeSHFeSFeS3FeCHFeS2FeHFeHS2FeSCFeS2FeCFeS3FeCHFeHSFeCH2S2H4C8H3C6H6C2HSC2H4C6H5CH2CH3C2H3CH2CHCH2CSH4CHC3H3C3H2C2HCNHCH2CH8CSCH3SNC2HCSH2C2H3C3H7C2SHCSC2SHCH2CHNH2CH3FeCH3CSH2SH3SCH2C2H2C2HCHCH7SH8NH2CH3CHCH2NHC2HFeSFeS2FeCFeS2FeHCS2H3FeH6CHS2H2CHCHC5H2CH2CHCH5SH2CH3NH6C2HC3H3C2HC2H6SH3C4HCNHC2HCH5FeCH2SH6CHC2H3CH3CH5CHCSCH8CH4NH2CHFeS2HSCSFeS2FeS2Fe2S3FeS2FeS2FeSFeS3FeSHFeSCFeSFeS3FeSHFeS2FeSFeS3C3H2C6H3C2HC6H4C6H4C6SH4C4H3C6H4CH3CH2CH2C3HNC2HCH3CHCH2CH3CH2C4HNH4CH4SCH6CNC8H17CH5C2HCHCNCH11C2NH3CH3C3NC8H20NC8H19NH5CHSCH3C3H3CH4CH3C3H2NHCHCHC2FeH4CH4FeH3CH5C2H3C3HSH3C3H3CH6C2HC2H2CH4C2H6CHCH2SH3CHCHS2HC3FeSCHFeSCSNFeS2FeSHCHCHSFeS2FeS2FeCFeS3FeS2FeS2FeSFeS3HCH4CH3C6H5CHC2H2SHC6H4C6H3C7H4C3HFeH2CHCH2C9H4C2HCHNH4NH3CH4CH14C2SCH4FeHCHCH2CSH3CH2CH2SH2FeH3FeH4NC8H22CSH3CH2CHC2HCHCH2CHC2H2C2H5C2HCHC2HSH8NH2SHC4H2C2H2CH2CHCHNC8H12CFeH8CHNSH4CH2CSC2HFeH4C2HC2H2FeSHFeSFe2S3HC2HFeS2FeS2FeSFeS3FeS2FeS2FeSFeS3HFeS2FeSHFeSFeS3CNHC2H2C7H3CHC6H4C6H4CH3CH3CHC2HCH2C4HCHCH2NHC2H2CHCHC6H5CH6CSH2C2NC3HC4H7CH10CSNCHCH2SH2C2H6NH4C3H3CH4C2H5CH5CH2C2H2CHC2H2CHSH5C2SH2NC8H20CH4C3HC3H2CNC2H4CH2CH12CHSH2CH2C4HCH2NH3CH2C3H6CH3C3H3CH6CH5CH8CHSCFeSCFeHFeSCS2CH5CH5CHCH3CH8NH2NH2CHC3H4CH4CSHCHCFeCHCHC2HSH6CHCHC2H9CH3CHC2H2SC2SC2H4NHFeC2FeSCFeSHS2HSH2CH2NH3C2H2C3H5C3HCHSH2CH6C2HC3HCNH2C2H6SHCH2CH3CH2CHC2SH8CNFeHCHCH2CH13C5HSC2H3CH4CH2CHCH2CSH5C2HCNC2HCH2CHCH4CH3CFeS3H2FeHSH2CSFeS2FeS2FeSFeCS2FeS2FeCSFeCFeS3H3C4HSH2CSH2C2H2SHC6H4C6H4C6H6CH5NC2H3CHSH3CH4CH7CSC2NCHCHCH3C2H4C2HSCSHCHCH2FeC3NH2CHC2H4CNCHC2H5C2HCH5C2HCHFeHC3HC2H2C2HNH3CH2C3H3CH5C2NH3CH3CHSHSC2SH3CFeCH4CFeH2CH3CH2CH12CHNHCH4SH6CH4CH3NCH3CH3CH4FeH8CHCH2SH2CH5C5FeS2FeSFeSFeS3FeS2FeSCFeSFeS3HFeS2FeH2S2C2FeS2FeSFeSFeS3HC2HCHC3H3CHCHCH2CH5C2H3C7H5SCH2C6H6CSC6H5CHCHC2HCH2NCH2CH2SCH2CH2C5H5CH5CHC2H3CHCH2CHCNCH6C2HNC8H20CH4C3SCHCHCHSCH2NH4C2H4CH3CH6C2H2C3H2CSH2CHCH5CHFeH10CH2NH6C4NCH12CH3C2H2CHCHC4H2CH4NHCNH6C3HCHCH2CHCH2FeSHFeS2FeSFeS2FeS2FeS2FeSFeS3FeS2FeS2FeSFeS3HC2HFeS2FeS2FeSFeS3FeS2FeS2FeSFeS3C6H4C6H3C7H3C6H5CHC6H4C6H5CNH4CH3C6H5C5H5CH5C3H3C2NC8H22C3H4FeCH2NC8H23NCH2C3HCH5CH6C2H2C3HNH4CH5CHC4H7C2HCHC2H2C2H2C2H3CH3CNH3CH2SHSNH2CH2C2HCH2CHCH6CNCH3CH4CNH3CH3CHC2H2CHCH4CH5CHCH3CSC2H2CHC2NH3C2HCH2CH2CH4CH7CH3C2H2CH4CH2C4H4CNCHCH7CHC2H3CH2C
_chemical_formula_sum              "C2240 H3840 Fe320 S640 N160"
_cell_length_a       57.9669
_cell_length_b       58.1248
_cell_length_c       103.927
_cell_angle_alpha    78.3957
_cell_angle_beta     78.4166
_cell_angle_gamma    78.594

_space_group_name_H-M_alt    "P 1"
_space_group_IT_number       1

loop_
  _space_group_symop_operation_xyz
  'x, y, z'

loop_
  _atom_site_type_symbol
  _atom_site_label
  _atom_site_symmetry_multiplicity
  _atom_site_fract_x
  _atom_site_fract_y
  _atom_site_fract_z
  _atom_site_occupancy
  C   C1        1.0  0.27644  0.45721  0.07430  1.0000
  H   H1        1.0  0.19695  0.30977  0.05252  1.0000
  H   H2        1.0  0.14229  0.06357  0.14858  1.0000
  Fe  Fe1       1.0  0.19654  0.16482  0.09441  1.0000
  S   S1        1.0  0.21235  0.19483  0.08078  1.0000
  S   S2        1.0  0.17484  0.14300  0.08751  1.0000
  Fe  Fe2       1.0  0.22196  0.16711  0.11703  1.0000
  S   S3        1.0  0.24086  0.19674  0.10493  1.0000
  S   S4        1.0  0.22396  0.15655  0.13902  1.0000
  Fe  Fe3       1.0  0.20547  0.21259  0.09877  1.0000
  S   S5        1.0  0.18751  0.25047  0.09984  1.0000
  Fe  Fe4       1.0  0.24627  0.17633  0.08809  1.0000
  S   S6        1.0  0.27869  0.17226  0.07220  1.0000
  S   S7        1.0  0.18607  0.18425  0.11177  1.0000
  S   S8        1.0  0.23087  0.14508  0.10075  1.0000
  Fe  Fe5       1.0  0.23465  0.42095  0.08781  1.0000
  S   S9        1.0  0.20325  0.43139  0.10323  1.0000
  S   S10       1.0  0.24842  0.45130  0.07317  1.0000
  Fe  Fe6       1.0  0.23324  0.36789  0.09680  1.0000
  S   S11       1.0  0.20200  0.37422  0.11305  1.0000
  S   S12       1.0  0.25082  0.33105  0.09279  1.0000
  Fe  Fe7       1.0  0.18747  0.40327  0.09753  1.0000
  S   S13       1.0  0.14975  0.41041  0.09335  1.0000
  Fe  Fe8       1.0  0.22102  0.40168  0.11716  1.0000
  S   S14       1.0  0.22589  0.40310  0.13815  1.0000
  S   S15       1.0  0.21749  0.39525  0.08099  1.0000
  S   S16       1.0  0.25367  0.39299  0.10204  1.0000
  H   H3        1.0  0.17090  0.40630  0.05372  1.0000
  H   H4        1.0  0.27096  0.44145  0.12642  1.0000
  S   S17       1.0  0.24331  0.99789  0.19697  1.0000
  H   H5        1.0  0.16728  0.05521  0.15709  1.0000
  H   H6        1.0  0.20562  0.10283  0.11538  1.0000
  H   H7        1.0  0.17016  0.45027  0.01558  1.0000
  H   H8        1.0  0.14623  0.40192  0.03952  1.0000
  Fe  Fe9       1.0  0.23539  0.03734  0.18907  1.0000
  S   S18       1.0  0.22729  0.04898  0.16800  1.0000
  S   S19       1.0  0.26884  0.04553  0.19353  1.0000
  Fe  Fe10      1.0  0.08318  0.18917  0.04001  1.0000
  S   S20       1.0  0.11007  0.18245  0.02189  1.0000
  S   S21       1.0  0.09342  0.20391  0.05624  1.0000
  Fe  Fe11      1.0  0.04165  0.17999  0.02812  1.0000
  S   S22       1.0  0.06584  0.17225  0.00908  1.0000
  H   H9        1.0  0.09893  0.44804  0.12740  1.0000
  Fe  Fe12      1.0  0.09194  0.15140  0.02233  1.0000
  S   S23       1.0  0.11615  0.11567  0.02110  1.0000
  Fe  Fe13      1.0  0.08193  0.20376  0.01043  1.0000
  S   S24       1.0  0.08917  0.23159  0.99235  1.0000
  S   S25       1.0  0.06650  0.15676  0.04149  1.0000
  S   S26       1.0  0.05631  0.21292  0.02838  1.0000
  Fe  Fe14      1.0  0.10456  0.40372  0.01316  1.0000
  S   S27       1.0  0.08640  0.39577  0.03448  1.0000
  S   S28       1.0  0.11053  0.44196  0.00523  1.0000
  Fe  Fe15      1.0  0.10865  0.35216  0.00940  1.0000
  S   S29       1.0  0.09167  0.34015  0.03036  1.0000
  S   S30       1.0  0.12232  0.32850  0.99389  1.0000
  Fe  Fe16      1.0  0.06534  0.37395  0.02699  1.0000
  S   S31       1.0  0.02596  0.37414  0.03539  1.0000
  Fe  Fe17      1.0  0.11413  0.36297  0.03590  1.0000
  S   S32       1.0  0.13755  0.34918  0.05169  1.0000
  S   S33       1.0  0.08097  0.38474  0.00555  1.0000
  S   S34       1.0  0.13354  0.37212  0.01507  1.0000
  H   H10       1.0  0.12821  0.26513  0.08541  1.0000
  C   C2        1.0  0.00357  0.37408  0.02604  1.0000
  C   C3        1.0  0.00870  0.37426  0.01228  1.0000
  H   H11       1.0  0.17044  0.23765  0.04581  1.0000
  H   H12       1.0  0.02678  0.37453  0.00703  1.0000
  C   C4        1.0  0.09796  0.25825  0.99370  1.0000
  H   H13       1.0  0.30302  0.46204  0.11135  1.0000
  H   H14       1.0  0.16680  0.45022  0.15493  1.0000
  C   C5        1.0  0.11207  0.30166  0.99442  1.0000
  C   C6        1.0  0.10712  0.28560  0.00627  1.0000
  C   C7        1.0  0.10028  0.26372  0.00590  1.0000
  C   C8        1.0  0.21034  0.47230  0.14372  1.0000
  S   S35       1.0  0.20754  0.01522  0.97792  1.0000
  H   H15       1.0  0.10909  0.28980  0.01563  1.0000
  H   H16       1.0  0.09683  0.25115  0.01499  1.0000
  H   H17       1.0  0.02477  0.45492  0.99070  1.0000
  C   C9        1.0  0.15174  0.46236  0.15085  1.0000
  H   H18       1.0  0.29899  0.07281  0.04328  1.0000
  H   H19       1.0  0.18831  0.12511  0.13156  1.0000
  H   H20       1.0  0.12428  0.30130  0.04926  1.0000
  H   H21       1.0  0.00811  0.14804  0.01668  1.0000
  C   C10       1.0  0.22754  0.14485  0.05919  1.0000
  H   H22       1.0  0.13713  0.28650  0.03521  1.0000
  C   C11       1.0  0.14593  0.39332  0.08191  1.0000
  C   C12       1.0  0.12617  0.39993  0.07527  1.0000
  C   C13       1.0  0.12334  0.38664  0.06591  1.0000
  C   C14       1.0  0.14014  0.36653  0.06329  1.0000
  C   C15       1.0  0.15969  0.35986  0.07005  1.0000
  C   C16       1.0  0.16265  0.37323  0.07926  1.0000
  H   H23       1.0  0.11311  0.41539  0.07732  1.0000
  H   H24       1.0  0.10807  0.39179  0.06084  1.0000
  H   H25       1.0  0.17276  0.34438  0.06810  1.0000
  H   H26       1.0  0.17777  0.36777  0.08444  1.0000
  C   C17       1.0  0.22353  0.42974  0.14447  1.0000
  C   C18       1.0  0.23140  0.42871  0.15655  1.0000
  C   C19       1.0  0.12362  0.41992  0.16392  1.0000
  H   H27       1.0  0.11667  0.28423  0.07128  1.0000
  H   H28       1.0  0.12891  0.26917  0.05076  1.0000
  C   C20       1.0  0.31229  0.04139  0.01148  1.0000
  H   H29       1.0  0.23937  0.41178  0.16164  1.0000
  H   H30       1.0  0.29762  0.99241  0.13786  1.0000
  C   C21       1.0  0.31650  0.44477  0.07958  1.0000
  C   C22       1.0  0.15259  0.16009  0.07860  1.0000
  C   C23       1.0  0.14341  0.14984  0.06999  1.0000
  C   C24       1.0  0.12551  0.16323  0.06290  1.0000
  C   C25       1.0  0.11635  0.18676  0.06463  1.0000
  C   C26       1.0  0.12542  0.19690  0.07334  1.0000
  C   C27       1.0  0.14368  0.18372  0.08018  1.0000
  H   H31       1.0  0.15016  0.13155  0.06876  1.0000
  H   H32       1.0  0.11852  0.15524  0.05626  1.0000
  H   H33       1.0  0.11817  0.21498  0.07482  1.0000
  H   H34       1.0  0.15053  0.19171  0.08687  1.0000
  C   C28       1.0  0.22688  0.12637  0.14685  1.0000
  C   C29       1.0  0.22375  0.12094  0.16082  1.0000
  C   C30       1.0  0.22475  0.09719  0.16741  1.0000
  C   C31       1.0  0.22873  0.07868  0.16006  1.0000
  C   C32       1.0  0.23253  0.08405  0.14607  1.0000
  C   C33       1.0  0.23172  0.10779  0.13948  1.0000
  H   H35       1.0  0.22019  0.13517  0.16660  1.0000
  H   H36       1.0  0.22182  0.09325  0.17818  1.0000
  H   H37       1.0  0.23595  0.06976  0.14035  1.0000
  H   H38       1.0  0.23471  0.11172  0.12872  1.0000
  C   C34       1.0  0.20523  0.27292  0.09734  1.0000
  C   C35       1.0  0.22996  0.26819  0.09333  1.0000
  C   C36       1.0  0.24370  0.28628  0.09177  1.0000
  C   C37       1.0  0.23282  0.30921  0.09413  1.0000
  C   C38       1.0  0.20802  0.31404  0.09789  1.0000
  C   C39       1.0  0.19428  0.29592  0.09950  1.0000
  H   H39       1.0  0.23855  0.25059  0.09149  1.0000
  H   H40       1.0  0.26287  0.28247  0.08881  1.0000
  H   H41       1.0  0.19946  0.33167  0.09967  1.0000
  H   H42       1.0  0.17513  0.29976  0.10250  1.0000
  H   H43       1.0  0.05813  0.30865  0.99624  1.0000
  H   H44       1.0  0.18962  0.37447  0.04243  1.0000
  H   H45       1.0  0.17088  0.21329  0.05930  1.0000
  H   H46       1.0  0.11934  0.29635  0.08524  1.0000
  C   C40       1.0  0.17575  0.44205  0.05365  1.0000
  H   H47       1.0  0.28078  0.45308  0.04790  1.0000
  H   H48       1.0  0.26580  0.41799  0.04491  1.0000
  C   C41       1.0  0.15850  0.43159  0.99446  1.0000
  C   C42       1.0  0.13895  0.44923  0.99738  1.0000
  C   C43       1.0  0.15296  0.19741  0.98782  1.0000
  H   H49       1.0  0.15629  0.41309  0.99660  1.0000
  H   H50       1.0  0.31210  0.03186  0.20934  1.0000
  C   C44       1.0  0.11575  0.44773  0.12012  1.0000
  C   C45       1.0  0.31157  0.13550  0.06370  1.0000
  C   C46       1.0  0.29660  0.14424  0.07463  1.0000
  C   C47       1.0  0.29534  0.13014  0.08726  1.0000
  C   C48       1.0  0.99035  0.37385  0.00528  1.0000
  H   H51       1.0  0.16081  0.07851  0.12098  1.0000
  H   H52       1.0  0.30733  0.09612  0.09867  1.0000
  H   H53       1.0  0.28416  0.13696  0.09577  1.0000
  N   N1        1.0  0.02617  0.29712  0.02212  1.0000
  H   H54       1.0  0.22150  0.29379  0.06039  1.0000
  H   H55       1.0  0.30695  0.09777  0.19067  1.0000
  H   H56       1.0  0.18852  0.45444  0.04895  1.0000
  H   H57       1.0  0.15334  0.01390  0.99944  1.0000
  H   H58       1.0  0.20996  0.40617  0.02507  1.0000
  C   C49       1.0  0.16148  0.06456  0.14754  1.0000
  H   H59       1.0  0.19985  0.41249  0.04690  1.0000
  C   C50       1.0  0.28596  0.01890  0.99875  1.0000
  H   H60       1.0  0.20385  0.36673  0.02658  1.0000
  H   H61       1.0  0.16782  0.13838  0.01495  1.0000
  H   H62       1.0  0.29008  0.42161  0.08322  1.0000
  H   H63       1.0  0.19558  0.22884  0.05477  1.0000
  C   C51       1.0  0.28375  0.04373  0.99650  1.0000
  N   N2        1.0  0.24951  0.10152  0.06316  1.0000
  C   C52       1.0  0.24723  0.10352  0.07766  1.0000
  C   C53       1.0  0.24962  0.12635  0.05529  1.0000
  C   C54       1.0  0.27314  0.08607  0.05932  1.0000
  C   C55       1.0  0.22893  0.09046  0.06164  1.0000
  C   C56       1.0  0.25106  0.07991  0.08748  1.0000
  C   C57       1.0  0.12004  0.42657  0.14915  1.0000
  C   C58       1.0  0.28065  0.08323  0.04458  1.0000
  C   C59       1.0  0.22213  0.09498  0.04756  1.0000
  H   H64       1.0  0.26011  0.11445  0.07892  1.0000
  H   H65       1.0  0.22921  0.11298  0.08141  1.0000
  H   H66       1.0  0.29983  0.43699  0.03624  1.0000
  H   H67       1.0  0.14174  0.42002  0.16570  1.0000
  H   H68       1.0  0.28777  0.09288  0.06209  1.0000
  H   H69       1.0  0.27344  0.06758  0.06490  1.0000
  H   H70       1.0  0.23234  0.07084  0.06501  1.0000
  H   H71       1.0  0.21237  0.09719  0.06829  1.0000
  H   H72       1.0  0.24000  0.06713  0.08639  1.0000
  H   H73       1.0  0.27021  0.07166  0.08640  1.0000
  H   H74       1.0  0.24591  0.08372  0.09783  1.0000
  C   C60       1.0  0.12200  0.11414  0.99416  1.0000
  C   C61       1.0  0.14216  0.47322  0.99434  1.0000
  H   H75       1.0  0.99445  0.37381  0.99465  1.0000
  H   H76       1.0  0.13556  0.46341  0.15861  1.0000
  H   H77       1.0  0.26922  0.07271  0.04160  1.0000
  C   C62       1.0  0.04941  0.27698  0.04144  1.0000
  H   H78       1.0  0.21692  0.07857  0.04586  1.0000
  H   H79       1.0  0.23634  0.09967  0.03918  1.0000
  H   H80       1.0  0.20599  0.10889  0.04695  1.0000
  N   N3        1.0  0.15918  0.10618  0.13256  1.0000
  H   H81       1.0  0.13833  0.15631  0.00059  1.0000
  H   H82       1.0  0.10557  0.12674  0.99404  1.0000
  C   C63       1.0  0.16909  0.09446  0.12048  1.0000
  C   C64       1.0  0.13235  0.11090  0.13402  1.0000
  H   H83       1.0  0.13853  0.15395  0.13906  1.0000
  C   C65       1.0  0.19645  0.08709  0.11783  1.0000
  C   C66       1.0  0.12184  0.12746  0.12221  1.0000
  H   H84       1.0  0.14645  0.23548  0.98065  1.0000
  H   H85       1.0  0.01931  0.30560  0.04211  1.0000
  H   H86       1.0  0.20324  0.07454  0.12628  1.0000
  C   C67       1.0  0.15589  0.08985  0.98239  1.0000
  H   H87       1.0  0.15655  0.09809  0.15407  1.0000
  C   C68       1.0  0.04481  0.31311  0.01705  1.0000
  H   H88       1.0  0.13277  0.14114  0.11685  1.0000
  C   C69       1.0  0.31436  0.01658  0.01379  1.0000
  C   C70       1.0  0.26246  0.43529  0.03814  1.0000
  H   H89       1.0  0.16435  0.10658  0.11130  1.0000
  H   H90       1.0  0.05841  0.26254  0.03575  1.0000
  H   H91       1.0  0.03174  0.25992  0.99834  1.0000
  H   H92       1.0  0.11953  0.11698  0.11484  1.0000
  H   H93       1.0  0.05201  0.26925  0.01385  1.0000
  H   H94       1.0  0.11248  0.16769  0.98711  1.0000
  H   H95       1.0  0.17838  0.37596  0.14501  1.0000
  C   C71       1.0  0.09273  0.00637  0.98891  1.0000
  H   H96       1.0  0.31397  0.99086  0.11477  1.0000
  C   C72       1.0  0.98923  0.15496  0.01867  1.0000
  H   H97       1.0  0.01256  0.27738  0.04131  1.0000
  H   H98       1.0  0.16380  0.20008  0.99493  1.0000
  C   C73       1.0  0.20355  0.45233  0.02082  1.0000
  H   H99       1.0  0.19601  0.42408  0.98640  1.0000
  H   H100      1.0  0.03044  0.42317  0.03543  1.0000
  H   H101      1.0  0.25139  0.12679  0.04445  1.0000
  H   H102      1.0  0.11239  0.41184  0.14702  1.0000
  H   H103      1.0  0.11905  0.40196  0.16824  1.0000
  C   C74       1.0  0.17162  0.15374  0.00699  1.0000
  H   H104      1.0  0.27285  0.46118  0.00346  1.0000
  H   H105      1.0  0.13240  0.41181  0.12527  1.0000
  H   H106      1.0  0.24491  0.44461  0.04249  1.0000
  H   H107      1.0  0.06099  0.43696  0.01681  1.0000
  C   C75       1.0  0.16472  0.47952  0.98850  1.0000
  C   C76       1.0  0.11014  0.29579  0.98232  1.0000
  H   H108      1.0  0.99907  0.32816  0.02401  1.0000
  H   H109      1.0  0.22786  0.16142  0.05169  1.0000
  C   C77       1.0  0.18102  0.43787  0.98865  1.0000
  H   H110      1.0  0.31257  0.14643  0.05392  1.0000
  H   H111      1.0  0.16161  0.13640  0.99299  1.0000
  C   C78       1.0  0.04886  0.32289  0.00202  1.0000
  H   H112      1.0  0.00092  0.31690  0.00926  1.0000
  H   H113      1.0  0.07708  0.99918  0.98764  1.0000
  N   N4        1.0  0.28344  0.47211  0.02751  1.0000
  H   H114      1.0  0.01904  0.45225  0.03905  1.0000
  N   N5        1.0  0.14161  0.43139  0.13879  1.0000
  H   H115      1.0  0.06109  0.33618  0.00004  1.0000
  H   H116      1.0  0.16591  0.16986  0.01173  1.0000
  C   C79       1.0  0.14672  0.45615  0.13804  1.0000
  H   H117      1.0  0.00383  0.27705  0.00407  1.0000
  H   H118      1.0  0.03262  0.41347  0.01399  1.0000
  C   C80       1.0  0.10286  0.27441  0.98198  1.0000
  C   C81       1.0  0.28435  0.46778  0.10941  1.0000
  H   H119      1.0  0.26077  0.47586  0.13476  1.0000
  H   H120      1.0  0.16219  0.45960  0.13000  1.0000
  C   C82       1.0  0.02189  0.43069  0.01019  1.0000
  S   S36       1.0  0.21332  0.46839  0.97875  1.0000
  H   H121      1.0  0.13754  0.04343  0.99967  1.0000
  H   H122      1.0  0.30212  0.10259  0.20747  1.0000
  H   H123      1.0  0.13005  0.45635  0.03448  1.0000
  H   H124      1.0  0.19116  0.15109  0.00352  1.0000
  C   C83       1.0  0.16379  0.41355  0.14103  1.0000
  H   H125      1.0  0.00600  0.20672  0.99527  1.0000
  H   H126      1.0  0.15682  0.13696  0.15117  1.0000
  H   H127      1.0  0.29775  0.99070  0.15518  1.0000
  H   H128      1.0  0.14608  0.41916  0.02342  1.0000
  H   H129      1.0  0.04058  0.32864  0.02240  1.0000
  H   H130      1.0  0.16874  0.13915  0.12047  1.0000
  N   N6        1.0  0.22054  0.24217  0.13987  1.0000
  C   C84       1.0  0.19566  0.24497  0.13674  1.0000
  C   C85       1.0  0.22375  0.26616  0.14207  1.0000
  C   C86       1.0  0.22179  0.22448  0.15261  1.0000
  C   C87       1.0  0.23830  0.23314  0.12848  1.0000
  C   C88       1.0  0.18745  0.22190  0.13555  1.0000
  C   C89       1.0  0.22066  0.28671  0.13025  1.0000
  C   C90       1.0  0.24554  0.21922  0.15795  1.0000
  C   C91       1.0  0.26395  0.23875  0.12639  1.0000
  C   C92       1.0  0.29685  0.05487  0.00284  1.0000
  H   H131      1.0  0.19394  0.25709  0.12709  1.0000
  H   H132      1.0  0.24145  0.26579  0.14463  1.0000
  H   H133      1.0  0.21080  0.27158  0.15086  1.0000
  H   H134      1.0  0.20739  0.23037  0.16071  1.0000
  H   H135      1.0  0.21872  0.20677  0.15139  1.0000
  H   H136      1.0  0.23978  0.21347  0.12953  1.0000
  H   H137      1.0  0.23178  0.24075  0.11888  1.0000
  H   H138      1.0  0.18278  0.21093  0.14545  1.0000
  H   H139      1.0  0.17106  0.22663  0.13093  1.0000
  Fe  Fe18      1.0  0.27561  0.00677  0.20245  1.0000
  H   H140      1.0  0.23068  0.28176  0.12070  1.0000
  H   H141      1.0  0.20157  0.29279  0.12934  1.0000
  H   H142      1.0  0.22752  0.30227  0.13187  1.0000
  H   H143      1.0  0.24346  0.20686  0.16762  1.0000
  H   H144      1.0  0.25079  0.23531  0.15994  1.0000
  H   H145      1.0  0.26003  0.20981  0.15121  1.0000
  H   H146      1.0  0.27667  0.22364  0.12260  1.0000
  H   H147      1.0  0.26987  0.24124  0.13539  1.0000
  H   H148      1.0  0.26632  0.25437  0.11838  1.0000
  N   N7        1.0  0.16751  0.27309  0.06227  1.0000
  C   C93       1.0  0.19383  0.27242  0.06200  1.0000
  C   C94       1.0  0.16300  0.24770  0.06582  1.0000
  C   C95       1.0  0.15361  0.28733  0.07284  1.0000
  C   C96       1.0  0.16193  0.28484  0.04867  1.0000
  C   C97       1.0  0.20175  0.29661  0.06126  1.0000
  C   C98       1.0  0.17591  0.23126  0.05572  1.0000
  C   C99       1.0  0.12801  0.28277  0.07885  1.0000
  C   C100      1.0  0.13654  0.28543  0.04606  1.0000
  H   H149      1.0  0.19976  0.26061  0.07101  1.0000
  H   H150      1.0  0.20484  0.26467  0.05335  1.0000
  H   H151      1.0  0.14380  0.24658  0.06712  1.0000
  H   H152      1.0  0.16816  0.23940  0.07572  1.0000
  H   H153      1.0  0.16301  0.28393  0.08154  1.0000
  H   H154      1.0  0.15254  0.30674  0.06905  1.0000
  H   H155      1.0  0.16453  0.30374  0.04661  1.0000
  H   H156      1.0  0.17489  0.27712  0.04057  1.0000
  H   H157      1.0  0.19445  0.30422  0.07049  1.0000
  H   H158      1.0  0.02513  0.42424  0.98991  1.0000
  H   H159      1.0  0.17222  0.37381  0.02990  1.0000
  H   H160      1.0  0.12838  0.43607  0.05045  1.0000
  C   C101      1.0  0.29387  0.43946  0.07947  1.0000
  C   C102      1.0  0.18881  0.37858  0.03163  1.0000
  H   H161      1.0  0.06262  0.30370  0.01912  1.0000
  H   H162      1.0  0.11224  0.44245  0.11107  1.0000
  H   H163      1.0  0.20096  0.13293  0.98370  1.0000
  C   C103      1.0  0.14931  0.41952  0.03358  1.0000
  C   C104      1.0  0.12914  0.43781  0.03957  1.0000
  H   H164      1.0  0.17850  0.41677  0.13251  1.0000
  H   H165      1.0  0.20719  0.45274  0.12867  1.0000
  Fe  Fe19      1.0  0.22376  0.00761  0.21671  1.0000
  H   H166      1.0  0.00355  0.42676  0.01136  1.0000
  C   C105      1.0  0.19091  0.40478  0.02559  1.0000
  C   C106      1.0  0.21325  0.45170  0.13798  1.0000
  H   H167      1.0  0.18069  0.06814  0.99456  1.0000
  C   C107      1.0  0.22896  0.44942  0.16214  1.0000
  N   N8        1.0  0.17456  0.42330  0.03298  1.0000
  C   C108      1.0  0.18059  0.41989  0.04683  1.0000
  H   H168      1.0  0.18800  0.40771  0.01505  1.0000
  C   C109      1.0  0.16123  0.38711  0.14283  1.0000
  H   H169      1.0  0.02826  0.29154  0.99483  1.0000
  C   C110      1.0  0.28260  0.44945  0.03762  1.0000
  H   H170      1.0  0.11115  0.43253  0.16988  1.0000
  H   H171      1.0  0.28598  0.47019  0.09843  1.0000
  H   H172      1.0  0.26138  0.43132  0.02835  1.0000
  H   H173      1.0  0.21287  0.44358  0.01218  1.0000
  C   C111      1.0  0.13062  0.10545  0.00615  1.0000
  H   H174      1.0  0.03229  0.33215  0.99828  1.0000
  S   S37       1.0  0.27076  0.00373  0.99061  1.0000
  H   H175      1.0  0.12538  0.09397  0.13518  1.0000
  C   C112      1.0  0.15694  0.14588  0.14069  1.0000
  C   C113      1.0  0.13460  0.10636  0.98233  1.0000
  C   C114      1.0  0.13744  0.02639  0.99642  1.0000
  H   H176      1.0  0.28162  0.10038  0.03771  1.0000
  H   H177      1.0  0.25261  0.44981  0.11348  1.0000
  C   C115      1.0  0.00648  0.47249  0.01456  1.0000
  C   C116      1.0  0.17763  0.44751  0.02493  1.0000
  C   C117      1.0  0.15165  0.08857  0.00625  1.0000
  H   H178      1.0  0.11182  0.43397  0.03826  1.0000
  S   S38       1.0  0.25696  0.01353  0.22287  1.0000
  C   C118      1.0  0.18429  0.46183  0.98563  1.0000
  H   H179      1.0  0.20342  0.47176  0.01749  1.0000
  H   H180      1.0  0.18533  0.08958  0.14539  1.0000
  H   H181      1.0  0.13136  0.46982  0.13534  1.0000
  H   H182      1.0  0.10183  0.99225  0.99589  1.0000
  C   C119      1.0  0.15739  0.15438  0.99583  1.0000
  C   C120      1.0  0.27111  0.44652  0.11553  1.0000
  C   C121      1.0  0.21817  0.47128  0.15581  1.0000
  H   H183      1.0  0.12381  0.11777  0.14341  1.0000
  H   H184      1.0  0.31722  0.45720  0.01650  1.0000
  N   N9        1.0  0.02289  0.44938  0.01815  1.0000
  H   H185      1.0  0.23503  0.44839  0.17146  1.0000
  H   H186      1.0  0.22783  0.14987  0.06889  1.0000
  H   H187      1.0  0.12101  0.01984  0.00193  1.0000
  H   H188      1.0  0.20146  0.07792  0.10903  1.0000
  C   C122      1.0  0.03236  0.27502  0.01573  1.0000
  H   H189      1.0  0.15268  0.43160  0.11749  1.0000
  H   H190      1.0  0.16733  0.46208  0.03020  1.0000
  H   H191      1.0  0.06175  0.28972  0.04075  1.0000
  C   C123      1.0  0.16908  0.12896  0.13072  1.0000
  C   C124      1.0  0.31144  0.03894  0.21863  1.0000
  H   H192      1.0  0.17205  0.05446  0.13974  1.0000
  C   C125      1.0  0.03122  0.43632  0.99510  1.0000
  H   H193      1.0  0.30314  0.45216  0.99676  1.0000
  C   C126      1.0  0.02556  0.28980  0.03698  1.0000
  C   C127      1.0  0.00207  0.31129  0.02000  1.0000
  C   C128      1.0  0.04832  0.45403  0.01533  1.0000
  H   H194      1.0  0.15782  0.38237  0.13366  1.0000
  H   H195      1.0  0.26560  0.13337  0.05636  1.0000
  S   S39       1.0  0.21296  0.04627  0.20836  1.0000
  H   H196      1.0  0.27202  0.05435  0.98987  1.0000
  H   H197      1.0  0.02524  0.25973  0.02260  1.0000
  N   N10       1.0  0.16121  0.17328  0.98371  1.0000
  H   H198      1.0  0.15735  0.45184  0.05383  1.0000
  S   S40       1.0  0.31358  0.98643  0.19918  1.0000
  H   H199      1.0  0.12036  0.46588  0.11691  1.0000
  H   H200      1.0  0.21052  0.13854  0.05963  1.0000
  C   C129      1.0  0.29043  0.45278  0.00629  1.0000
  S   S41       1.0  0.28625  0.45962  0.21227  1.0000
  H   H201      1.0  0.04586  0.26865  0.05210  1.0000
  H   H202      1.0  0.28994  0.07930  0.20317  1.0000
  H   H203      1.0  0.17837  0.43623  0.06420  1.0000
  S   S42       1.0  0.00084  0.18680  0.03216  1.0000
  C   C130      1.0  0.28164  0.48014  0.06931  1.0000
  H   H204      1.0  0.21374  0.44627  0.02916  1.0000
  Fe  Fe20      1.0  0.24725  0.05153  0.21353  1.0000
  H   H205      1.0  0.05106  0.43298  0.99303  1.0000
  H   H206      1.0  0.28064  0.43079  0.11097  1.0000
  H   H207      1.0  0.20103  0.21110  0.12911  1.0000
  H   H208      1.0  0.18214  0.25344  0.14440  1.0000
  S   S43       1.0  0.24722  0.08473  0.22210  1.0000
  C   C131      1.0  0.30552  0.08855  0.20119  1.0000
  H   H209      1.0  0.16585  0.98621  0.97998  1.0000
  H   H210      1.0  0.13433  0.19888  0.99335  1.0000
  H   H211      1.0  0.15836  0.08169  0.01551  1.0000
  H   H212      1.0  0.16721  0.16072  0.13920  1.0000
  H   H213      1.0  0.08615  0.02259  0.99356  1.0000
  H   H214      1.0  0.05337  0.46219  0.00473  1.0000
  C   C132      1.0  0.16435  0.08090  0.99440  1.0000
  H   H215      1.0  0.14720  0.38205  0.15129  1.0000
  C   C133      1.0  0.16613  0.09045  0.14509  1.0000
  H   H216      1.0  0.29032  0.43408  0.01127  1.0000
  H   H217      1.0  0.29295  0.04892  0.22045  1.0000
  C   C134      1.0  0.13659  0.42966  0.12531  1.0000
  H   H218      1.0  0.10420  0.13750  0.12597  1.0000
  C   C135      1.0  0.01729  0.43944  0.03281  1.0000
  H   H219      1.0  0.29512  0.07407  0.00096  1.0000
  C   C136      1.0  0.30129  0.00544  0.00745  1.0000
  H   H220      1.0  0.10557  0.44232  0.14850  1.0000
  C   C137      1.0  0.02341  0.27638  0.00251  1.0000
  H   H221      1.0  0.17115  0.41552  0.14970  1.0000
  C   C138      1.0  0.30852  0.10708  0.08889  1.0000
  C   C139      1.0  0.29940  0.46716  0.01465  1.0000
  H   H222      1.0  0.30313  0.98622  0.00928  1.0000
  H   H223      1.0  0.05598  0.46130  0.03393  1.0000
  H   H224      1.0  0.24960  0.47266  0.02129  1.0000
  C   C140      1.0  0.32171  0.46778  0.07449  1.0000
  C   C141      1.0  0.99215  0.43312  0.03807  1.0000
  C   C142      1.0  0.05413  0.47067  0.02367  1.0000
  H   H225      1.0  0.99468  0.23641  0.98814  1.0000
  C   C143      1.0  0.13893  0.03085  0.98115  1.0000
  H   H226      1.0  0.14053  0.98414  0.99244  1.0000
  H   H227      1.0  0.07171  0.47609  0.01909  1.0000
  C   C144      1.0  0.14610  0.98713  0.98148  1.0000
  H   H228      1.0  0.19774  0.17671  0.98393  1.0000
  H   H229      1.0  0.31184  0.00097  0.22626  1.0000
  C   C145      1.0  0.18725  0.17118  0.97754  1.0000
  H   H230      1.0  0.31696  0.01756  0.12033  1.0000
  H   H231      1.0  0.99182  0.42276  0.04832  1.0000
  H   H232      1.0  0.29133  0.47754  0.13154  1.0000
  C   C146      1.0  0.32024  0.48120  0.03503  1.0000
  H   H233      1.0  0.12644  0.04763  0.97853  1.0000
  C   C147      1.0  0.98988  0.22076  0.99552  1.0000
  H   H234      1.0  0.24700  0.48105  0.09524  1.0000
  H   H235      1.0  0.15683  0.48039  0.14850  1.0000
  H   H236      1.0  0.15711  0.03524  0.97707  1.0000
  C   C148      1.0  0.11983  0.17630  0.97704  1.0000
  C   C149      1.0  0.15429  0.21898  0.97644  1.0000
  C   C150      1.0  0.32113  0.37898  0.34792  1.0000
  H   H237      1.0  0.30992  0.09727  0.36175  1.0000
  H   H238      1.0  0.09587  0.99742  0.29124  1.0000
  Fe  Fe21      1.0  0.21215  0.00849  0.43672  1.0000
  S   S44       1.0  0.19657  0.04395  0.44279  1.0000
  H   H239      1.0  0.19668  0.98432  0.39456  1.0000
  Fe  Fe22      1.0  0.23304  0.04392  0.44727  1.0000
  S   S45       1.0  0.24460  0.08039  0.44116  1.0000
  Fe  Fe23      1.0  0.18922  0.02408  0.46373  1.0000
  S   S46       1.0  0.24942  0.00934  0.43999  1.0000
  H   H240      1.0  0.23888  0.47550  0.41346  1.0000
  H   H241      1.0  0.30701  0.29381  0.27148  1.0000
  S   S47       1.0  0.09857  0.03729  0.35699  1.0000
  Fe  Fe24      1.0  0.07043  0.01777  0.35407  1.0000
  S   S48       1.0  0.03351  0.03595  0.35005  1.0000
  Fe  Fe25      1.0  0.12407  0.01396  0.34385  1.0000
  S   S49       1.0  0.15604  0.02372  0.32884  1.0000
  H   H242      1.0  0.21516  0.31515  0.26166  1.0000
  H   H243      1.0  0.11333  0.40689  0.36525  1.0000
  C   C151      1.0  0.09577  0.40921  0.34124  1.0000
  H   H244      1.0  0.12881  0.39271  0.32959  1.0000
  Fe  Fe26      1.0  0.24375  0.17476  0.29373  1.0000
  S   S50       1.0  0.27821  0.14907  0.29540  1.0000
  S   S51       1.0  0.23827  0.21452  0.28556  1.0000
  Fe  Fe27      1.0  0.21287  0.13675  0.30767  1.0000
  S   S52       1.0  0.24470  0.10888  0.31079  1.0000
  S   S53       1.0  0.17496  0.13020  0.31531  1.0000
  Fe  Fe28      1.0  0.26022  0.13720  0.31638  1.0000
  Fe  Fe29      1.0  0.25934  0.12293  0.28950  1.0000
  S   S54       1.0  0.27451  0.09323  0.27717  1.0000
  S   S55       1.0  0.22694  0.16413  0.31491  1.0000
  S   S56       1.0  0.22645  0.14962  0.28616  1.0000
  Fe  Fe30      1.0  0.24944  0.36887  0.31560  1.0000
  S   S57       1.0  0.26894  0.39671  0.30227  1.0000
  S   S58       1.0  0.22324  0.37820  0.33374  1.0000
  Fe  Fe31      1.0  0.27813  0.32880  0.30086  1.0000
  S   S59       1.0  0.29960  0.35410  0.28625  1.0000
  S   S60       1.0  0.29040  0.28903  0.30114  1.0000
  Fe  Fe32      1.0  0.30170  0.36914  0.30428  1.0000
  C   C152      1.0  0.25467  0.46150  0.41162  1.0000
  Fe  Fe33      1.0  0.26470  0.37926  0.28563  1.0000
  S   S61       1.0  0.24667  0.40077  0.26844  1.0000
  S   S62       1.0  0.28253  0.34251  0.31879  1.0000
  S   S63       1.0  0.24291  0.35267  0.29903  1.0000
  C   C153      1.0  0.11576  0.44703  0.31832  1.0000
  H   H245      1.0  0.30059  0.44223  0.40307  1.0000
  H   H246      1.0  0.30247  0.37338  0.33306  1.0000
  C   C154      1.0  0.16213  0.04028  0.29246  1.0000
  C   C155      1.0  0.25225  0.23450  0.29094  1.0000
  C   C156      1.0  0.27595  0.22842  0.29302  1.0000
  C   C157      1.0  0.28736  0.24544  0.29603  1.0000
  C   C158      1.0  0.27506  0.26845  0.29734  1.0000
  C   C159      1.0  0.25113  0.27431  0.29571  1.0000
  C   C160      1.0  0.23993  0.25755  0.29223  1.0000
  H   H247      1.0  0.28570  0.21085  0.29185  1.0000
  H   H248      1.0  0.30594  0.24084  0.29717  1.0000
  H   H249      1.0  0.24135  0.29179  0.29702  1.0000
  H   H250      1.0  0.22159  0.26235  0.29064  1.0000
  C   C161      1.0  0.25326  0.08637  0.23792  1.0000
  C   C162      1.0  0.24949  0.10874  0.24189  1.0000
  C   C163      1.0  0.25498  0.11101  0.25414  1.0000
  C   C164      1.0  0.26494  0.09097  0.26238  1.0000
  C   C165      1.0  0.26848  0.06855  0.25846  1.0000
  C   C166      1.0  0.26228  0.06618  0.24641  1.0000
  H   H251      1.0  0.24241  0.12447  0.23542  1.0000
  H   H252      1.0  0.25224  0.12838  0.25701  1.0000
  H   H253      1.0  0.27611  0.05295  0.26481  1.0000
  H   H254      1.0  0.24825  0.28440  0.24391  1.0000
  H   H255      1.0  0.16005  0.15032  0.45743  1.0000
  C   C167      1.0  0.24251  0.43322  0.24561  1.0000
  C   C168      1.0  0.25852  0.41825  0.25341  1.0000
  C   C169      1.0  0.28306  0.41653  0.24865  1.0000
  C   C170      1.0  0.29138  0.42939  0.23607  1.0000
  H   H256      1.0  0.27279  0.40691  0.33990  1.0000
  H   H257      1.0  0.30362  0.07978  0.22775  1.0000
  H   H258      1.0  0.29560  0.40499  0.25451  1.0000
  H   H259      1.0  0.01488  0.01323  0.32228  1.0000
  C   C171      1.0  0.16077  0.05344  0.32514  1.0000
  C   C172      1.0  0.14239  0.07217  0.32800  1.0000
  C   C173      1.0  0.14686  0.09573  0.32479  1.0000
  C   C174      1.0  0.16977  0.10060  0.31891  1.0000
  C   C175      1.0  0.18812  0.08180  0.31611  1.0000
  C   C176      1.0  0.18356  0.05833  0.31911  1.0000
  H   H260      1.0  0.12468  0.06857  0.33252  1.0000
  H   H261      1.0  0.13258  0.11024  0.32693  1.0000
  H   H262      1.0  0.20574  0.08535  0.31147  1.0000
  H   H263      1.0  0.19784  0.04383  0.31696  1.0000
  H   H264      1.0  0.21081  0.12400  0.44778  1.0000
  C   C177      1.0  0.01157  0.01886  0.34978  1.0000
  H   H265      1.0  0.01472  0.00629  0.30653  1.0000
  C   C178      1.0  0.29330  0.21356  0.35329  1.0000
  H   H266      1.0  0.32189  0.07437  0.39610  1.0000
  H   H267      1.0  0.23040  0.46078  0.30832  1.0000
  C   C179      1.0  0.27321  0.08537  0.43241  1.0000
  C   C180      1.0  0.29207  0.06656  0.43059  1.0000
  C   C181      1.0  0.27719  0.10886  0.42736  1.0000
  H   H268      1.0  0.28928  0.04843  0.43449  1.0000
  H   H269      1.0  0.26271  0.12352  0.42875  1.0000
  H   H270      1.0  0.13326  0.08771  0.44579  1.0000
  H   H271      1.0  0.19681  0.08771  0.45486  1.0000
  H   H272      1.0  0.22684  0.31266  0.27701  1.0000
  H   H273      1.0  0.26472  0.04885  0.24360  1.0000
  C   C182      1.0  0.13815  0.01015  0.39984  1.0000
  N   N11       1.0  0.26996  0.46839  0.39834  1.0000
  H   H274      1.0  0.27561  0.27783  0.24995  1.0000
  H   H275      1.0  0.29422  0.34428  0.24442  1.0000
  H   H276      1.0  0.13026  0.43962  0.33641  1.0000
  H   H277      1.0  0.05484  0.00835  0.31006  1.0000
  C   C183      1.0  0.17694  0.45169  0.32795  1.0000
  C   C184      1.0  0.17869  0.43907  0.34076  1.0000
  C   C185      1.0  0.19221  0.41610  0.34245  1.0000
  C   C186      1.0  0.20464  0.40600  0.33135  1.0000
  C   C187      1.0  0.20275  0.41856  0.31854  1.0000
  C   C188      1.0  0.18868  0.44123  0.31686  1.0000
  H   H278      1.0  0.19352  0.40637  0.35239  1.0000
  H   H279      1.0  0.21212  0.41080  0.30991  1.0000
  H   H280      1.0  0.18722  0.45082  0.30692  1.0000
  H   H281      1.0  0.23796  0.35422  0.26808  1.0000
  H   H282      1.0  0.30477  0.29865  0.25418  1.0000
  S   S64       1.0  0.13331  0.98468  0.36064  1.0000
  N   N12       1.0  0.28643  0.21886  0.33960  1.0000
  C   C189      1.0  0.26542  0.20648  0.34043  1.0000
  H   H283      1.0  0.29375  0.44999  0.31113  1.0000
  C   C190      1.0  0.31976  0.07883  0.36306  1.0000
  C   C191      1.0  0.27879  0.24511  0.33500  1.0000
  C   C192      1.0  0.25758  0.20647  0.32708  1.0000
  C   C193      1.0  0.14796  0.11200  0.47566  1.0000
  H   H284      1.0  0.28771  0.10432  0.39666  1.0000
  H   H285      1.0  0.30711  0.18901  0.33068  1.0000
  H   H286      1.0  0.26919  0.18747  0.34523  1.0000
  H   H287      1.0  0.24930  0.21465  0.34679  1.0000
  H   H288      1.0  0.23824  0.45777  0.22731  1.0000
  H   H289      1.0  0.11016  0.46632  0.33463  1.0000
  H   H290      1.0  0.17916  0.07441  0.46883  1.0000
  C   C194      1.0  0.31563  0.31635  0.36194  1.0000
  H   H291      1.0  0.27571  0.24839  0.32453  1.0000
  H   H292      1.0  0.26097  0.25186  0.34050  1.0000
  H   H293      1.0  0.24162  0.19757  0.32918  1.0000
  H   H294      1.0  0.25225  0.22468  0.32173  1.0000
  H   H295      1.0  0.27144  0.19614  0.32047  1.0000
  H   H296      1.0  0.24879  0.38085  0.24137  1.0000
  H   H297      1.0  0.20066  0.15531  0.44518  1.0000
  H   H298      1.0  0.28202  0.21952  0.37374  1.0000
  H   H299      1.0  0.10920  0.43210  0.37325  1.0000
  C   C195      1.0  0.30111  0.30737  0.26309  1.0000
  H   H300      1.0  0.08884  0.40712  0.33235  1.0000
  H   H301      1.0  0.25844  0.21416  0.36668  1.0000
  H   H302      1.0  0.30870  0.26422  0.32571  1.0000
  H   H303      1.0  0.23350  0.42137  0.35038  1.0000
  H   H304      1.0  0.06787  0.46759  0.33719  1.0000
  H   H305      1.0  0.24988  0.42483  0.32296  1.0000
  H   H306      1.0  0.16972  0.44698  0.34937  1.0000
  H   H307      1.0  0.31058  0.11710  0.38492  1.0000
  H   H308      1.0  0.23196  0.01939  0.28695  1.0000
  N   N13       1.0  0.17942  0.05800  0.36320  1.0000
  C   C196      1.0  0.15431  0.05291  0.36489  1.0000
  C   C197      1.0  0.19564  0.04105  0.35475  1.0000
  C   C198      1.0  0.17952  0.08315  0.35575  1.0000
  C   C199      1.0  0.18600  0.05543  0.37685  1.0000
  C   C200      1.0  0.13448  0.07022  0.37203  1.0000
  C   C201      1.0  0.19389  0.01447  0.35952  1.0000
  C   C202      1.0  0.20387  0.09165  0.35136  1.0000
  C   C203      1.0  0.21265  0.04781  0.37808  1.0000
  H   H309      1.0  0.14952  0.05272  0.35504  1.0000
  H   H310      1.0  0.15271  0.03489  0.37078  1.0000
  H   H311      1.0  0.21466  0.04276  0.35376  1.0000
  H   H312      1.0  0.19187  0.04549  0.34439  1.0000
  H   H313      1.0  0.17152  0.08558  0.34658  1.0000
  H   H314      1.0  0.16818  0.09629  0.36179  1.0000
  H   H315      1.0  0.17972  0.07235  0.38091  1.0000
  H   H316      1.0  0.17661  0.04210  0.38419  1.0000
  H   H317      1.0  0.13077  0.08764  0.36547  1.0000
  H   H318      1.0  0.11764  0.06268  0.37453  1.0000
  H   H319      1.0  0.13869  0.07279  0.38154  1.0000
  H   H320      1.0  0.20936  0.00350  0.35419  1.0000
  H   H321      1.0  0.19400  0.00910  0.37034  1.0000
  H   H322      1.0  0.17758  0.01024  0.35706  1.0000
  H   H323      1.0  0.21703  0.08015  0.34509  1.0000
  H   H324      1.0  0.21115  0.09403  0.35998  1.0000
  H   H325      1.0  0.20124  0.10953  0.34503  1.0000
  H   H326      1.0  0.21907  0.02895  0.37690  1.0000
  H   H327      1.0  0.21487  0.04903  0.38829  1.0000
  H   H328      1.0  0.22434  0.05916  0.37098  1.0000
  H   H329      1.0  0.32155  0.15093  0.36413  1.0000
  H   H330      1.0  0.03162  0.44837  0.33995  1.0000
  H   H331      1.0  0.24717  0.44527  0.41172  1.0000
  H   H332      1.0  0.29472  0.41951  0.31842  1.0000
  C   C204      1.0  0.29958  0.14338  0.35160  1.0000
  H   H333      1.0  0.30268  0.13165  0.41665  1.0000
  C   C205      1.0  0.26712  0.45622  0.42394  1.0000
  H   H334      1.0  0.32024  0.07480  0.24752  1.0000
  H   H335      1.0  0.31219  0.32158  0.26143  1.0000
  C   C206      1.0  0.14080  0.08799  0.45477  1.0000
  C   C207      1.0  0.24379  0.45614  0.38427  1.0000
  H   H336      1.0  0.04177  0.44566  0.35524  1.0000
  C   C208      1.0  0.18034  0.99402  0.39931  1.0000
  H   H337      1.0  0.12180  0.02825  0.41640  1.0000
  H   H338      1.0  0.24248  0.44573  0.35546  1.0000
  H   H339      1.0  0.15151  0.05437  0.29800  1.0000
  C   C209      1.0  0.30666  0.20851  0.32969  1.0000
  C   C210      1.0  0.31361  0.07795  0.38700  1.0000
  H   H340      1.0  0.14123  0.12562  0.44939  1.0000
  H   H341      1.0  0.28552  0.27984  0.33656  1.0000
  H   H342      1.0  0.18277  0.05058  0.25063  1.0000
  H   H343      1.0  0.22798  0.35356  0.25309  1.0000
  S   S65       1.0  0.20739  0.99786  0.41746  1.0000
  H   H344      1.0  0.31757  0.04597  0.24551  1.0000
  S   S66       1.0  0.27176  0.13159  0.33655  1.0000
  C   C211      1.0  0.31839  0.13996  0.32894  1.0000
  C   C212      1.0  0.99833  0.48193  0.36678  1.0000
  H   H345      1.0  0.18356  0.12252  0.28409  1.0000
  H   H346      1.0  0.16751  0.10724  0.44275  1.0000
  N   N14       1.0  0.09286  0.43531  0.34206  1.0000
  C   C213      1.0  0.11226  0.42651  0.36334  1.0000
  C   C214      1.0  0.11276  0.44730  0.33338  1.0000
  S   S67       1.0  0.22421  0.02677  0.46883  1.0000
  H   H347      1.0  0.32039  0.42685  0.33445  1.0000
  C   C215      1.0  0.12150  0.39492  0.34008  1.0000
  H   H348      1.0  0.07529  0.43251  0.36276  1.0000
  C   C216      1.0  0.28866  0.44720  0.39544  1.0000
  H   H349      1.0  0.07009  0.44601  0.32692  1.0000
  N   N15       1.0  0.16644  0.11200  0.46312  1.0000
  H   H350      1.0  0.03377  0.98479  0.35392  1.0000
  C   C217      1.0  0.02052  0.99872  0.31623  1.0000
  H   H351      1.0  0.29739  0.46291  0.37396  1.0000
  C   C218      1.0  0.04663  0.43981  0.34539  1.0000
  C   C219      1.0  0.27530  0.44437  0.22827  1.0000
  H   H352      1.0  0.12087  0.37657  0.34569  1.0000
  H   H353      1.0  0.31035  0.42774  0.23236  1.0000
  H   H354      1.0  0.15481  0.06001  0.27337  1.0000
  C   C220      1.0  0.28265  0.47081  0.34490  1.0000
  C   C221      1.0  0.15937  0.99774  0.39373  1.0000
  H   H355      1.0  0.30380  0.21606  0.31931  1.0000
  H   H356      1.0  0.08881  0.45832  0.35655  1.0000
  H   H357      1.0  0.19953  0.11452  0.26864  1.0000
  C   C222      1.0  0.25396  0.47611  0.38792  1.0000
  H   H358      1.0  0.31758  0.13668  0.31917  1.0000
  H   H359      1.0  0.29792  0.01965  0.23831  1.0000
  C   C223      1.0  0.09116  0.43896  0.35620  1.0000
  H   H360      1.0  0.18297  0.08897  0.25663  1.0000
  H   H361      1.0  0.29793  0.19399  0.35645  1.0000
  H   H362      1.0  0.05845  0.99659  0.28864  1.0000
  H   H363      1.0  0.21131  0.01822  0.27696  1.0000
  H   H364      1.0  0.28179  0.44078  0.42365  1.0000
  S   S68       1.0  0.13293  0.47943  0.36432  1.0000
  H   H365      1.0  0.25802  0.44358  0.37923  1.0000
  H   H366      1.0  0.15011  0.02730  0.29297  1.0000
  H   H367      1.0  0.27887  0.31521  0.23822  1.0000
  H   H368      1.0  0.09401  0.00314  0.30805  1.0000
  C   C224      1.0  0.31308  0.01721  0.23002  1.0000
  H   H369      1.0  0.31116  0.43310  0.37833  1.0000
  N   N16       1.0  0.26210  0.33115  0.25556  1.0000
  C   C225      1.0  0.27571  0.35127  0.24891  1.0000
  C   C226      1.0  0.27440  0.31733  0.26691  1.0000
  C   C227      1.0  0.23720  0.34221  0.26111  1.0000
  C   C228      1.0  0.26166  0.31616  0.24533  1.0000
  H   H370      1.0  0.25047  0.47608  0.33681  1.0000
  H   H371      1.0  0.25082  0.47807  0.31080  1.0000
  C   C229      1.0  0.25815  0.28993  0.25058  1.0000
  H   H372      1.0  0.27766  0.36180  0.25638  1.0000
  C   C230      1.0  0.17523  0.13560  0.45917  1.0000
  H   H373      1.0  0.26570  0.30208  0.27228  1.0000
  H   H374      1.0  0.27288  0.32857  0.27463  1.0000
  H   H375      1.0  0.17705  0.03056  0.29766  1.0000
  H   H376      1.0  0.24753  0.32470  0.23922  1.0000
  C   C231      1.0  0.04786  0.99163  0.31480  1.0000
  S   S69       1.0  0.20150  0.98727  0.23423  1.0000
  H   H377      1.0  0.28408  0.14285  0.35938  1.0000
  N   N17       1.0  0.27145  0.44384  0.33059  1.0000
  H   H378      1.0  0.15279  0.07080  0.45668  1.0000
  C   C232      1.0  0.20451  0.09219  0.47358  1.0000
  H   H379      1.0  0.28068  0.43086  0.39645  1.0000
  Fe  Fe34      1.0  0.10623  0.00696  0.37363  1.0000
  H   H380      1.0  0.23347  0.44628  0.39306  1.0000
  C   C233      1.0  0.15916  0.01515  0.41709  1.0000
  C   C234      1.0  0.13816  0.01876  0.41155  1.0000
  H   H381      1.0  0.15890  0.02189  0.42610  1.0000
  H   H382      1.0  0.30566  0.37878  0.35573  1.0000
  C   C235      1.0  0.20004  0.05550  0.25122  1.0000
  H   H383      1.0  0.10203  0.46054  0.31372  1.0000
  H   H384      1.0  0.27386  0.47191  0.42535  1.0000
  C   C236      1.0  0.01630  0.99396  0.35204  1.0000
  H   H385      1.0  0.20740  0.06343  0.24093  1.0000
  S   S70       1.0  0.11106  0.01457  0.39351  1.0000
  C   C237      1.0  0.29901  0.10330  0.38674  1.0000
  H   H386      1.0  0.13439  0.40202  0.34409  1.0000
  H   H387      1.0  0.12951  0.43158  0.35798  1.0000
  H   H388      1.0  0.21343  0.08166  0.25836  1.0000
  C   C238      1.0  0.15433  0.10932  0.45202  1.0000
  H   H389      1.0  0.26141  0.36002  0.22990  1.0000
  C   C239      1.0  0.24833  0.42731  0.35342  1.0000
  C   C240      1.0  0.18038  0.00273  0.41100  1.0000
  H   H390      1.0  0.27606  0.48077  0.32457  1.0000
  H   H391      1.0  0.30606  0.25669  0.34365  1.0000
  H   H392      1.0  0.22537  0.06565  0.27851  1.0000
  C   C241      1.0  0.26957  0.46851  0.33371  1.0000
  C   C242      1.0  0.27103  0.42472  0.34280  1.0000
  H   H393      1.0  0.22211  0.08204  0.46982  1.0000
  H   H394      1.0  0.23316  0.44845  0.33098  1.0000
  H   H395      1.0  0.21005  0.10108  0.28420  1.0000
  C   C243      1.0  0.19661  0.07414  0.26043  1.0000
  C   C244      1.0  0.29832  0.13918  0.33897  1.0000
  H   H396      1.0  0.24791  0.28635  0.26074  1.0000
  C   C245      1.0  0.25024  0.44327  0.32431  1.0000
  C   C246      1.0  0.06990  0.44807  0.33735  1.0000
  H   H397      1.0  0.20307  0.33565  0.27285  1.0000
  H   H398      1.0  0.22350  0.43460  0.24915  1.0000
  H   H399      1.0  0.30603  0.06709  0.36464  1.0000
  H   H400      1.0  0.28647  0.42314  0.34787  1.0000
  C   C247      1.0  0.21996  0.32504  0.26855  1.0000
  H   H401      1.0  0.13338  0.45193  0.31334  1.0000
  H   H402      1.0  0.20724  0.05304  0.29253  1.0000
  H   H403      1.0  0.04738  0.42031  0.34664  1.0000
  H   H404      1.0  0.17313  0.08312  0.29236  1.0000
  C   C248      1.0  0.26513  0.36901  0.23753  1.0000
  H   H405      1.0  0.02238  0.99308  0.28494  1.0000
  H   H406      1.0  0.08467  0.39992  0.35003  1.0000
  C   C249      1.0  0.25082  0.44637  0.23318  1.0000
  C   C250      1.0  0.22355  0.02951  0.27834  1.0000
  H   H407      1.0  0.17683  0.03456  0.27261  1.0000
  C   C251      1.0  0.17080  0.05022  0.27773  1.0000
  S   S71       1.0  0.09543  0.99731  0.33929  1.0000
  C   C252      1.0  0.29605  0.26203  0.33526  1.0000
  H   H408      1.0  0.30063  0.06533  0.38888  1.0000
  H   H409      1.0  0.16149  0.09645  0.27761  1.0000
  N   N18       1.0  0.18957  0.06600  0.27522  1.0000
  C   C253      1.0  0.17836  0.08786  0.28141  1.0000
  H   H410      1.0  0.23776  0.03115  0.26944  1.0000
  C   C254      1.0  0.21121  0.05427  0.28151  1.0000
  H   H411      1.0  0.26874  0.24277  0.36210  1.0000
  H   H412      1.0  0.25391  0.45164  0.43301  1.0000
  C   C255      1.0  0.29983  0.11354  0.42052  1.0000
  H   H413      1.0  0.18815  0.13703  0.43750  1.0000
  C   C256      1.0  0.31476  0.07125  0.42395  1.0000
  C   C257      1.0  0.19406  0.10735  0.27931  1.0000
  C   C258      1.0  0.19476  0.13777  0.44668  1.0000
  H   H414      1.0  0.21273  0.03929  0.25408  1.0000
  H   H415      1.0  0.28652  0.10754  0.37948  1.0000
  H   H416      1.0  0.29842  0.31247  0.36816  1.0000
  H   H417      1.0  0.25178  0.41548  0.36290  1.0000
  C   C259      1.0  0.29378  0.43761  0.32078  1.0000
  C   C260      1.0  0.18644  0.09118  0.46470  1.0000
  C   C261      1.0  0.30564  0.45046  0.38193  1.0000
  H   H418      1.0  0.11517  0.42931  0.31612  1.0000
  H   H419      1.0  0.23116  0.46428  0.37721  1.0000
  Fe  Fe35      1.0  0.23790  0.99200  0.46125  1.0000
  S   S72       1.0  0.20202  0.98847  0.45731  1.0000
  C   C262      1.0  0.27427  0.22322  0.36443  1.0000
  H   H420      1.0  0.29801  0.45671  0.34676  1.0000
  H   H421      1.0  0.18254  0.14009  0.46725  1.0000
  H   H422      1.0  0.31159  0.32625  0.35219  1.0000
  H   H423      1.0  0.30921  0.45529  0.44609  1.0000
  H   H424      1.0  0.12559  0.08917  0.46313  1.0000
  C   C263      1.0  0.32018  0.45036  0.43703  1.0000
  C   C264      1.0  0.31926  0.37598  0.33510  1.0000
  H   H425      1.0  0.01674  0.47446  0.38367  1.0000
  S   S73       1.0  0.07573  0.98956  0.37188  1.0000
  C   C265      1.0  0.32084  0.14788  0.35434  1.0000
  C   C266      1.0  0.09884  0.98943  0.30150  1.0000
  H   H426      1.0  0.30971  0.22048  0.35343  1.0000
  H   H427      1.0  0.26125  0.45224  0.30253  1.0000
  H   H428      1.0  0.17418  0.47929  0.28574  1.0000
  H   H429      1.0  0.31785  0.30806  0.33501  1.0000
  H   H430      1.0  0.05236  0.98725  0.32507  1.0000
  C   C267      1.0  0.24843  0.45966  0.31074  1.0000
  H   H431      1.0  0.31973  0.45687  0.32504  1.0000
  C   C268      1.0  0.31874  0.09471  0.41885  1.0000
  H   H432      1.0  0.27823  0.38091  0.23241  1.0000
  H   H433      1.0  0.26988  0.47217  0.35434  1.0000
  H   H434      1.0  0.01073  0.98415  0.32161  1.0000
  H   H435      1.0  0.15956  0.99085  0.38479  1.0000
  C   C269      1.0  0.31770  0.43837  0.32484  1.0000
  H   H436      1.0  0.13049  0.12237  0.47336  1.0000
  H   H437      1.0  0.20822  0.11018  0.47332  1.0000
  H   H438      1.0  0.11838  0.98326  0.30099  1.0000
  C   C270      1.0  0.01766  0.48177  0.37318  1.0000
  H   H439      1.0  0.32190  0.45684  0.38301  1.0000
  S   S74       1.0  0.16002  0.48037  0.32541  1.0000
  H   H440      1.0  0.32232  0.32827  0.36692  1.0000
  Fe  Fe36      1.0  0.28345  0.04958  0.69671  1.0000
  S   S75       1.0  0.24705  0.06415  0.70664  1.0000
  Fe  Fe37      1.0  0.26261  0.02172  0.68006  1.0000
  S   S76       1.0  0.22488  0.03445  0.68916  1.0000
  H   H441      1.0  0.00990  0.09435  0.61852  1.0000
  Fe  Fe38      1.0  0.23641  0.07026  0.68634  1.0000
  S   S77       1.0  0.22202  0.10648  0.67526  1.0000
  Fe  Fe39      1.0  0.23958  0.02692  0.70848  1.0000
  C   C271      1.0  0.13206  0.46680  0.58001  1.0000
  S   S78       1.0  0.27360  0.05780  0.67624  1.0000
  Fe  Fe40      1.0  0.10295  0.17557  0.65281  1.0000
  S   S79       1.0  0.12836  0.18820  0.63453  1.0000
  S   S80       1.0  0.11355  0.14723  0.67001  1.0000
  Fe  Fe41      1.0  0.05915  0.20380  0.64171  1.0000
  S   S81       1.0  0.08144  0.21755  0.62262  1.0000
  S   S82       1.0  0.02035  0.22004  0.64220  1.0000
  Fe  Fe42      1.0  0.10178  0.18048  0.62351  1.0000
  S   S83       1.0  0.11265  0.16464  0.60451  1.0000
  Fe  Fe43      1.0  0.10537  0.22429  0.63546  1.0000
  S   S84       1.0  0.11634  0.26098  0.62881  1.0000
  S   S85       1.0  0.07753  0.16599  0.64164  1.0000
  S   S86       1.0  0.08195  0.21229  0.65467  1.0000
  Fe  Fe44      1.0  0.12529  0.41865  0.63466  1.0000
  S   S87       1.0  0.10801  0.44786  0.64618  1.0000
  S   S88       1.0  0.14850  0.42831  0.61489  1.0000
  Fe  Fe45      1.0  0.10897  0.37963  0.65711  1.0000
  S   S89       1.0  0.09101  0.40618  0.67069  1.0000
  S   S90       1.0  0.10929  0.33993  0.66456  1.0000
  Fe  Fe46      1.0  0.07733  0.42723  0.65221  1.0000
  S   S91       1.0  0.03989  0.44631  0.64993  1.0000
  Fe  Fe47      1.0  0.12345  0.42463  0.66349  1.0000
  S   S92       1.0  0.15088  0.43562  0.67333  1.0000
  S   S93       1.0  0.09363  0.39978  0.63912  1.0000
  S   S94       1.0  0.14228  0.39604  0.65147  1.0000
  Fe  Fe48      1.0  0.09093  0.01905  0.55999  1.0000
  S   S95       1.0  0.11695  0.04207  0.56101  1.0000
  H   H442      1.0  0.13995  0.03639  0.59136  1.0000
  Fe  Fe49      1.0  0.04934  0.06036  0.55892  1.0000
  S   S96       1.0  0.07274  0.08702  0.55916  1.0000
  S   S97       1.0  0.00906  0.07243  0.56169  1.0000
  Fe  Fe50      1.0  0.09989  0.06692  0.54475  1.0000
  S   S98       1.0  0.12641  0.08172  0.52739  1.0000
  Fe  Fe51      1.0  0.08781  0.05991  0.57529  1.0000
  S   S99       1.0  0.09154  0.06634  0.59563  1.0000
  S   S100      1.0  0.07512  0.04288  0.54301  1.0000
  S   S101      1.0  0.06323  0.03415  0.57581  1.0000
  C   C272      1.0  0.14453  0.45509  0.59039  1.0000
  C   C273      1.0  0.13388  0.06697  0.51349  1.0000
  C   C274      1.0  0.15754  0.06377  0.50673  1.0000
  C   C275      1.0  0.16383  0.05178  0.49571  1.0000
  C   C276      1.0  0.14628  0.04387  0.49104  1.0000
  C   C277      1.0  0.12262  0.04729  0.49772  1.0000
  C   C278      1.0  0.11647  0.05856  0.50898  1.0000
  H   H443      1.0  0.17111  0.07014  0.51023  1.0000
  C   C279      1.0  0.14978  0.03231  0.59994  1.0000
  H   H444      1.0  0.10896  0.04113  0.49419  1.0000
  H   H445      1.0  0.09815  0.06115  0.51403  1.0000
  H   H446      1.0  0.02597  0.99636  0.58549  1.0000
  H   H447      1.0  0.03168  0.46091  0.58645  1.0000
  H   H448      1.0  0.01036  0.05037  0.53859  1.0000
  C   C280      1.0  0.09710  0.45003  0.59182  1.0000
  C   C281      1.0  0.22851  0.42455  0.71604  1.0000
  C   C282      1.0  0.01744  0.42827  0.65315  1.0000
  C   C283      1.0  0.02015  0.40586  0.66123  1.0000
  H   H449      1.0  0.09095  0.00801  0.62196  1.0000
  N   N19       1.0  0.28270  0.14048  0.68755  1.0000
  H   H450      1.0  0.03638  0.39921  0.66537  1.0000
  H   H451      1.0  0.13971  0.11840  0.49611  1.0000
  C   C284      1.0  0.09553  0.09455  0.59788  1.0000
  C   C285      1.0  0.09122  0.10004  0.61081  1.0000
  C   C286      1.0  0.09523  0.12200  0.61296  1.0000
  C   C287      1.0  0.10441  0.13824  0.60221  1.0000
  C   C288      1.0  0.10860  0.13275  0.58930  1.0000
  C   C289      1.0  0.10392  0.11113  0.58711  1.0000
  H   H452      1.0  0.08479  0.08724  0.61920  1.0000
  H   H453      1.0  0.09195  0.12605  0.62295  1.0000
  H   H454      1.0  0.11575  0.14521  0.58094  1.0000
  H   H455      1.0  0.10740  0.10707  0.57711  1.0000
  C   C290      1.0  0.11304  0.28264  0.63911  1.0000
  C   C291      1.0  0.11143  0.30675  0.63320  1.0000
  C   C292      1.0  0.10933  0.32459  0.64094  1.0000
  C   C293      1.0  0.10976  0.31837  0.65461  1.0000
  C   C294      1.0  0.11106  0.29428  0.66056  1.0000
  C   C295      1.0  0.11257  0.27648  0.65286  1.0000
  H   H456      1.0  0.11151  0.31159  0.62259  1.0000
  H   H457      1.0  0.10775  0.34312  0.63632  1.0000
  H   H458      1.0  0.11129  0.28932  0.67115  1.0000
  H   H459      1.0  0.11391  0.25796  0.65752  1.0000
  H   H460      1.0  0.26946  0.11487  0.67938  1.0000
  H   H461      1.0  0.01966  0.17382  0.65931  1.0000
  H   H462      1.0  0.26594  0.15370  0.67010  1.0000
  C   C296      1.0  0.13305  0.44149  0.60168  1.0000
  C   C297      1.0  0.10926  0.43910  0.60243  1.0000
  H   H463      1.0  0.20917  0.46564  0.72508  1.0000
  H   H464      1.0  0.10030  0.42865  0.61111  1.0000
  H   H465      1.0  0.16457  0.01230  0.57706  1.0000
  H   H466      1.0  0.03525  0.12333  0.62339  1.0000
  H   H467      1.0  0.99734  0.99505  0.54669  1.0000
  H   H468      1.0  0.19888  0.08399  0.48405  1.0000
  H   H469      1.0  0.28086  0.08568  0.71813  1.0000
  C   C298      1.0  0.17550  0.01119  0.52923  1.0000
  C   C299      1.0  0.15247  0.45966  0.68122  1.0000
  N   N20       1.0  0.20536  0.42920  0.72565  1.0000
  H   H470      1.0  0.02619  0.17179  0.59915  1.0000
  H   H471      1.0  0.04449  0.26615  0.62300  1.0000
  C   C300      1.0  0.12574  0.00095  0.60971  1.0000
  H   H472      1.0  0.04157  0.08756  0.61441  1.0000
  C   C301      1.0  0.19170  0.11746  0.67412  1.0000
  C   C302      1.0  0.17338  0.10543  0.68148  1.0000
  C   C303      1.0  0.14944  0.11498  0.68030  1.0000
  C   C304      1.0  0.14372  0.13631  0.67156  1.0000
  C   C305      1.0  0.16208  0.14821  0.66414  1.0000
  C   C306      1.0  0.18594  0.13892  0.66552  1.0000
  H   H473      1.0  0.17761  0.08894  0.68818  1.0000
  H   H474      1.0  0.13530  0.10572  0.68610  1.0000
  H   H475      1.0  0.15788  0.16475  0.65748  1.0000
  H   H476      1.0  0.20003  0.14836  0.65983  1.0000
  H   H477      1.0  0.26760  0.12847  0.70801  1.0000
  H   H478      1.0  0.18278  0.04155  0.60356  1.0000
  C   C307      1.0  0.23846  0.13760  0.69702  1.0000
  H   H479      1.0  0.14446  0.09363  0.47992  1.0000
  H   H480      1.0  0.24400  0.42646  0.72040  1.0000
  H   H481      1.0  0.16312  0.41056  0.71162  1.0000
  H   H482      1.0  0.00792  0.14565  0.59202  1.0000
  C   C308      1.0  0.15325  0.12241  0.48709  1.0000
  H   H483      1.0  0.23860  0.11840  0.69730  1.0000
  C   C309      1.0  0.18090  0.98410  0.50782  1.0000
  H   H484      1.0  0.06468  0.28135  0.65238  1.0000
  H   H485      1.0  0.00353  0.37537  0.67089  1.0000
  H   H486      1.0  0.23344  0.14781  0.68750  1.0000
  H   H487      1.0  0.02126  0.42865  0.57832  1.0000
  C   C310      1.0  0.02566  0.10068  0.61195  1.0000
  H   H488      1.0  0.28621  0.99053  0.52849  1.0000
  H   H489      1.0  0.16849  0.02496  0.53571  1.0000
  H   H490      1.0  0.03771  0.19044  0.61602  1.0000
  N   N21       1.0  0.01542  0.48158  0.56984  1.0000
  H   H491      1.0  0.00180  0.18398  0.61052  1.0000
  H   H492      1.0  0.18510  0.99076  0.59614  1.0000
  C   C311      1.0  0.28527  0.11635  0.68354  1.0000
  H   H493      1.0  0.23356  0.45889  0.70350  1.0000
  C   C312      1.0  0.99910  0.99245  0.57371  1.0000
  H   H494      1.0  0.13933  0.04422  0.60694  1.0000
  C   C313      1.0  0.04618  0.28679  0.65745  1.0000
  H   H495      1.0  0.02482  0.10031  0.60141  1.0000
  H   H496      1.0  0.18110  0.00484  0.61601  1.0000
  H   H497      1.0  0.99760  0.29680  0.66030  1.0000
  H   H498      1.0  0.14088  0.47753  0.57138  1.0000
  H   H499      1.0  0.19809  0.09123  0.65152  1.0000
  H   H500      1.0  0.11469  0.46935  0.68745  1.0000
  H   H501      1.0  0.14382  0.01751  0.52094  1.0000
  H   H502      1.0  0.18972  0.41990  0.70224  1.0000
  H   H503      1.0  0.19714  0.98501  0.51164  1.0000
  C   C314      1.0  0.99085  0.14480  0.62611  1.0000
  H   H504      1.0  0.10690  0.03228  0.61893  1.0000
  H   H505      1.0  0.16637  0.44068  0.71039  1.0000
  H   H506      1.0  0.03507  0.25197  0.65843  1.0000
  C   C315      1.0  0.10839  0.46411  0.58067  1.0000
  C   C316      1.0  0.15974  0.99521  0.58284  1.0000
  H   H507      1.0  0.04417  0.13019  0.60583  1.0000
  H   H508      1.0  0.05012  0.25364  0.67144  1.0000
  H   H509      1.0  0.16292  0.45704  0.58980  1.0000
  H   H510      1.0  0.18221  0.04853  0.49087  1.0000
  C   C317      1.0  0.17409  0.04091  0.59508  1.0000
  H   H511      1.0  0.02819  0.01099  0.55229  1.0000
  H   H512      1.0  0.00920  0.32013  0.66366  1.0000
  C   C318      1.0  0.99328  0.04939  0.54502  1.0000
  H   H513      1.0  0.19570  0.39567  0.72426  1.0000
  H   H514      1.0  0.24764  0.43370  0.69592  1.0000
  C   C319      1.0  0.13222  0.47286  0.68772  1.0000
  C   C320      1.0  0.17512  0.46439  0.68180  1.0000
  H   H515      1.0  0.04818  0.29682  0.66511  1.0000
  H   H516      1.0  0.17086  0.11467  0.48991  1.0000
  N   N22       1.0  0.16140  0.10195  0.63364  1.0000
  C   C321      1.0  0.15091  0.09328  0.64793  1.0000
  C   C322      1.0  0.18786  0.09261  0.63201  1.0000
  C   C323      1.0  0.15034  0.09108  0.62485  1.0000
  C   C324      1.0  0.15558  0.12881  0.63089  1.0000
  C   C325      1.0  0.12346  0.09893  0.65166  1.0000
  C   C326      1.0  0.20158  0.10075  0.64111  1.0000
  C   C327      1.0  0.15828  0.09763  0.60971  1.0000
  C   C328      1.0  0.17208  0.14210  0.61939  1.0000
  H   H517      1.0  0.15620  0.07364  0.65065  1.0000
  H   H518      1.0  0.15805  0.10121  0.65487  1.0000
  H   H519      1.0  0.19703  0.09727  0.62166  1.0000
  H   H520      1.0  0.19110  0.07275  0.63397  1.0000
  H   H521      1.0  0.15359  0.07128  0.62747  1.0000
  H   H522      1.0  0.13067  0.09652  0.62644  1.0000
  H   H523      1.0  0.13696  0.13464  0.62886  1.0000
  H   H524      1.0  0.15599  0.13617  0.63994  1.0000
  H   H525      1.0  0.11446  0.08736  0.64770  1.0000
  H   H526      1.0  0.11844  0.09531  0.66270  1.0000
  H   H527      1.0  0.11630  0.11790  0.64841  1.0000
  H   H528      1.0  0.22109  0.09630  0.63761  1.0000
  H   H529      1.0  0.19732  0.12019  0.64105  1.0000
  C   C329      1.0  0.02709  0.28849  0.63778  1.0000
  H   H530      1.0  0.15291  0.11689  0.60614  1.0000
  H   H531      1.0  0.14878  0.08833  0.60457  1.0000
  H   H532      1.0  0.17765  0.09201  0.60652  1.0000
  H   H533      1.0  0.16095  0.15726  0.61392  1.0000
  H   H534      1.0  0.18249  0.13153  0.61183  1.0000
  H   H535      1.0  0.18427  0.15033  0.62340  1.0000
  N   N23       1.0  0.03120  0.30234  0.64769  1.0000
  H   H536      1.0  0.18649  0.02996  0.58822  1.0000
  C   C330      1.0  0.04435  0.32231  0.64025  1.0000
  C   C331      1.0  0.23120  0.44099  0.70237  1.0000
  H   H537      1.0  0.17108  0.05934  0.58945  1.0000
  H   H538      1.0  0.27038  0.00450  0.51024  1.0000
  C   C332      1.0  0.04543  0.34155  0.64832  1.0000
  H   H539      1.0  0.05023  0.47103  0.53907  1.0000
  H   H540      1.0  0.05188  0.16026  0.61637  1.0000
  H   H541      1.0  0.07882  0.44786  0.59233  1.0000
  H   H542      1.0  0.32026  0.99150  0.51165  1.0000
  H   H543      1.0  0.03686  0.33148  0.63115  1.0000
  H   H544      1.0  0.06313  0.31514  0.63639  1.0000
  H   H545      1.0  0.24601  0.18685  0.67836  1.0000
  H   H546      1.0  0.27256  0.98968  0.72521  1.0000
  C   C333      1.0  0.16571  0.99034  0.59706  1.0000
  H   H547      1.0  0.11488  0.00579  0.63078  1.0000
  C   C334      1.0  0.01678  0.16877  0.60967  1.0000
  H   H548      1.0  0.18545  0.02016  0.51992  1.0000
  C   C335      1.0  0.19549  0.45548  0.72401  1.0000
  H   H549      1.0  0.05659  0.35445  0.64200  1.0000
  H   H550      1.0  0.02754  0.35191  0.65124  1.0000
  H   H551      1.0  0.05386  0.33403  0.65727  1.0000
  S   S102      1.0  0.27662  0.01203  0.69947  1.0000
  C   C336      1.0  0.00734  0.31171  0.65526  1.0000
  C   C337      1.0  0.00152  0.39237  0.66433  1.0000
  S   S103      1.0  0.15303  0.02918  0.47712  1.0000
  H   H552      1.0  0.22420  0.14314  0.70521  1.0000
  C   C338      1.0  0.01043  0.00665  0.58113  1.0000
  N   N24       1.0  0.17704  0.35507  0.61816  1.0000
  C   C339      1.0  0.16287  0.34278  0.63058  1.0000
  C   C340      1.0  0.15924  0.36824  0.60932  1.0000
  C   C341      1.0  0.18884  0.37271  0.62229  1.0000
  C   C342      1.0  0.19539  0.33648  0.61185  1.0000
  C   C343      1.0  0.17664  0.33051  0.64206  1.0000
  C   C344      1.0  0.14541  0.35258  0.60437  1.0000
  C   C345      1.0  0.20405  0.38781  0.61116  1.0000
  C   C346      1.0  0.20587  0.34323  0.59691  1.0000
  H   H553      1.0  0.14760  0.35554  0.63486  1.0000
  H   H554      1.0  0.15489  0.32860  0.62817  1.0000
  H   H555      1.0  0.16736  0.37969  0.60042  1.0000
  H   H556      1.0  0.14559  0.38096  0.61469  1.0000
  H   H557      1.0  0.17518  0.38529  0.62771  1.0000
  H   H558      1.0  0.20117  0.36360  0.62935  1.0000
  H   H559      1.0  0.21066  0.33088  0.61742  1.0000
  H   H560      1.0  0.18771  0.31997  0.61273  1.0000
  H   H561      1.0  0.16497  0.31958  0.64965  1.0000
  H   H562      1.0  0.19308  0.31838  0.63871  1.0000
  H   H563      1.0  0.18083  0.34372  0.64725  1.0000
  H   H564      1.0  0.15722  0.33776  0.59992  1.0000
  H   H565      1.0  0.13185  0.34541  0.61250  1.0000
  H   H566      1.0  0.13551  0.36376  0.59658  1.0000
  H   H567      1.0  0.21016  0.40089  0.61565  1.0000
  H   H568      1.0  0.19392  0.39850  0.60340  1.0000
  H   H569      1.0  0.22037  0.37679  0.60666  1.0000
  H   H570      1.0  0.22563  0.33830  0.59549  1.0000
  H   H571      1.0  0.20196  0.36225  0.59260  1.0000
  H   H572      1.0  0.19971  0.33269  0.59082  1.0000
  C   C347      1.0  0.02885  0.12554  0.61372  1.0000
  H   H573      1.0  0.28594  0.10194  0.69239  1.0000
  C   C348      1.0  0.00302  0.17928  0.65548  1.0000
  H   H574      1.0  0.25927  0.15908  0.70281  1.0000
  H   H575      1.0  0.21615  0.44278  0.69704  1.0000
  H   H576      1.0  0.05964  0.26115  0.63683  1.0000
  H   H577      1.0  0.19138  0.46255  0.71386  1.0000
  C   C349      1.0  0.03691  0.26387  0.66513  1.0000
  H   H578      1.0  0.30498  0.17985  0.69173  1.0000
  H   H579      1.0  0.29303  0.16334  0.70787  1.0000
  C   C350      1.0  0.99620  0.43675  0.64792  1.0000
  H   H580      1.0  0.06197  0.28746  0.62424  1.0000
  N   N25       1.0  0.00758  0.14529  0.61292  1.0000
  H   H581      1.0  0.01984  0.26777  0.67195  1.0000
  H   H582      1.0  0.19091  0.45435  0.67677  1.0000
  H   H583      1.0  0.18787  0.99725  0.53448  1.0000
  H   H584      1.0  0.02684  0.45284  0.55828  1.0000
  C   C351      1.0  0.99939  0.20057  0.64651  1.0000
  H   H585      1.0  0.04686  0.99441  0.56353  1.0000
  C   C352      1.0  0.01401  0.46495  0.58304  1.0000
  C   C353      1.0  0.17758  0.48160  0.68905  1.0000
  C   C354      1.0  0.99526  0.14404  0.60165  1.0000
  C   C355      1.0  0.30591  0.14178  0.69167  1.0000
  H   H586      1.0  0.00173  0.43208  0.59367  1.0000
  H   H587      1.0  0.01741  0.30050  0.63010  1.0000
  H   H588      1.0  0.02711  0.16834  0.62919  1.0000
  H   H589      1.0  0.14068  0.99504  0.58288  1.0000
  H   H590      1.0  0.05048  0.46164  0.56369  1.0000
  H   H591      1.0  0.01521  0.27519  0.64264  1.0000
  H   H592      1.0  0.15332  0.01628  0.62501  1.0000
  H   H593      1.0  0.22383  0.99147  0.67212  1.0000
  C   C356      1.0  0.26267  0.14179  0.69930  1.0000
  C   C357      1.0  0.98993  0.32898  0.64686  1.0000
  C   C358      1.0  0.26546  0.18444  0.67855  1.0000
  C   C359      1.0  0.04977  0.27524  0.63013  1.0000
  H   H594      1.0  0.13721  0.99716  0.50392  1.0000
  C   C360      1.0  0.03333  0.46866  0.55988  1.0000
  H   H595      1.0  0.23211  0.40587  0.71416  1.0000
  H   H596      1.0  0.98910  0.47466  0.55961  1.0000
  C   C361      1.0  0.27780  0.15940  0.67568  1.0000
  H   H597      1.0  0.99402  0.45404  0.64164  1.0000
  H   H598      1.0  0.99875  0.34174  0.63896  1.0000
  C   C362      1.0  0.16202  0.00251  0.61872  1.0000
  N   N26       1.0  0.15082  0.00652  0.60638  1.0000
  C   C363      1.0  0.11388  0.98346  0.52141  1.0000
  H   H599      1.0  0.00081  0.14401  0.63432  1.0000
  H   H600      1.0  0.26819  0.18899  0.68787  1.0000
  S   S104      1.0  0.27391  0.99792  0.66413  1.0000
  H   H601      1.0  0.11668  0.00654  0.60083  1.0000
  H   H602      1.0  0.15158  0.14210  0.48465  1.0000
  C   C364      1.0  0.03430  0.17177  0.61842  1.0000
  C   C365      1.0  0.29810  0.08923  0.71891  1.0000
  C   C366      1.0  0.10901  0.01260  0.62101  1.0000
  C   C367      1.0  0.17634  0.42224  0.71129  1.0000
  C   C368      1.0  0.03559  0.99244  0.55648  1.0000
  C   C369      1.0  0.30642  0.16263  0.69864  1.0000
  H   H603      1.0  0.00162  0.47312  0.59108  1.0000
  C   C370      1.0  0.18750  0.41470  0.72405  1.0000
  S   S105      1.0  0.09267  0.47772  0.56762  1.0000
  H   H604      1.0  0.10893  0.00023  0.52560  1.0000
  C   C371      1.0  0.00639  0.44090  0.58318  1.0000
  H   H605      1.0  0.17739  0.00143  0.50107  1.0000
  H   H606      1.0  0.99052  0.44299  0.57836  1.0000
  H   H607      1.0  0.30894  0.12367  0.66411  1.0000
  C   C372      1.0  0.27774  0.99263  0.50278  1.0000
  H   H608      1.0  0.26379  0.99403  0.49657  1.0000
  H   H609      1.0  0.29322  0.99921  0.49590  1.0000
  C   C373      1.0  0.15422  0.00180  0.52643  1.0000
  H   H610      1.0  0.14257  0.99740  0.53620  1.0000
  S   S106      1.0  0.31763  0.05695  0.70170  1.0000
  H   H611      1.0  0.31167  0.12524  0.69852  1.0000
  H   H612      1.0  0.01592  0.02270  0.57440  1.0000
  H   H613      1.0  0.30579  0.09317  0.66974  1.0000
  H   H614      1.0  0.06697  0.99285  0.54108  1.0000
  H   H615      1.0  0.99684  0.01311  0.58936  1.0000
  C   C374      1.0  0.31884  0.07724  0.71214  1.0000
  H   H616      1.0  0.29459  0.16152  0.66848  1.0000
  H   H617      1.0  0.27243  0.19805  0.67032  1.0000
  C   C375      1.0  0.30735  0.10969  0.67308  1.0000
  H   H618      1.0  0.10002  0.98351  0.51541  1.0000
  H   H619      1.0  0.98957  0.12656  0.60265  1.0000
  H   H620      1.0  0.32056  0.14266  0.68292  1.0000
  S   S107      1.0  0.20950  0.03739  0.94597  1.0000
  Fe  Fe52      1.0  0.24826  0.03827  0.94543  1.0000
  S   S108      1.0  0.24173  0.05574  0.96357  1.0000
  C   C376      1.0  0.25167  0.04246  0.74355  1.0000
  H   H621      1.0  0.24056  0.03016  0.75045  1.0000
  H   H622      1.0  0.28718  0.27182  0.76383  1.0000
  H   H623      1.0  0.31000  0.43123  0.76686  1.0000
  S   S109      1.0  0.17140  0.08130  0.96719  1.0000
  H   H624      1.0  0.21808  0.14733  0.96922  1.0000
  H   H625      1.0  0.14291  0.00133  0.95513  1.0000
  S   S110      1.0  0.27107  0.05376  0.92659  1.0000
  H   H626      1.0  0.29558  0.40306  0.78614  1.0000
  H   H627      1.0  0.27688  0.06454  0.74364  1.0000
  Fe  Fe53      1.0  0.20336  0.05161  0.96525  1.0000
  H   H628      1.0  0.22095  0.02891  0.90522  1.0000
  H   H629      1.0  0.30240  0.07733  0.75338  1.0000
  H   H630      1.0  0.15929  0.99330  0.91767  1.0000
  C   C377      1.0  0.29400  0.03584  0.91741  1.0000
  H   H631      1.0  0.22722  0.39249  0.75338  1.0000
  C   C378      1.0  0.27975  0.19106  0.77974  1.0000
  H   H632      1.0  0.23151  0.99034  0.92215  1.0000
  C   C379      1.0  0.25294  0.24436  0.77771  1.0000
  H   H633      1.0  0.31762  0.26889  0.76639  1.0000
  H   H634      1.0  0.31857  0.41525  0.79009  1.0000
  N   N27       1.0  0.29636  0.22806  0.78232  1.0000
  H   H635      1.0  0.29819  0.99486  0.88360  1.0000
  C   C380      1.0  0.30934  0.22744  0.80499  1.0000
  H   H636      1.0  0.27559  0.01391  0.90104  1.0000
  H   H637      1.0  0.29570  0.04268  0.77024  1.0000
  H   H638      1.0  0.26079  0.19669  0.78394  1.0000
  H   H639      1.0  0.28259  0.19487  0.76872  1.0000
  H   H640      1.0  0.29319  0.00401  0.93212  1.0000
  C   C381      1.0  0.27049  0.04875  0.75031  1.0000
  S   S111      1.0  0.25544  0.00107  0.95648  1.0000
  H   H641      1.0  0.31715  0.40366  0.74851  1.0000
  C   C382      1.0  0.25816  0.01098  0.89930  1.0000
  H   H642      1.0  0.22195  0.43350  0.74177  1.0000
  H   H643      1.0  0.31141  0.99068  0.77237  1.0000
  H   H644      1.0  0.30179  0.98943  0.96450  1.0000
  H   H645      1.0  0.26087  0.05515  0.75969  1.0000
  H   H646      1.0  0.27973  0.44050  0.77334  1.0000
  C   C383      1.0  0.30593  0.06292  0.95306  1.0000
  N   N28       1.0  0.30383  0.46277  0.77595  1.0000
  H   H647      1.0  0.30479  0.03852  0.73209  1.0000
  C   C384      1.0  0.29027  0.43133  0.74057  1.0000
  C   C385      1.0  0.31949  0.99800  0.91468  1.0000
  H   H648      1.0  0.29533  0.01044  0.73652  1.0000
  H   H649      1.0  0.29103  0.23471  0.80949  1.0000
  H   H650      1.0  0.18967  0.18361  0.96789  1.0000
  H   H651      1.0  0.10503  0.00090  0.96847  1.0000
  C   C386      1.0  0.22397  0.39572  0.74294  1.0000
  H   H652      1.0  0.24459  0.98319  0.88517  1.0000
  C   C387      1.0  0.31372  0.42103  0.74246  1.0000
  H   H653      1.0  0.27353  0.26010  0.78767  1.0000
  H   H654      1.0  0.28768  0.42491  0.79679  1.0000
  H   H655      1.0  0.24171  0.39253  0.73657  1.0000
  C   C388      1.0  0.28095  0.00845  0.76199  1.0000
  C   C389      1.0  0.13955  0.03917  0.95205  1.0000
  C   C390      1.0  0.30560  0.23446  0.76761  1.0000
  H   H656      1.0  0.23679  0.23753  0.78370  1.0000
  H   H657      1.0  0.12050  0.04261  0.95094  1.0000
  H   H658      1.0  0.18243  0.00039  0.93384  1.0000
  H   H659      1.0  0.31410  0.46870  0.75448  1.0000
  H   H660      1.0  0.28342  0.11587  0.73144  1.0000
  H   H661      1.0  0.29880  0.02780  0.95301  1.0000
  H   H662      1.0  0.24322  0.04746  0.90177  1.0000
  C   C391      1.0  0.21087  0.42151  0.73964  1.0000
  C   C392      1.0  0.27200  0.24171  0.78669  1.0000
  H   H663      1.0  0.19043  0.13963  0.96791  1.0000
  H   H664      1.0  0.17299  0.22068  0.97183  1.0000
  H   H665      1.0  0.28337  0.17134  0.78250  1.0000
  H   H666      1.0  0.29172  0.19590  0.79676  1.0000
  C   C393      1.0  0.30467  0.02242  0.73998  1.0000
  C   C394      1.0  0.28558  0.45381  0.73264  1.0000
  C   C395      1.0  0.14660  0.01458  0.96049  1.0000
  C   C396      1.0  0.19955  0.14626  0.97450  1.0000
  C   C397      1.0  0.29961  0.10629  0.72648  1.0000
  H   H667      1.0  0.20879  0.00654  0.89173  1.0000
  C   C398      1.0  0.30530  0.26126  0.76219  1.0000
  C   C399      1.0  0.30137  0.01185  0.92237  1.0000
  H   H668      1.0  0.29090  0.06788  0.94735  1.0000
  H   H669      1.0  0.24709  0.26348  0.77389  1.0000
  H   H670      1.0  0.26929  0.01428  0.77107  1.0000
  H   H671      1.0  0.14391  0.21858  0.96865  1.0000
  C   C400      1.0  0.31636  0.06124  0.75314  1.0000
  C   C401      1.0  0.23941  0.02929  0.90631  1.0000
  H   H672      1.0  0.11421  0.30796  0.97313  1.0000
  H   H673      1.0  0.26429  0.23340  0.79686  1.0000
  H   H674      1.0  0.25836  0.01659  0.88839  1.0000
  C   C402      1.0  0.30016  0.41973  0.78790  1.0000
  H   H675      1.0  0.31475  0.25335  0.78742  1.0000
  H   H676      1.0  0.27570  0.42180  0.74527  1.0000
  Fe  Fe54      1.0  0.21600  0.00131  0.95842  1.0000
  S   S112      1.0  0.25566  0.46597  0.73087  1.0000
  H   H677      1.0  0.26930  0.00150  0.75692  1.0000
  H   H678      1.0  0.14370  0.05393  0.95603  1.0000
  H   H679      1.0  0.29935  0.06443  0.90089  1.0000
  H   H680      1.0  0.15016  0.03951  0.94186  1.0000
  N   N29       1.0  0.25578  0.98497  0.90353  1.0000
  H   H681      1.0  0.15288  0.18035  0.96364  1.0000
  H   H682      1.0  0.31326  0.20792  0.80839  1.0000
  C   C403      1.0  0.30492  0.04585  0.90476  1.0000
  Fe  Fe55      1.0  0.24663  0.01833  0.97488  1.0000
  C   C404      1.0  0.30298  0.47822  0.76246  1.0000
  H   H683      1.0  0.25976  0.03491  0.73438  1.0000
  C   C405      1.0  0.30888  0.03584  0.95854  1.0000
  H   H684      1.0  0.10019  0.03049  0.97089  1.0000
  N   N30       1.0  0.13457  0.01106  0.97490  1.0000
  H   H685      1.0  0.23922  0.05894  0.74052  1.0000
  H   H686      1.0  0.20653  0.99364  0.90909  1.0000
  H   H687      1.0  0.16637  0.01171  0.95980  1.0000
  H   H688      1.0  0.29592  0.22790  0.76132  1.0000
  H   H689      1.0  0.28765  0.46274  0.79663  1.0000
  C   C406      1.0  0.30624  0.03860  0.76050  1.0000
  C   C407      1.0  0.31396  0.23396  0.78963  1.0000
  C   C408      1.0  0.29885  0.98656  0.76675  1.0000
  H   H690      1.0  0.24069  0.02723  0.91701  1.0000
  C   C409      1.0  0.21248  0.98983  0.89889  1.0000
  H   H691      1.0  0.29898  0.03415  0.96895  1.0000
  H   H692      1.0  0.26941  0.47104  0.75811  1.0000
  H   H693      1.0  0.25852  0.23495  0.76909  1.0000
  H   H694      1.0  0.19427  0.42293  0.74717  1.0000
  N   N31       1.0  0.29122  0.02919  0.75308  1.0000
  S   S113      1.0  0.22164  0.00761  0.72800  1.0000
  H   H695      1.0  0.17589  0.46033  0.74413  1.0000
  C   C410      1.0  0.29663  0.20156  0.78584  1.0000
  C   C411      1.0  0.29818  0.43882  0.77533  1.0000
  H   H696      1.0  0.30467  0.46916  0.90626  1.0000
  H   H697      1.0  0.31168  0.26359  0.75125  1.0000
  H   H698      1.0  0.30053  0.07331  0.96137  1.0000
  H   H699      1.0  0.31506  0.19202  0.78302  1.0000
  H   H700      1.0  0.11387  0.19578  0.97614  1.0000
  C   C412      1.0  0.10827  0.01227  0.97517  1.0000
  H   H701      1.0  0.21312  0.38242  0.74228  1.0000
  H   H702      1.0  0.10124  0.27029  0.97253  1.0000
  C   C413      1.0  0.28579  0.47350  0.78664  1.0000
  H   H703      1.0  0.26726  0.47315  0.78533  1.0000
  C   C414      1.0  0.23929  0.98650  0.73837  1.0000
  C   C415      1.0  0.17830  0.98284  0.93437  1.0000
  H   H704      1.0  0.12785  0.11321  0.97309  1.0000
  H   H705      1.0  0.15105  0.15102  0.97208  1.0000
  C   C416      1.0  0.30455  0.46594  0.72656  1.0000
  H   H706      1.0  0.11159  0.17016  0.96984  1.0000
  C   C417      1.0  0.14726  0.16989  0.97362  1.0000
  C   C418      1.0  0.17260  0.46294  0.73375  1.0000
  H   H707      1.0  0.26188  0.98352  0.92358  1.0000
  H   H708      1.0  0.15778  0.45386  0.73325  1.0000
  H   H709      1.0  0.32166  0.02522  0.76323  1.0000
  H   H710      1.0  0.17243  0.41486  0.73259  1.0000
  H   H711      1.0  0.32181  0.23531  0.80902  1.0000
  C   C419      1.0  0.32186  0.11122  0.72761  1.0000
  S   S114      1.0  0.32226  0.13416  0.73649  1.0000
  H   H712      1.0  0.32146  0.06920  0.94623  1.0000
  H   H713      1.0  0.28756  0.96160  0.18636  1.0000
  H   H714      1.0  0.21599  0.89829  0.22436  1.0000
  C   C420      1.0  0.29926  0.58233  0.17039  1.0000
  C   C421      1.0  0.24790  0.49842  0.11217  1.0000
  H   H715      1.0  0.26813  0.49398  0.06542  1.0000
  S   S115      1.0  0.29466  0.52322  0.98794  1.0000
  C   C422      1.0  0.28761  0.50984  0.10652  1.0000
  C   C423      1.0  0.24731  0.62922  0.20216  1.0000
  C   C424      1.0  0.29404  0.48916  0.03292  1.0000
  Fe  Fe56      1.0  0.25997  0.53836  0.18326  1.0000
  S   S116      1.0  0.22064  0.54136  0.18369  1.0000
  S   S117      1.0  0.27369  0.57062  0.16983  1.0000
  H   H716      1.0  0.28493  0.63240  0.19605  1.0000
  H   H717      1.0  0.20577  0.92759  0.20668  1.0000
  Fe  Fe57      1.0  0.22909  0.50337  0.18011  1.0000
  Fe  Fe58      1.0  0.21803  0.52671  0.20546  1.0000
  C   C425      1.0  0.26798  0.51030  0.13524  1.0000
  H   H718      1.0  0.22390  0.50561  0.09771  1.0000
  S   S118      1.0  0.25692  0.52621  0.20535  1.0000
  H   H719      1.0  0.24003  0.61122  0.18075  1.0000
  S   S119      1.0  0.30791  0.57157  0.03535  1.0000
  C   C426      1.0  0.16427  0.57857  0.21120  1.0000
  H   H720      1.0  0.28775  0.51145  0.09566  1.0000
  H   H721      1.0  0.24281  0.48295  0.04589  1.0000
  H   H722      1.0  0.16943  0.57041  0.20235  1.0000
  S   S120      1.0  0.26866  0.50107  0.17870  1.0000
  S   S121      1.0  0.21364  0.49773  0.16259  1.0000
  H   H723      1.0  0.30973  0.55706  0.18724  1.0000
  H   H724      1.0  0.15370  0.94554  0.21482  1.0000
  H   H725      1.0  0.27388  0.61928  0.18491  1.0000
  H   H726      1.0  0.20597  0.66139  0.20885  1.0000
  H   H727      1.0  0.23389  0.91073  0.20010  1.0000
  C   C427      1.0  0.30423  0.48534  0.06927  1.0000
  H   H728      1.0  0.20192  0.48917  0.13879  1.0000
  H   H729      1.0  0.28371  0.49267  0.04271  1.0000
  C   C428      1.0  0.27290  0.62001  0.19558  1.0000
  C   C429      1.0  0.14075  0.61056  0.22273  1.0000
  H   H730      1.0  0.14051  0.60836  0.20230  1.0000
  H   H731      1.0  0.28014  0.60227  0.20083  1.0000
  N   N32       1.0  0.27347  0.49086  0.11430  1.0000
  H   H732      1.0  0.27907  0.52791  0.10865  1.0000
  H   H733      1.0  0.24290  0.64805  0.19725  1.0000
  H   H734      1.0  0.30156  0.92946  0.17266  1.0000
  C   C430      1.0  0.20250  0.61042  0.18485  1.0000
  H   H735      1.0  0.24679  0.51238  0.03708  1.0000
  H   H736      1.0  0.30844  0.57895  0.13715  1.0000
  H   H737      1.0  0.22512  0.94131  0.19294  1.0000
  C   C431      1.0  0.30443  0.55780  0.02224  1.0000
  C   C432      1.0  0.28358  0.56515  0.01652  1.0000
  H   H738      1.0  0.26401  0.56050  0.00177  1.0000
  H   H739      1.0  0.25158  0.58158  0.19834  1.0000
  H   H740      1.0  0.18957  0.65390  0.19755  1.0000
  C   C433      1.0  0.31931  0.53075  0.00623  1.0000
  Fe  Fe59      1.0  0.26169  0.48900  0.20109  1.0000
  C   C434      1.0  0.29818  0.53767  0.00074  1.0000
  H   H741      1.0  0.25317  0.51126  0.09033  1.0000
  H   H742      1.0  0.20207  0.61391  0.17398  1.0000
  H   H743      1.0  0.30815  0.50288  0.06498  1.0000
  C   C435      1.0  0.28032  0.55495  0.00593  1.0000
  C   C436      1.0  0.30717  0.56053  0.13639  1.0000
  S   S122      1.0  0.22416  0.53090  0.98479  1.0000
  C   C437      1.0  0.15857  0.94848  0.22381  1.0000
  H   H744      1.0  0.27511  0.90930  0.19821  1.0000
  H   H745      1.0  0.18535  0.61967  0.18970  1.0000
  C   C438      1.0  0.30502  0.60215  0.16089  1.0000
  H   H746      1.0  0.29360  0.61005  0.15356  1.0000
  C   C439      1.0  0.27386  0.48741  0.12905  1.0000
  H   H747      1.0  0.25277  0.94458  0.20587  1.0000
  H   H748      1.0  0.30862  0.70653  0.13096  1.0000
  C   C440      1.0  0.22424  0.61963  0.18724  1.0000
  H   H749      1.0  0.19240  0.61167  0.21130  1.0000
  H   H750      1.0  0.22476  0.95302  0.21540  1.0000
  H   H751      1.0  0.20359  0.59098  0.18810  1.0000
  C   C441      1.0  0.30642  0.95497  0.18399  1.0000
  H   H752      1.0  0.29832  0.75692  0.10322  1.0000
  N   N33       1.0  0.22845  0.61516  0.20147  1.0000
  H   H753      1.0  0.24790  0.63056  0.21261  1.0000
  C   C442      1.0  0.25918  0.48459  0.02457  1.0000
  C   C443      1.0  0.22483  0.92843  0.20244  1.0000
  H   H754      1.0  0.29263  0.50685  0.02642  1.0000
  C   C444      1.0  0.19441  0.64915  0.20764  1.0000
  C   C445      1.0  0.26320  0.89910  0.21987  1.0000
  H   H755      1.0  0.31668  0.95681  0.12785  1.0000
  C   C446      1.0  0.14783  0.59999  0.21122  1.0000
  H   H756      1.0  0.00187  0.48270  0.02298  1.0000
  C   C447      1.0  0.20605  0.62287  0.21082  1.0000
  C   C448      1.0  0.23627  0.58883  0.20558  1.0000
  H   H757      1.0  0.22219  0.63896  0.18303  1.0000
  H   H758      1.0  0.22204  0.57877  0.20520  1.0000
  C   C449      1.0  0.17425  0.96467  0.22297  1.0000
  H   H759      1.0  0.31317  0.77105  0.11240  1.0000
  H   H760      1.0  0.26790  0.50536  0.14615  1.0000
  H   H761      1.0  0.29969  0.96391  0.14893  1.0000
  H   H762      1.0  0.26975  0.57869  0.02038  1.0000
  H   H763      1.0  0.16699  0.49802  0.98625  1.0000
  C   C450      1.0  0.23703  0.93728  0.21199  1.0000
  H   H764      1.0  0.30289  0.48417  0.00808  1.0000
  C   C451      1.0  0.24225  0.49511  0.03621  1.0000
  C   C452      1.0  0.32076  0.70925  0.12124  1.0000
  H   H765      1.0  0.26108  0.49957  0.01601  1.0000
  H   H766      1.0  0.22362  0.49876  0.03425  1.0000
  H   H767      1.0  0.31773  0.49707  0.11794  1.0000
  H   H768      1.0  0.23621  0.48667  0.11906  1.0000
  H   H769      1.0  0.24080  0.51656  0.11460  1.0000
  H   H770      1.0  0.17750  0.65222  0.21482  1.0000
  C   C453      1.0  0.24316  0.49902  0.09800  1.0000
  C   C454      1.0  0.31441  0.93671  0.17625  1.0000
  C   C455      1.0  0.28242  0.90533  0.20764  1.0000
  S   S123      1.0  0.12067  0.63777  0.22239  1.0000
  C   C456      1.0  0.24222  0.58083  0.21983  1.0000
  H   H771      1.0  0.29093  0.92038  0.20826  1.0000
  S   S124      1.0  0.22260  0.48871  0.20218  1.0000
  C   C457      1.0  0.31422  0.50581  0.10790  1.0000
  N   N34       1.0  0.24365  0.91912  0.22379  1.0000
  H   H772      1.0  0.28834  0.55830  0.14046  1.0000
  H   H773      1.0  0.20951  0.61993  0.22123  1.0000
  C   C458      1.0  0.17366  0.56762  0.22274  1.0000
  H   H774      1.0  0.30954  0.71600  0.11340  1.0000
  S   S125      1.0  0.19419  0.54072  0.22340  1.0000
  H   H775      1.0  0.29685  0.88969  0.20683  1.0000
  H   H776      1.0  0.31045  0.55848  0.12576  1.0000
  H   H777      1.0  0.28153  0.52208  0.13119  1.0000
  H   H778      1.0  0.25561  0.88447  0.21760  1.0000
  H   H779      1.0  0.24993  0.52023  0.13399  1.0000
  H   H780      1.0  0.31246  0.78160  0.09523  1.0000
  H   H781      1.0  0.12716  0.48702  0.99655  1.0000
  H   H782      1.0  0.26981  0.95822  0.21897  1.0000
  H   H783      1.0  0.04077  0.48715  0.02402  1.0000
  H   H784      1.0  0.24811  0.59465  0.22371  1.0000
  H   H785      1.0  0.25720  0.56561  0.21990  1.0000
  H   H786      1.0  0.01557  0.48436  0.00609  1.0000
  H   H787      1.0  0.31204  0.62776  0.01181  1.0000
  H   H788      1.0  0.18139  0.97411  0.21338  1.0000
  C   C459      1.0  0.31402  0.57229  0.17987  1.0000
  H   H789      1.0  0.15109  0.94888  0.98212  1.0000
  H   H790      1.0  0.31749  0.54457  0.15519  1.0000
  H   H791      1.0  0.32031  0.52334  0.10612  1.0000
  C   C460      1.0  0.31425  0.76517  0.10281  1.0000
  H   H792      1.0  0.31948  0.52399  0.14435  1.0000
  H   H793      1.0  0.12202  0.96359  0.97921  1.0000
  C   C461      1.0  0.32226  0.54044  0.01707  1.0000
  C   C462      1.0  0.30545  0.98165  0.14644  1.0000
  Fe  Fe60      1.0  0.26333  0.52985  0.97663  1.0000
  C   C463      1.0  0.14121  0.96522  0.97681  1.0000
  H   H794      1.0  0.00304  0.91601  0.32874  1.0000
  S   S126      1.0  0.10879  0.53171  0.37198  1.0000
  C   C464      1.0  0.29375  0.61984  0.46880  1.0000
  S   S127      1.0  0.17022  0.49724  0.38579  1.0000
  S   S128      1.0  0.15718  0.52649  0.34890  1.0000
  Fe  Fe61      1.0  0.14556  0.50960  0.37018  1.0000
  C   C465      1.0  0.13237  0.52342  0.46175  1.0000
  Fe  Fe62      1.0  0.11946  0.54619  0.35021  1.0000
  S   S129      1.0  0.10733  0.58474  0.34187  1.0000
  N   N35       1.0  0.05941  0.97170  0.30711  1.0000
  S   S130      1.0  0.10539  0.51886  0.34284  1.0000
  Fe  Fe63      1.0  0.26402  0.56243  0.45026  1.0000
  S   S131      1.0  0.27590  0.52469  0.45965  1.0000
  S   S132      1.0  0.27041  0.59595  0.45640  1.0000
  Fe  Fe64      1.0  0.23318  0.54654  0.43321  1.0000
  S   S133      1.0  0.24280  0.50802  0.44173  1.0000
  S   S134      1.0  0.20798  0.56051  0.41809  1.0000
  Fe  Fe65      1.0  0.23724  0.52083  0.46143  1.0000
  C   C466      1.0  0.30144  0.96118  0.47239  1.0000
  Fe  Fe66      1.0  0.28024  0.51582  0.43898  1.0000
  H   H795      1.0  0.19401  0.49300  0.44320  1.0000
  S   S135      1.0  0.22534  0.55884  0.45302  1.0000
  S   S136      1.0  0.27064  0.55413  0.42948  1.0000
  Fe  Fe67      1.0  0.06682  0.89464  0.27759  1.0000
  S   S137      1.0  0.08658  0.87068  0.29304  1.0000
  S   S138      1.0  0.02694  0.90265  0.28507  1.0000
  Fe  Fe68      1.0  0.11284  0.89818  0.25738  1.0000
  S   S139      1.0  0.13540  0.87319  0.27118  1.0000
  H   H796      1.0  0.00050  0.85264  0.26504  1.0000
  Fe  Fe69      1.0  0.10574  0.85122  0.27627  1.0000
  S   S140      1.0  0.10901  0.81086  0.28242  1.0000
  Fe  Fe70      1.0  0.11409  0.89467  0.28660  1.0000
  S   S141      1.0  0.13450  0.91076  0.29797  1.0000
  S   S142      1.0  0.08478  0.87433  0.26102  1.0000
  S   S143      1.0  0.09269  0.92060  0.27257  1.0000
  Fe  Fe71      1.0  0.06493  0.65486  0.26520  1.0000
  S   S144      1.0  0.08361  0.67386  0.27589  1.0000
  S   S145      1.0  0.02868  0.64606  0.27542  1.0000
  Fe  Fe72      1.0  0.10644  0.65129  0.24197  1.0000
  S   S146      1.0  0.12801  0.67059  0.25058  1.0000
  C   C467      1.0  0.22152  0.90877  0.23075  1.0000
  Fe  Fe73      1.0  0.11604  0.64731  0.26987  1.0000
  S   S147      1.0  0.14413  0.62720  0.28205  1.0000
  Fe  Fe74      1.0  0.09374  0.69551  0.25573  1.0000
  S   S148      1.0  0.08920  0.73602  0.25046  1.0000
  S   S149      1.0  0.09652  0.62655  0.26095  1.0000
  S   S150      1.0  0.07286  0.67811  0.24539  1.0000
  H   H797      1.0  0.05652  0.94353  0.32428  1.0000
  H   H798      1.0  0.16935  0.57734  0.28094  1.0000
  S   S151      1.0  0.10052  0.93188  0.35690  1.0000
  H   H799      1.0  0.21454  0.54077  0.27477  1.0000
  H   H800      1.0  0.21170  0.57036  0.27792  1.0000
  H   H801      1.0  0.16576  0.48843  0.45274  1.0000
  C   C468      1.0  0.15019  0.59957  0.23424  1.0000
  H   H802      1.0  0.02362  0.79353  0.28021  1.0000
  C   C469      1.0  0.99964  0.49065  0.35314  1.0000
  H   H803      1.0  0.13361  0.53343  0.29910  1.0000
  H   H804      1.0  0.06692  0.93013  0.40268  1.0000
  H   H805      1.0  0.27274  0.89066  0.22837  1.0000
  H   H806      1.0  0.26304  0.48585  0.37855  1.0000
  H   H807      1.0  0.14028  0.94706  0.42014  1.0000
  H   H808      1.0  0.13461  0.95050  0.33504  1.0000
  C   C470      1.0  0.01548  0.71578  0.27249  1.0000
  H   H809      1.0  0.17726  0.52158  0.30669  1.0000
  H   H810      1.0  0.01526  0.78180  0.25942  1.0000
  C   C471      1.0  0.00397  0.83289  0.26667  1.0000
  C   C472      1.0  0.03328  0.77948  0.26195  1.0000
  C   C473      1.0  0.00877  0.64258  0.26547  1.0000
  C   C474      1.0  0.01401  0.64733  0.25155  1.0000
  H   H811      1.0  0.01397  0.70173  0.28146  1.0000
  H   H812      1.0  0.03119  0.65194  0.24666  1.0000
  C   C475      1.0  0.14903  0.93616  0.23622  1.0000
  C   C476      1.0  0.15533  0.94016  0.24779  1.0000
  C   C477      1.0  0.17104  0.95623  0.24695  1.0000
  H   H813      1.0  0.14818  0.93077  0.25740  1.0000
  H   H814      1.0  0.25371  0.51966  0.39530  1.0000
  C   C478      1.0  0.12528  0.91521  0.31462  1.0000
  C   C479      1.0  0.10834  0.90303  0.32346  1.0000
  C   C480      1.0  0.10104  0.90785  0.33655  1.0000
  C   C481      1.0  0.11032  0.92515  0.34072  1.0000
  C   C482      1.0  0.12724  0.93725  0.33188  1.0000
  C   C483      1.0  0.13493  0.93203  0.31895  1.0000
  H   H815      1.0  0.10108  0.88979  0.32024  1.0000
  H   H816      1.0  0.08803  0.89837  0.34339  1.0000
  C   C484      1.0  0.31144  0.62213  0.47582  1.0000
  H   H817      1.0  0.14812  0.94142  0.31217  1.0000
  C   C485      1.0  0.10438  0.79016  0.27319  1.0000
  C   C486      1.0  0.10265  0.79634  0.25967  1.0000
  C   C487      1.0  0.09844  0.77939  0.25280  1.0000
  C   C488      1.0  0.09606  0.75610  0.25935  1.0000
  C   C489      1.0  0.09777  0.74994  0.27288  1.0000
  C   C490      1.0  0.10204  0.76687  0.27973  1.0000
  H   H818      1.0  0.10469  0.81412  0.25450  1.0000
  H   H819      1.0  0.09708  0.78432  0.24234  1.0000
  H   H820      1.0  0.09529  0.73233  0.27809  1.0000
  H   H821      1.0  0.10323  0.76208  0.29020  1.0000
  H   H822      1.0  0.29782  0.97860  0.46640  1.0000
  C   C491      1.0  0.03829  0.49066  0.36607  1.0000
  N   N36       1.0  0.16171  0.54172  0.28225  1.0000
  C   C492      1.0  0.00686  0.89986  0.27498  1.0000
  C   C493      1.0  0.01217  0.90484  0.26108  1.0000
  H   H823      1.0  0.19071  0.51292  0.28709  1.0000
  C   C494      1.0  0.20325  0.55408  0.28069  1.0000
  H   H824      1.0  0.13932  0.56243  0.29659  1.0000
  H   H825      1.0  0.02911  0.91018  0.25627  1.0000
  H   H826      1.0  0.01508  0.83955  0.29053  1.0000
  N   N37       1.0  0.03041  0.82369  0.26470  1.0000
  H   H827      1.0  0.04614  0.85487  0.23238  1.0000
  C   C495      1.0  0.16158  0.49634  0.28614  1.0000
  H   H828      1.0  0.99890  0.81948  0.24880  1.0000
  C   C496      1.0  0.05557  0.97798  0.29280  1.0000
  H   H829      1.0  0.18233  0.52823  0.46025  1.0000
  C   C497      1.0  0.13344  0.61374  0.29829  1.0000
  C   C498      1.0  0.10898  0.61611  0.30327  1.0000
  C   C499      1.0  0.10100  0.60656  0.31660  1.0000
  C   C500      1.0  0.11739  0.59408  0.32485  1.0000
  C   C501      1.0  0.14181  0.59128  0.31975  1.0000
  C   C502      1.0  0.14982  0.60129  0.30653  1.0000
  H   H830      1.0  0.09623  0.62571  0.29697  1.0000
  H   H831      1.0  0.08209  0.60898  0.32057  1.0000
  H   H832      1.0  0.15452  0.58206  0.32616  1.0000
  H   H833      1.0  0.16876  0.59963  0.30273  1.0000
  C   C503      1.0  0.17971  0.51533  0.39490  1.0000
  C   C504      1.0  0.19281  0.50426  0.40514  1.0000
  C   C505      1.0  0.20161  0.51787  0.41230  1.0000
  C   C506      1.0  0.19737  0.54271  0.40929  1.0000
  C   C507      1.0  0.18385  0.55380  0.39925  1.0000
  C   C508      1.0  0.17508  0.54020  0.39206  1.0000
  H   H834      1.0  0.17372  0.56978  0.24316  1.0000
  H   H835      1.0  0.21151  0.50922  0.42019  1.0000
  H   H836      1.0  0.18030  0.57303  0.39692  1.0000
  H   H837      1.0  0.16495  0.54895  0.38424  1.0000
  H   H838      1.0  0.18465  0.51615  0.27082  1.0000
  H   H839      1.0  0.15207  0.54243  0.26302  1.0000
  H   H840      1.0  0.00492  0.57350  0.31380  1.0000
  C   C509      1.0  0.03923  0.50013  0.35252  1.0000
  H   H841      1.0  0.14501  0.60769  0.24310  1.0000
  C   C510      1.0  0.16092  0.57917  0.44552  1.0000
  S   S152      1.0  0.31254  0.49832  0.42580  1.0000
  H   H842      1.0  0.11676  0.57267  0.26402  1.0000
  H   H843      1.0  0.03115  0.95100  0.31666  1.0000
  H   H844      1.0  0.03785  0.85648  0.26881  1.0000
  H   H845      1.0  0.31177  0.56220  0.46445  1.0000
  H   H846      1.0  0.12595  0.55225  0.43757  1.0000
  H   H847      1.0  0.06165  0.83201  0.27017  1.0000
  H   H848      1.0  0.03674  0.81719  0.24418  1.0000
  H   H849      1.0  0.13001  0.53403  0.27685  1.0000
  H   H850      1.0  0.14024  0.58540  0.26705  1.0000
  Fe  Fe75      1.0  0.09707  0.50297  0.36439  1.0000
  C   C511      1.0  0.03098  0.97565  0.28990  1.0000
  H   H851      1.0  0.99934  0.90751  0.24261  1.0000
  H   H852      1.0  0.15917  0.50578  0.43142  1.0000
  H   H853      1.0  0.09558  0.95364  0.30152  1.0000
  H   H854      1.0  0.07862  0.92255  0.30469  1.0000
  H   H855      1.0  0.05232  0.91148  0.31342  1.0000
  H   H856      1.0  0.13130  0.50612  0.45924  1.0000
  H   H857      1.0  0.16544  0.94327  0.37695  1.0000
  H   H858      1.0  0.99565  0.82790  0.27723  1.0000
  H   H859      1.0  0.01010  0.69239  0.26022  1.0000
  H   H860      1.0  0.08451  0.93680  0.38673  1.0000
  S   S153      1.0  0.06295  0.48825  0.37425  1.0000
  H   H861      1.0  0.15333  0.58522  0.43619  1.0000
  H   H862      1.0  0.12804  0.56946  0.45694  1.0000
  C   C512      1.0  0.04208  0.82818  0.25027  1.0000
  H   H863      1.0  0.15250  0.49585  0.29663  1.0000
  N   N38       1.0  0.14993  0.53663  0.45168  1.0000
  H   H864      1.0  0.20752  0.88299  0.24723  1.0000
  H   H865      1.0  0.12753  0.50824  0.43856  1.0000
  Fe  Fe76      1.0  0.10234  0.97009  0.35723  1.0000
  H   H866      1.0  0.19614  0.48504  0.40753  1.0000
  H   H867      1.0  0.00859  0.73355  0.27531  1.0000
  C   C513      1.0  0.99834  0.98088  0.35193  1.0000
  C   C514      1.0  0.05079  0.94888  0.31432  1.0000
  C   C515      1.0  0.17779  0.56036  0.27729  1.0000
  C   C516      1.0  0.03716  0.85405  0.24293  1.0000
  C   C517      1.0  0.99107  0.58385  0.30795  1.0000
  H   H868      1.0  0.06932  0.96674  0.28651  1.0000
  H   H869      1.0  0.11678  0.97025  0.41510  1.0000
  H   H870      1.0  0.03696  0.76130  0.26775  1.0000
  Fe  Fe77      1.0  0.14219  0.49775  0.34332  1.0000
  C   C518      1.0  0.18066  0.96849  0.23457  1.0000
  C   C519      1.0  0.14718  0.56097  0.45545  1.0000
  C   C520      1.0  0.03548  0.79754  0.27048  1.0000
  H   H871      1.0  0.01815  0.96954  0.29871  1.0000
  H   H872      1.0  0.15945  0.59524  0.45008  1.0000
  H   H873      1.0  0.05402  0.79264  0.27270  1.0000
  S   S154      1.0  0.25327  0.95875  0.47473  1.0000
  C   C521      1.0  0.14858  0.54386  0.29615  1.0000
  C   C522      1.0  0.16648  0.57815  0.23424  1.0000
  H   H874      1.0  0.18044  0.56493  0.26620  1.0000
  H   H875      1.0  0.28003  0.63491  0.46658  1.0000
  H   H876      1.0  0.11039  0.94142  0.42099  1.0000
  C   C523      1.0  0.25071  0.93159  0.23347  1.0000
  H   H877      1.0  0.22315  0.90221  0.25221  1.0000
  H   H878      1.0  0.00015  0.59310  0.29840  1.0000
  H   H879      1.0  0.19159  0.55288  0.47561  1.0000
  H   H880      1.0  0.04700  0.77970  0.25281  1.0000
  C   C524      1.0  0.18113  0.49730  0.45218  1.0000
  H   H881      1.0  0.23449  0.62127  0.47513  1.0000
  H   H882      1.0  0.23949  0.87807  0.24356  1.0000
  H   H883      1.0  0.15320  0.55959  0.46513  1.0000
  C   C525      1.0  0.14340  0.54618  0.27316  1.0000
  H   H884      1.0  0.20614  0.92318  0.23264  1.0000
  C   C526      1.0  0.17583  0.51715  0.28133  1.0000
  H   H885      1.0  0.29589  0.48314  0.40517  1.0000
  H   H886      1.0  0.18015  0.57215  0.44312  1.0000
  H   H887      1.0  0.03489  0.71501  0.26855  1.0000
  H   H888      1.0  0.25591  0.50827  0.41263  1.0000
  C   C527      1.0  0.05900  0.92731  0.30698  1.0000
  H   H889      1.0  0.15675  0.54928  0.43038  1.0000
  N   N39       1.0  0.12952  0.92322  0.39751  1.0000
  C   C528      1.0  0.13402  0.92471  0.38255  1.0000
  C   C529      1.0  0.10482  0.91709  0.40254  1.0000
  C   C530      1.0  0.14802  0.90359  0.40306  1.0000
  C   C531      1.0  0.13187  0.94697  0.40044  1.0000
  C   C532      1.0  0.15968  0.92714  0.37534  1.0000
  C   C533      1.0  0.08418  0.93568  0.39755  1.0000
  C   C534      1.0  0.14252  0.89287  0.41796  1.0000
  C   C535      1.0  0.12450  0.95119  0.41501  1.0000
  H   H890      1.0  0.12952  0.90876  0.37975  1.0000
  H   H891      1.0  0.12220  0.94021  0.37784  1.0000
  H   H892      1.0  0.10046  0.91403  0.41355  1.0000
  H   H893      1.0  0.10371  0.89985  0.39972  1.0000
  H   H894      1.0  0.15117  0.88821  0.39764  1.0000
  H   H895      1.0  0.16555  0.90978  0.40145  1.0000
  H   H896      1.0  0.15070  0.94996  0.39749  1.0000
  H   H897      1.0  0.12210  0.96201  0.39409  1.0000
  C   C536      1.0  0.99525  0.90347  0.25337  1.0000
  H   H898      1.0  0.17278  0.91113  0.37817  1.0000
  H   H899      1.0  0.16014  0.92893  0.36443  1.0000
  H   H900      1.0  0.23828  0.48934  0.39123  1.0000
  C   C537      1.0  0.04183  0.83695  0.27217  1.0000
  H   H901      1.0  0.08408  0.95356  0.39980  1.0000
  H   H902      1.0  0.12782  0.88227  0.41998  1.0000
  H   H903      1.0  0.13847  0.90634  0.42456  1.0000
  H   H904      1.0  0.15853  0.88031  0.42078  1.0000
  C   C538      1.0  0.03436  0.83318  0.28747  1.0000
  H   H905      1.0  0.11734  0.57595  0.28064  1.0000
  H   H906      1.0  0.22647  0.57508  0.22689  1.0000
  N   N40       1.0  0.13220  0.68055  0.30850  1.0000
  C   C539      1.0  0.15689  0.66580  0.30687  1.0000
  C   C540      1.0  0.12384  0.68510  0.29524  1.0000
  C   C541      1.0  0.11598  0.66628  0.31897  1.0000
  C   C542      1.0  0.13405  0.70330  0.31280  1.0000
  C   C543      1.0  0.16710  0.65494  0.31982  1.0000
  C   C544      1.0  0.13970  0.69800  0.28334  1.0000
  C   C545      1.0  0.08901  0.67195  0.31838  1.0000
  C   C546      1.0  0.11118  0.72198  0.31432  1.0000
  H   H907      1.0  0.15728  0.65069  0.30168  1.0000
  H   H908      1.0  0.17017  0.67646  0.30045  1.0000
  H   H909      1.0  0.10561  0.69551  0.29557  1.0000
  H   H910      1.0  0.12224  0.66796  0.29260  1.0000
  H   H911      1.0  0.12103  0.64697  0.31837  1.0000
  H   H912      1.0  0.11811  0.66777  0.32918  1.0000
  H   H913      1.0  0.13984  0.69937  0.32269  1.0000
  H   H914      1.0  0.14849  0.71224  0.30619  1.0000
  H   H915      1.0  0.15664  0.64169  0.32638  1.0000
  H   H916      1.0  0.18544  0.64518  0.31715  1.0000
  H   H917      1.0  0.16859  0.66868  0.32547  1.0000
  H   H918      1.0  0.15740  0.68701  0.28081  1.0000
  H   H919      1.0  0.13108  0.70108  0.27436  1.0000
  H   H920      1.0  0.14176  0.71568  0.28500  1.0000
  H   H921      1.0  0.08139  0.69090  0.31848  1.0000
  H   H922      1.0  0.07941  0.66144  0.32727  1.0000
  H   H923      1.0  0.08513  0.66630  0.30955  1.0000
  H   H924      1.0  0.10029  0.71827  0.32437  1.0000
  H   H925      1.0  0.10003  0.72366  0.30663  1.0000
  H   H926      1.0  0.11626  0.73989  0.31299  1.0000
  C   C547      1.0  0.99677  0.64660  0.24392  1.0000
  H   H927      1.0  0.27743  0.52488  0.40241  1.0000
  H   H928      1.0  0.20361  0.54749  0.29140  1.0000
  C   C548      1.0  0.12883  0.57156  0.27126  1.0000
  H   H929      1.0  0.05172  0.93018  0.29762  1.0000
  C   C549      1.0  0.17553  0.52464  0.45169  1.0000
  S   S155      1.0  0.12973  0.91559  0.23697  1.0000
  C   C550      1.0  0.02012  0.49988  0.34607  1.0000
  H   H930      1.0  0.17590  0.95899  0.25599  1.0000
  H   H931      1.0  0.04455  0.86655  0.24712  1.0000
  H   H932      1.0  0.08959  0.96163  0.31766  1.0000
  H   H933      1.0  0.04410  0.84395  0.29156  1.0000
  C   C551      1.0  0.22344  0.89205  0.24418  1.0000
  H   H934      1.0  0.01003  0.72199  0.25222  1.0000
  C   C552      1.0  0.31158  0.57892  0.46756  1.0000
  H   H935      1.0  0.25576  0.91873  0.24233  1.0000
  H   H936      1.0  0.99603  0.94465  0.33366  1.0000
  C   C553      1.0  0.14346  0.54025  0.43796  1.0000
  H   H937      1.0  0.14853  0.49665  0.27961  1.0000
  H   H938      1.0  0.01784  0.86034  0.24277  1.0000
  H   H939      1.0  0.23519  0.94442  0.23741  1.0000
  C   C554      1.0  0.29378  0.59828  0.46458  1.0000
  C   C555      1.0  0.14187  0.51787  0.43258  1.0000
  H   H940      1.0  0.18992  0.48868  0.46092  1.0000
  H   H941      1.0  0.06179  0.82279  0.24936  1.0000
  C   C556      1.0  0.26613  0.51149  0.40243  1.0000
  C   C557      1.0  0.08593  0.96784  0.30729  1.0000
  C   C558      1.0  0.16359  0.53766  0.30740  1.0000
  H   H942      1.0  0.03341  0.96301  0.28281  1.0000
  H   H943      1.0  0.00214  0.96163  0.35376  1.0000
  H   H944      1.0  0.18729  0.53263  0.44278  1.0000
  H   H945      1.0  0.00076  0.65070  0.23316  1.0000
  H   H946      1.0  0.27289  0.95591  0.23582  1.0000
  H   H947      1.0  0.17212  0.55282  0.30794  1.0000
  H   H948      1.0  0.13734  0.52352  0.42238  1.0000
  H   H949      1.0  0.03937  0.81441  0.29215  1.0000
  H   H950      1.0  0.05487  0.50722  0.34696  1.0000
  H   H951      1.0  0.11389  0.53352  0.46174  1.0000
  H   H952      1.0  0.15169  0.53332  0.31706  1.0000
  H   H953      1.0  0.29291  0.49419  0.38847  1.0000
  C   C559      1.0  0.00306  0.71109  0.26170  1.0000
  H   H954      1.0  0.02129  0.50666  0.33552  1.0000
  H   H955      1.0  0.99782  0.70052  0.23831  1.0000
  C   C560      1.0  0.28242  0.48873  0.39847  1.0000
  H   H956      1.0  0.28973  0.48789  0.34219  1.0000
  C   C561      1.0  0.27182  0.94531  0.22824  1.0000
  H   H957      1.0  0.99007  0.75691  0.24852  1.0000
  C   C562      1.0  0.13704  0.51830  0.47626  1.0000
  H   H958      1.0  0.28903  0.93298  0.22700  1.0000
  Fe  Fe78      1.0  0.23710  0.54692  0.69855  1.0000
  S   S156      1.0  0.20005  0.56177  0.70777  1.0000
  S   S157      1.0  0.25499  0.56342  0.67820  1.0000
  C   C563      1.0  0.25391  0.91978  0.69933  1.0000
  Fe  Fe79      1.0  0.19345  0.52393  0.71064  1.0000
  H   H959      1.0  0.31842  0.81878  0.52897  1.0000
  S   S158      1.0  0.22967  0.50965  0.70053  1.0000
  C   C564      1.0  0.26642  0.96754  0.64873  1.0000
  Fe  Fe80      1.0  0.18260  0.91198  0.61091  1.0000
  S   S159      1.0  0.19126  0.88966  0.63015  1.0000
  S   S160      1.0  0.14347  0.92659  0.61090  1.0000
  Fe  Fe81      1.0  0.23485  0.91217  0.59925  1.0000
  S   S161      1.0  0.24718  0.89056  0.61788  1.0000
  S   S162      1.0  0.26170  0.92667  0.58209  1.0000
  Fe  Fe82      1.0  0.21977  0.86810  0.61730  1.0000
  S   S163      1.0  0.23125  0.82766  0.62099  1.0000
  Fe  Fe83      1.0  0.21749  0.91428  0.62897  1.0000
  S   S164      1.0  0.21324  0.93147  0.64751  1.0000
  S   S165      1.0  0.20912  0.88865  0.59802  1.0000
  S   S166      1.0  0.20731  0.93748  0.61029  1.0000
  Fe  Fe84      1.0  0.20796  0.66214  0.62055  1.0000
  S   S167      1.0  0.17789  0.68223  0.60985  1.0000
  S   S168      1.0  0.19567  0.64595  0.64204  1.0000
  Fe  Fe85      1.0  0.24563  0.67682  0.59704  1.0000
  S   S169      1.0  0.21832  0.69737  0.58479  1.0000
  S   S170      1.0  0.28360  0.68185  0.58849  1.0000
  Fe  Fe86      1.0  0.20016  0.71162  0.60342  1.0000
  S   S171      1.0  0.18428  0.75087  0.60335  1.0000
  Fe  Fe87      1.0  0.19886  0.66599  0.59227  1.0000
  S   S172      1.0  0.18521  0.65265  0.57638  1.0000
  S   S173      1.0  0.22847  0.69271  0.61536  1.0000
  S   S174      1.0  0.22788  0.64417  0.60327  1.0000
  Fe  Fe88      1.0  0.10607  0.56268  0.56447  1.0000
  S   S175      1.0  0.12961  0.53425  0.55371  1.0000
  S   S176      1.0  0.11691  0.57600  0.58134  1.0000
  Fe  Fe89      1.0  0.06188  0.56011  0.55202  1.0000
  S   S177      1.0  0.08276  0.53252  0.54004  1.0000
  S   S178      1.0  0.02124  0.57090  0.55499  1.0000
  Fe  Fe90      1.0  0.09769  0.51546  0.55868  1.0000
  H   H960      1.0  0.25741  0.72844  0.72634  1.0000
  Fe  Fe91      1.0  0.11267  0.55394  0.53600  1.0000
  S   S179      1.0  0.13294  0.56573  0.51532  1.0000
  S   S180      1.0  0.07554  0.54201  0.57082  1.0000
  S   S181      1.0  0.09048  0.58347  0.54661  1.0000
  C   C565      1.0  0.16151  0.97776  0.62767  1.0000
  C   C566      1.0  0.25751  0.58518  0.49566  1.0000
  H   H961      1.0  0.18074  0.68365  0.66273  1.0000
  H   H962      1.0  0.18408  0.59947  0.52267  1.0000
  H   H963      1.0  0.14132  0.70215  0.63455  1.0000
  H   H964      1.0  0.11893  0.49943  0.70046  1.0000
  H   H965      1.0  0.26618  0.81601  0.58015  1.0000
  H   H966      1.0  0.13370  0.53477  0.48066  1.0000
  H   H967      1.0  0.17101  0.69335  0.67833  1.0000
  H   H968      1.0  0.24242  0.59417  0.56206  1.0000
  H   H969      1.0  0.02763  0.54639  0.53218  1.0000
  H   H970      1.0  0.14941  0.69288  0.66859  1.0000
  C   C567      1.0  0.19207  0.52065  0.48998  1.0000
  C   C568      1.0  0.18154  0.51017  0.50264  1.0000
  C   C569      1.0  0.16326  0.52360  0.51059  1.0000
  C   C570      1.0  0.15525  0.54755  0.50583  1.0000
  C   C571      1.0  0.16555  0.55785  0.49312  1.0000
  C   C572      1.0  0.18389  0.54454  0.48528  1.0000
  C   C573      1.0  0.31047  0.87190  0.60181  1.0000
  H   H971      1.0  0.15543  0.51544  0.52037  1.0000
  C   C574      1.0  0.28817  0.92498  0.48489  1.0000
  H   H972      1.0  0.21643  0.69645  0.66073  1.0000
  C   C575      1.0  0.16319  0.95779  0.52815  1.0000
  C   C576      1.0  0.25332  0.95291  0.64477  1.0000
  C   C577      1.0  0.16655  0.63091  0.57807  1.0000
  C   C578      1.0  0.15670  0.61926  0.59051  1.0000
  C   C579      1.0  0.14168  0.60243  0.59130  1.0000
  C   C580      1.0  0.13639  0.59697  0.57972  1.0000
  C   C581      1.0  0.14652  0.60838  0.56729  1.0000
  C   C582      1.0  0.16147  0.62525  0.56649  1.0000
  H   H973      1.0  0.16040  0.62343  0.59949  1.0000
  H   H974      1.0  0.13393  0.59377  0.60097  1.0000
  H   H975      1.0  0.14256  0.60445  0.55830  1.0000
  H   H976      1.0  0.16884  0.63423  0.55683  1.0000
  C   C583      1.0  0.29981  0.66440  0.57670  1.0000
  H   H977      1.0  0.27047  0.85729  0.56033  1.0000
  H   H978      1.0  0.23886  0.70139  0.64650  1.0000
  H   H979      1.0  0.06946  0.52728  0.63976  1.0000
  H   H980      1.0  0.20275  0.62228  0.47653  1.0000
  C   C584      1.0  0.02476  0.95390  0.56961  1.0000
  H   H981      1.0  0.31704  0.94859  0.54334  1.0000
  C   C585      1.0  0.99186  0.48865  0.56481  1.0000
  C   C586      1.0  0.13312  0.94061  0.59604  1.0000
  H   H982      1.0  0.25056  0.58918  0.58472  1.0000
  H   H983      1.0  0.23654  0.91318  0.70284  1.0000
  H   H984      1.0  0.24050  0.94892  0.72618  1.0000
  C   C587      1.0  0.11083  0.95545  0.59683  1.0000
  H   H985      1.0  0.15938  0.57634  0.48935  1.0000
  H   H986      1.0  0.08554  0.97991  0.58595  1.0000
  H   H987      1.0  0.10014  0.95747  0.60647  1.0000
  H   H988      1.0  0.27405  0.60272  0.54477  1.0000
  H   H989      1.0  0.26912  0.64821  0.56447  1.0000
  C   C588      1.0  0.24263  0.61061  0.56593  1.0000
  H   H990      1.0  0.24816  0.88630  0.57475  1.0000
  C   C589      1.0  0.29089  0.97085  0.53089  1.0000
  C   C590      1.0  0.21861  0.80701  0.61519  1.0000
  C   C591      1.0  0.19688  0.81338  0.61046  1.0000
  C   C592      1.0  0.18692  0.79612  0.60655  1.0000
  C   C593      1.0  0.19873  0.77243  0.60709  1.0000
  C   C594      1.0  0.22078  0.76622  0.61148  1.0000
  C   C595      1.0  0.23050  0.78334  0.61566  1.0000
  H   H991      1.0  0.18749  0.83149  0.61006  1.0000
  H   H992      1.0  0.16982  0.80113  0.60321  1.0000
  H   H993      1.0  0.23021  0.74815  0.61181  1.0000
  H   H994      1.0  0.24734  0.77821  0.61927  1.0000
  H   H995      1.0  0.26136  0.84095  0.58846  1.0000
  C   C596      1.0  0.23951  0.58786  0.66841  1.0000
  C   C597      1.0  0.24871  0.59426  0.65484  1.0000
  C   C598      1.0  0.23593  0.61263  0.64664  1.0000
  C   C599      1.0  0.21387  0.62472  0.65201  1.0000
  C   C600      1.0  0.20511  0.61887  0.66565  1.0000
  C   C601      1.0  0.21783  0.60054  0.67381  1.0000
  H   H996      1.0  0.26558  0.58466  0.65060  1.0000
  H   H997      1.0  0.24289  0.61705  0.63614  1.0000
  H   H998      1.0  0.18816  0.62830  0.66990  1.0000
  H   H999      1.0  0.21077  0.59618  0.68426  1.0000
  H   H1000     1.0  0.25845  0.81138  0.55093  1.0000
  H   H1001     1.0  0.30118  0.48320  0.72039  1.0000
  C   C602      1.0  0.22973  0.95161  0.65095  1.0000
  C   C603      1.0  0.30930  0.93402  0.52120  1.0000
  H   H1002     1.0  0.31843  0.92737  0.51185  1.0000
  H   H1003     1.0  0.25736  0.60476  0.49329  1.0000
  C   C604      1.0  0.30523  0.80737  0.51370  1.0000
  H   H1004     1.0  0.99215  0.50501  0.55715  1.0000
  C   C605      1.0  0.21910  0.59106  0.51067  1.0000
  N   N41       1.0  0.23246  0.57970  0.49890  1.0000
  H   H1005     1.0  0.04849  0.93177  0.58257  1.0000
  C   C606      1.0  0.30194  0.87394  0.55483  1.0000
  C   C607      1.0  0.27301  0.57540  0.50662  1.0000
  C   C608      1.0  0.01031  0.51876  0.58109  1.0000
  H   H1006     1.0  0.21856  0.60313  0.54691  1.0000
  H   H1007     1.0  0.23138  0.58121  0.47805  1.0000
  H   H1008     1.0  0.18298  0.60318  0.50535  1.0000
  H   H1009     1.0  0.99197  0.62978  0.53185  1.0000
  H   H1010     1.0  0.30770  0.69475  0.56192  1.0000
  C   C609      1.0  0.17992  0.58440  0.63914  1.0000
  H   H1011     1.0  0.06194  0.96350  0.54849  1.0000
  H   H1012     1.0  0.01161  0.96529  0.54610  1.0000
  C   C610      1.0  0.31874  0.73603  0.54101  1.0000
  H   H1013     1.0  0.23804  0.54596  0.51235  1.0000
  H   H1014     1.0  0.27613  0.78462  0.53504  1.0000
  H   H1015     1.0  0.24286  0.60961  0.53331  1.0000
  H   H1016     1.0  0.19288  0.59258  0.63094  1.0000
  C   C611      1.0  0.19402  0.56699  0.64917  1.0000
  C   C612      1.0  0.27388  0.62055  0.54721  1.0000
  C   C613      1.0  0.04224  0.95106  0.57940  1.0000
  C   C614      1.0  0.24300  0.93349  0.72093  1.0000
  C   C615      1.0  0.00127  0.97739  0.55304  1.0000
  H   H1017     1.0  0.31192  0.82196  0.50607  1.0000
  H   H1018     1.0  0.05657  0.50563  0.62339  1.0000
  H   H1019     1.0  0.21423  0.62683  0.49013  1.0000
  H   H1020     1.0  0.31457  0.89901  0.49438  1.0000
  C   C616      1.0  0.14667  0.93763  0.58356  1.0000
  C   C617      1.0  0.11591  0.96500  0.57275  1.0000
  C   C618      1.0  0.21923  0.96567  0.66083  1.0000
  H   H1021     1.0  0.13327  0.53497  0.60017  1.0000
  H   H1022     1.0  0.14056  0.96569  0.50764  1.0000
  H   H1023     1.0  0.29661  0.90051  0.52914  1.0000
  N   N42       1.0  0.25487  0.93953  0.70660  1.0000
  H   H1024     1.0  0.26765  0.91062  0.67952  1.0000
  C   C619      1.0  0.03947  0.48321  0.54584  1.0000
  H   H1025     1.0  0.21346  0.64379  0.55219  1.0000
  H   H1026     1.0  0.99303  0.52759  0.57804  1.0000
  H   H1027     1.0  0.30432  0.86618  0.58308  1.0000
  H   H1028     1.0  0.22405  0.61596  0.57102  1.0000
  H   H1029     1.0  0.30785  0.92369  0.56564  1.0000
  H   H1030     1.0  0.11436  0.48734  0.60476  1.0000
  H   H1031     1.0  0.29604  0.78809  0.62359  1.0000
  H   H1032     1.0  0.25934  0.61765  0.58188  1.0000
  C   C620      1.0  0.18811  0.96462  0.49898  1.0000
  C   C621      1.0  0.29864  0.82154  0.58578  1.0000
  H   H1033     1.0  0.30828  0.82721  0.61670  1.0000
  C   C622      1.0  0.28033  0.94183  0.70666  1.0000
  H   H1034     1.0  0.27980  0.82577  0.53884  1.0000
  H   H1035     1.0  0.26720  0.53903  0.49109  1.0000
  C   C623      1.0  0.24925  0.67593  0.55219  1.0000
  C   C624      1.0  0.21815  0.61640  0.48194  1.0000
  H   H1036     1.0  0.21309  0.62517  0.53283  1.0000
  H   H1037     1.0  0.27055  0.64655  0.52842  1.0000
  H   H1038     1.0  0.25399  0.68872  0.55748  1.0000
  H   H1039     1.0  0.23881  0.92787  0.68079  1.0000
  H   H1040     1.0  0.11231  0.52487  0.62615  1.0000
  H   H1041     1.0  0.22252  0.60954  0.50972  1.0000
  H   H1042     1.0  0.19512  0.48483  0.68947  1.0000
  S   S182      1.0  0.31809  0.85154  0.54591  1.0000
  C   C625      1.0  0.23076  0.63710  0.54619  1.0000
  C   C626      1.0  0.00924  0.54731  0.53713  1.0000
  H   H1043     1.0  0.26119  0.67663  0.54245  1.0000
  H   H1044     1.0  0.29640  0.62494  0.52781  1.0000
  H   H1045     1.0  0.23784  0.65273  0.56992  1.0000
  C   C627      1.0  0.28743  0.78627  0.54220  1.0000
  H   H1046     1.0  0.27559  0.55570  0.50908  1.0000
  H   H1047     1.0  0.22569  0.58145  0.51997  1.0000
  S   S183      1.0  0.21516  0.50346  0.48024  1.0000
  H   H1048     1.0  0.23419  0.65225  0.53810  1.0000
  C   C628      1.0  0.10088  0.51144  0.62634  1.0000
  C   C629      1.0  0.19180  0.59175  0.51349  1.0000
  C   C630      1.0  0.18540  0.95200  0.53500  1.0000
  H   H1049     1.0  0.23673  0.75526  0.72541  1.0000
  H   H1050     1.0  0.09278  0.50931  0.64784  1.0000
  H   H1051     1.0  0.24629  0.51894  0.49626  1.0000
  H   H1052     1.0  0.07162  0.49869  0.59412  1.0000
  N   N43       1.0  0.25002  0.63015  0.55475  1.0000
  C   C631      1.0  0.07114  0.50167  0.61506  1.0000
  H   H1053     1.0  0.29009  0.95607  0.50095  1.0000
  S   S184      1.0  0.15956  0.51434  0.70633  1.0000
  N   N44       1.0  0.01553  0.97899  0.56343  1.0000
  C   C632      1.0  0.13470  0.48985  0.69514  1.0000
  H   H1054     1.0  0.04337  0.49786  0.57362  1.0000
  C   C633      1.0  0.23239  0.55323  0.50251  1.0000
  H   H1055     1.0  0.20464  0.96366  0.71153  1.0000
  H   H1056     1.0  0.29567  0.78509  0.60695  1.0000
  N   N45       1.0  0.31356  0.78205  0.53624  1.0000
  H   H1057     1.0  0.10532  0.51233  0.59285  1.0000
  C   C634      1.0  0.02513  0.50320  0.57101  1.0000
  H   H1058     1.0  0.30334  0.89118  0.59924  1.0000
  C   C635      1.0  0.31876  0.75915  0.53069  1.0000
  C   C636      1.0  0.31786  0.62592  0.57056  1.0000
  H   H1059     1.0  0.31136  0.63886  0.47889  1.0000
  C   C637      1.0  0.28885  0.91970  0.52727  1.0000
  H   H1060     1.0  0.11281  0.49381  0.62739  1.0000
  C   C638      1.0  0.21477  0.96439  0.70124  1.0000
  N   N46       1.0  0.30226  0.96073  0.51841  1.0000
  H   H1061     1.0  0.03346  0.95820  0.58858  1.0000
  H   H1062     1.0  0.19215  0.94659  0.50484  1.0000
  H   H1063     1.0  0.28604  0.81356  0.51714  1.0000
  H   H1064     1.0  0.21398  0.54931  0.50372  1.0000
  H   H1065     1.0  0.23134  0.53379  0.65725  1.0000
  H   H1066     1.0  0.00977  0.94464  0.57515  1.0000
  H   H1067     1.0  0.19036  0.93235  0.53750  1.0000
  H   H1068     1.0  0.22808  0.51400  0.67262  1.0000
  H   H1069     1.0  0.29971  0.93434  0.68704  1.0000
  H   H1070     1.0  0.28638  0.81231  0.55527  1.0000
  C   C639      1.0  0.13780  0.94947  0.57191  1.0000
  Fe  Fe92      1.0  0.24120  0.50305  0.72056  1.0000
  H   H1071     1.0  0.20465  0.96801  0.49186  1.0000
  C   C640      1.0  0.10250  0.96808  0.58523  1.0000
  C   C641      1.0  0.30019  0.85806  0.59369  1.0000
  H   H1072     1.0  0.14772  0.95688  0.53644  1.0000
  H   H1073     1.0  0.02336  0.49204  0.54147  1.0000
  H   H1074     1.0  0.20149  0.95795  0.52860  1.0000
  H   H1075     1.0  0.27618  0.92136  0.52031  1.0000
  H   H1076     1.0  0.05846  0.95901  0.57481  1.0000
  H   H1077     1.0  0.13934  0.56562  0.64978  1.0000
  H   H1078     1.0  0.18165  0.95947  0.54438  1.0000
  H   H1079     1.0  0.31339  0.95142  0.69480  1.0000
  N   N47       1.0  0.09091  0.51597  0.61353  1.0000
  C   C642      1.0  0.11063  0.50709  0.60289  1.0000
  H   H1080     1.0  0.29429  0.64886  0.53684  1.0000
  H   H1081     1.0  0.29335  0.96637  0.55190  1.0000
  C   C643      1.0  0.08323  0.54224  0.60901  1.0000
  C   C644      1.0  0.13487  0.51539  0.60153  1.0000
  S   S185      1.0  0.10544  0.98071  0.55822  1.0000
  H   H1082     1.0  0.30145  0.73571  0.54787  1.0000
  C   C645      1.0  0.06091  0.55484  0.61726  1.0000
  H   H1083     1.0  0.17443  0.96513  0.49279  1.0000
  H   H1084     1.0  0.14397  0.50702  0.61015  1.0000
  H   H1085     1.0  0.24947  0.96973  0.69052  1.0000
  C   C646      1.0  0.29952  0.90948  0.56425  1.0000
  C   C647      1.0  0.31229  0.89297  0.55613  1.0000
  H   H1086     1.0  0.20099  0.96480  0.66567  1.0000
  H   H1087     1.0  0.09780  0.55227  0.60883  1.0000
  H   H1088     1.0  0.08056  0.54611  0.59843  1.0000
  H   H1089     1.0  0.30471  0.86680  0.61268  1.0000
  C   C648      1.0  0.08288  0.51096  0.63949  1.0000
  H   H1090     1.0  0.04470  0.49379  0.60516  1.0000
  H   H1091     1.0  0.14812  0.94691  0.56228  1.0000
  H   H1092     1.0  0.27414  0.91432  0.48855  1.0000
  H   H1093     1.0  0.14963  0.97942  0.63736  1.0000
  H   H1094     1.0  0.30563  0.75891  0.52424  1.0000
  C   C649      1.0  0.22086  0.58919  0.48673  1.0000
  H   H1095     1.0  0.28070  0.95514  0.71294  1.0000
  H   H1096     1.0  0.06599  0.56265  0.62499  1.0000
  H   H1097     1.0  0.04733  0.54345  0.62194  1.0000
  H   H1098     1.0  0.05173  0.56958  0.61051  1.0000
  C   C650      1.0  0.27130  0.82263  0.58831  1.0000
  H   H1099     1.0  0.29583  0.63090  0.58953  1.0000
  H   H1100     1.0  0.29105  0.58036  0.50287  1.0000
  H   H1101     1.0  0.24188  0.54247  0.48268  1.0000
  H   H1102     1.0  0.16378  0.92602  0.58292  1.0000
  C   C651      1.0  0.22640  0.61732  0.53951  1.0000
  H   H1103     1.0  0.29032  0.92475  0.71118  1.0000
  H   H1104     1.0  0.21521  0.68721  0.64520  1.0000
  C   C652      1.0  0.27864  0.87186  0.56139  1.0000
  N   N48       1.0  0.17987  0.55530  0.66178  1.0000
  C   C653      1.0  0.19749  0.54233  0.67081  1.0000
  C   C654      1.0  0.16349  0.57421  0.66881  1.0000
  C   C655      1.0  0.16682  0.53731  0.65890  1.0000
  C   C656      1.0  0.15002  0.56523  0.68271  1.0000
  C   C657      1.0  0.14213  0.54680  0.65463  1.0000
  H   H1105     1.0  0.20569  0.55517  0.67436  1.0000
  H   H1106     1.0  0.18840  0.53209  0.68000  1.0000
  H   H1107     1.0  0.14981  0.58458  0.66293  1.0000
  H   H1108     1.0  0.17374  0.58764  0.67007  1.0000
  C   C658      1.0  0.25183  0.65105  0.56091  1.0000
  H   H1109     1.0  0.16354  0.52359  0.66796  1.0000
  H   H1110     1.0  0.14190  0.54942  0.68288  1.0000
  H   H1111     1.0  0.16206  0.56104  0.69022  1.0000
  H   H1112     1.0  0.13545  0.57952  0.68588  1.0000
  C   C659      1.0  0.25847  0.60279  0.57688  1.0000
  H   H1113     1.0  0.20649  0.57703  0.65171  1.0000
  H   H1114     1.0  0.12763  0.54380  0.66327  1.0000
  N   N49       1.0  0.17891  0.72898  0.64731  1.0000
  C   C660      1.0  0.16939  0.75464  0.64215  1.0000
  C   C661      1.0  0.17177  0.71394  0.63899  1.0000
  C   C662      1.0  0.20578  0.72616  0.64512  1.0000
  C   C663      1.0  0.16879  0.72333  0.66195  1.0000
  C   C664      1.0  0.17773  0.77380  0.64766  1.0000
  C   C665      1.0  0.14477  0.71685  0.63892  1.0000
  C   C666      1.0  0.21940  0.70124  0.64972  1.0000
  C   C667      1.0  0.16766  0.69680  0.66790  1.0000
  H   H1115     1.0  0.17409  0.75861  0.63112  1.0000
  H   H1116     1.0  0.14953  0.75815  0.64427  1.0000
  H   H1117     1.0  0.17811  0.69478  0.64194  1.0000
  H   H1118     1.0  0.18056  0.71801  0.62842  1.0000
  H   H1119     1.0  0.21281  0.73148  0.63436  1.0000
  H   H1120     1.0  0.21172  0.73809  0.65047  1.0000
  H   H1121     1.0  0.17892  0.73017  0.66801  1.0000
  H   H1122     1.0  0.15008  0.73282  0.66392  1.0000
  H   H1123     1.0  0.17574  0.77021  0.65867  1.0000
  H   H1124     1.0  0.19644  0.77581  0.64314  1.0000
  H   H1125     1.0  0.16670  0.79135  0.64475  1.0000
  H   H1126     1.0  0.13408  0.71612  0.64905  1.0000
  H   H1127     1.0  0.13849  0.73372  0.63248  1.0000
  C   C668      1.0  0.30354  0.63955  0.57984  1.0000
  C   C669      1.0  0.21817  0.52447  0.66470  1.0000
  C   C670      1.0  0.99274  0.53863  0.53181  1.0000
  H   H1128     1.0  0.17808  0.52736  0.65113  1.0000
  H   H1129     1.0  0.28783  0.61689  0.55363  1.0000
  H   H1130     1.0  0.16832  0.59950  0.64346  1.0000
  H   H1131     1.0  0.26474  0.94161  0.67920  1.0000
  C   C671      1.0  0.24167  0.96333  0.70094  1.0000
  C   C672      1.0  0.31988  0.80198  0.52512  1.0000
  H   H1132     1.0  0.16294  0.94252  0.52323  1.0000
  H   H1133     1.0  0.23044  0.68238  0.55072  1.0000
  H   H1134     1.0  0.26508  0.81106  0.59769  1.0000
  H   H1135     1.0  0.16980  0.57510  0.63442  1.0000
  H   H1136     1.0  0.13972  0.53614  0.64738  1.0000
  H   H1137     1.0  0.20545  0.55343  0.64345  1.0000
  C   C673      1.0  0.28405  0.63645  0.53445  1.0000
  C   C674      1.0  0.25642  0.92583  0.68395  1.0000
  H   H1138     1.0  0.24328  0.97728  0.70651  1.0000
  C   C675      1.0  0.26597  0.88825  0.56957  1.0000
  H   H1139     1.0  0.05073  0.49652  0.54589  1.0000
  C   C676      1.0  0.27650  0.90694  0.57115  1.0000
  H   H1140     1.0  0.26786  0.90419  0.70178  1.0000
  C   C677      1.0  0.25602  0.98133  0.65874  1.0000
  C   C678      1.0  0.15738  0.49400  0.69606  1.0000
  H   H1141     1.0  0.26722  0.57842  0.48647  1.0000
  H   H1142     1.0  0.21176  0.51160  0.66026  1.0000
  H   H1143     1.0  0.21119  0.95020  0.69657  1.0000
  H   H1144     1.0  0.02012  0.53335  0.58114  1.0000
  H   H1145     1.0  0.11285  0.96802  0.52961  1.0000
  H   H1146     1.0  0.28028  0.82724  0.61252  1.0000
  C   C679      1.0  0.24798  0.53792  0.49245  1.0000
  H   H1147     1.0  0.28341  0.77231  0.55099  1.0000
  H   H1148     1.0  0.07379  0.49513  0.64167  1.0000
  H   H1149     1.0  0.18694  0.57372  0.51527  1.0000
  H   H1150     1.0  0.26169  0.94212  0.63721  1.0000
  H   H1151     1.0  0.30733  0.79184  0.50864  1.0000
  H   H1152     1.0  0.22470  0.92971  0.72150  1.0000
  H   H1153     1.0  0.20320  0.58365  0.48792  1.0000
  C   C680      1.0  0.27785  0.81038  0.54700  1.0000
  C   C681      1.0  0.29585  0.94876  0.69308  1.0000
  C   C682      1.0  0.28315  0.94757  0.47709  1.0000
  C   C683      1.0  0.31106  0.91626  0.48822  1.0000
  H   H1154     1.0  0.28045  0.86234  0.59641  1.0000
  H   H1155     1.0  0.32102  0.60671  0.57308  1.0000
  H   H1156     1.0  0.15609  0.96435  0.62321  1.0000
  C   C684      1.0  0.30568  0.96625  0.54220  1.0000
  H   H1157     1.0  0.03395  0.94323  0.56172  1.0000
  H   H1158     1.0  0.28820  0.96576  0.68737  1.0000
  H   H1159     1.0  0.17959  0.97021  0.63013  1.0000
  H   H1160     1.0  0.04384  0.98180  0.53654  1.0000
  H   H1161     1.0  0.27335  0.96504  0.53519  1.0000
  H   H1162     1.0  0.27928  0.92456  0.53696  1.0000
  H   H1163     1.0  0.26565  0.58327  0.51575  1.0000
  H   H1164     1.0  0.26673  0.96071  0.51450  1.0000
  H   H1165     1.0  0.30698  0.80267  0.58541  1.0000
  C   C685      1.0  0.00173  0.55785  0.54855  1.0000
  S   S186      1.0  0.25253  0.53892  0.71768  1.0000
  N   N50       1.0  0.30847  0.83154  0.59548  1.0000
  C   C686      1.0  0.05906  0.50487  0.60274  1.0000
  H   H1166     1.0  0.05064  0.52359  0.59987  1.0000
  H   H1167     1.0  0.15536  0.50876  0.47714  1.0000
  C   C687      1.0  0.29969  0.82096  0.60967  1.0000
  H   H1168     1.0  0.26086  0.89595  0.72470  1.0000
  H   H1169     1.0  0.27678  0.59444  0.57299  1.0000
  H   H1170     1.0  0.31689  0.98027  0.54089  1.0000
  C   C688      1.0  0.31034  0.67554  0.56426  1.0000
  H   H1171     1.0  0.18765  0.49165  0.50637  1.0000
  H   H1172     1.0  0.28485  0.96795  0.64413  1.0000
  H   H1173     1.0  0.30332  0.83110  0.57547  1.0000
  C   C689      1.0  0.30416  0.79351  0.61304  1.0000
  H   H1174     1.0  0.02714  0.51550  0.56133  1.0000
  H   H1175     1.0  0.14678  0.50965  0.59254  1.0000
  H   H1176     1.0  0.16396  0.97144  0.60111  1.0000
  H   H1177     1.0  0.12450  0.50670  0.48252  1.0000
  C   C690      1.0  0.28395  0.96631  0.50925  1.0000
  H   H1178     1.0  0.00768  0.50893  0.59142  1.0000
  H   H1179     1.0  0.99864  0.53092  0.52281  1.0000
  C   C691      1.0  0.23217  0.98067  0.66459  1.0000
  H   H1180     1.0  0.07798  0.48228  0.61780  1.0000
  C   C692      1.0  0.05281  0.98168  0.54503  1.0000
  H   H1181     1.0  0.32167  0.72069  0.53565  1.0000
  H   H1182     1.0  0.17030  0.98094  0.57737  1.0000
  H   H1183     1.0  0.12581  0.98146  0.61251  1.0000
  C   C693      1.0  0.13852  0.98182  0.51226  1.0000
  N   N51       1.0  0.15973  0.98122  0.51882  1.0000
  H   H1184     1.0  0.20759  0.98177  0.69557  1.0000
  N   N52       1.0  0.04177  0.82195  0.91760  1.0000
  C   C694      1.0  0.21402  0.92082  0.86691  1.0000
  N   N53       1.0  0.26464  0.74464  0.75293  1.0000
  H   H1185     1.0  0.00198  0.61614  0.94095  1.0000
  C   C695      1.0  0.23892  0.97833  0.89610  1.0000
  C   C696      1.0  0.27923  0.60831  0.77332  1.0000
  S   S187      1.0  0.21646  0.53235  0.95356  1.0000
  S   S188      1.0  0.19617  0.59571  0.96576  1.0000
  H   H1186     1.0  0.11574  0.84811  0.80466  1.0000
  Fe  Fe93      1.0  0.25620  0.53173  0.94753  1.0000
  S   S189      1.0  0.27480  0.54196  0.92610  1.0000
  C   C697      1.0  0.27050  0.57965  0.85467  1.0000
  S   S190      1.0  0.25709  0.55944  0.95958  1.0000
  Fe  Fe94      1.0  0.12685  0.92073  0.91104  1.0000
  S   S191      1.0  0.10455  0.92989  0.89450  1.0000
  S   S192      1.0  0.14374  0.95200  0.91349  1.0000
  Fe  Fe95      1.0  0.11833  0.86875  0.91697  1.0000
  S   S193      1.0  0.09644  0.87455  0.90093  1.0000
  S   S194      1.0  0.12046  0.83175  0.92924  1.0000
  Fe  Fe96      1.0  0.12420  0.89519  0.88863  1.0000
  S   S195      1.0  0.13760  0.88425  0.86851  1.0000
  Fe  Fe97      1.0  0.07864  0.90810  0.90838  1.0000
  S   S196      1.0  0.03799  0.91505  0.91345  1.0000
  S   S197      1.0  0.14790  0.88702  0.90414  1.0000
  S   S198      1.0  0.09918  0.90157  0.92537  1.0000
  Fe  Fe98      1.0  0.06874  0.69426  0.90232  1.0000
  S   S199      1.0  0.08241  0.70449  0.91885  1.0000
  S   S200      1.0  0.02905  0.70880  0.90282  1.0000
  Fe  Fe99      1.0  0.11908  0.67004  0.89107  1.0000
  S   S201      1.0  0.13578  0.67885  0.90673  1.0000
  S   S202      1.0  0.14579  0.64708  0.87795  1.0000
  Fe  Fe100     1.0  0.10387  0.66742  0.92088  1.0000
  S   S203      1.0  0.10373  0.63834  0.93908  1.0000
  Fe  Fe101     1.0  0.11302  0.71488  0.90304  1.0000
  S   S204      1.0  0.12834  0.74912  0.89603  1.0000
  S   S205      1.0  0.08823  0.65660  0.90536  1.0000
  S   S206      1.0  0.09823  0.70673  0.88636  1.0000
  H   H1187     1.0  0.05509  0.63675  0.95160  1.0000
  S   S207      1.0  0.26798  0.93044  0.80215  1.0000
  C   C698      1.0  0.25329  0.57324  0.84690  1.0000
  Fe  Fe102     1.0  0.25605  0.86611  0.80228  1.0000
  S   S208      1.0  0.23543  0.89951  0.79204  1.0000
  C   C699      1.0  0.26401  0.52993  0.88592  1.0000
  Fe  Fe103     1.0  0.27092  0.91160  0.78490  1.0000
  S   S209      1.0  0.28467  0.92828  0.76379  1.0000
  Fe  Fe104     1.0  0.23462  0.91479  0.81034  1.0000
  S   S210      1.0  0.20294  0.93744  0.82078  1.0000
  H   H1188     1.0  0.30317  0.74287  0.74824  1.0000
  S   S211      1.0  0.25293  0.88107  0.82105  1.0000
  Fe  Fe105     1.0  0.23497  0.66858  0.77947  1.0000
  S   S212      1.0  0.21911  0.64673  0.79825  1.0000
  S   S213      1.0  0.23640  0.66259  0.75821  1.0000
  Fe  Fe106     1.0  0.25538  0.69799  0.79509  1.0000
  S   S214      1.0  0.24220  0.67708  0.81501  1.0000
  S   S215      1.0  0.27779  0.72732  0.79217  1.0000
  Fe  Fe107     1.0  0.25411  0.64478  0.80495  1.0000
  S   S216      1.0  0.27090  0.60701  0.81208  1.0000
  Fe  Fe108     1.0  0.20862  0.68086  0.80657  1.0000
  S   S217      1.0  0.17262  0.69460  0.81775  1.0000
  S   S218      1.0  0.27053  0.66513  0.78578  1.0000
  S   S219      1.0  0.22125  0.70333  0.78709  1.0000
  C   C700      1.0  0.25176  0.88111  0.85856  1.0000
  C   C701      1.0  0.06547  0.82272  0.89367  1.0000
  S   S220      1.0  0.20597  0.57059  0.74532  1.0000
  C   C702      1.0  0.22715  0.63747  0.75454  1.0000
  C   C703      1.0  0.21287  0.62340  0.76414  1.0000
  C   C704      1.0  0.20620  0.60338  0.76100  1.0000
  C   C705      1.0  0.21397  0.59688  0.74830  1.0000
  C   C706      1.0  0.22820  0.61098  0.73867  1.0000
  C   C707      1.0  0.23459  0.63125  0.74175  1.0000
  H   H1189     1.0  0.20667  0.62811  0.77395  1.0000
  H   H1190     1.0  0.19501  0.59277  0.76850  1.0000
  H   H1191     1.0  0.28359  0.68405  0.75128  1.0000
  N   N54       1.0  0.02961  0.63765  0.93869  1.0000
  C   C708      1.0  0.25011  0.80412  0.80015  1.0000
  C   C709      1.0  0.23417  0.78787  0.80201  1.0000
  C   C710      1.0  0.24235  0.76434  0.79963  1.0000
  C   C711      1.0  0.26664  0.75674  0.79539  1.0000
  C   C712      1.0  0.28257  0.77303  0.79340  1.0000
  C   C713      1.0  0.27438  0.79660  0.79577  1.0000
  H   H1192     1.0  0.21536  0.79350  0.80536  1.0000
  H   H1193     1.0  0.22988  0.75206  0.80111  1.0000
  H   H1194     1.0  0.30140  0.76734  0.79010  1.0000
  H   H1195     1.0  0.28685  0.80887  0.79430  1.0000
  H   H1196     1.0  0.01847  0.89056  0.87482  1.0000
  C   C714      1.0  0.26236  0.75355  0.73848  1.0000
  C   C715      1.0  0.24212  0.95700  0.75864  1.0000
  C   C716      1.0  0.26666  0.95075  0.75440  1.0000
  C   C717      1.0  0.27745  0.96259  0.74225  1.0000
  C   C718      1.0  0.25354  0.92726  0.86860  1.0000
  H   H1197     1.0  0.23365  0.94798  0.76802  1.0000
  H   H1198     1.0  0.30978  0.55051  0.77297  1.0000
  C   C719      1.0  0.15262  0.65955  0.86105  1.0000
  C   C720      1.0  0.17444  0.65109  0.85349  1.0000
  C   C721      1.0  0.18068  0.66155  0.84012  1.0000
  C   C722      1.0  0.16495  0.68031  0.83424  1.0000
  C   C723      1.0  0.14294  0.68841  0.84173  1.0000
  C   C724      1.0  0.13680  0.67809  0.85511  1.0000
  H   H1199     1.0  0.18666  0.63664  0.85803  1.0000
  H   H1200     1.0  0.19763  0.65514  0.83437  1.0000
  H   H1201     1.0  0.13063  0.70274  0.83716  1.0000
  H   H1202     1.0  0.11977  0.68439  0.86082  1.0000
  H   H1203     1.0  0.24417  0.77635  0.76032  1.0000
  C   C725      1.0  0.00723  0.69446  0.89941  1.0000
  C   C726      1.0  0.01337  0.67547  0.89234  1.0000
  C   C727      1.0  0.30580  0.61832  0.82320  1.0000
  H   H1204     1.0  0.07642  0.80169  0.91141  1.0000
  H   H1205     1.0  0.03196  0.66898  0.88888  1.0000
  H   H1206     1.0  0.04099  0.84084  0.94202  1.0000
  C   C728      1.0  0.15798  0.90005  0.85721  1.0000
  C   C729      1.0  0.15266  0.92473  0.85337  1.0000
  C   C730      1.0  0.16697  0.93629  0.84237  1.0000
  C   C731      1.0  0.18666  0.92319  0.83530  1.0000
  C   C732      1.0  0.19254  0.89874  0.83963  1.0000
  C   C733      1.0  0.17820  0.88718  0.85050  1.0000
  H   H1207     1.0  0.13684  0.93468  0.85844  1.0000
  C   C734      1.0  0.30820  0.56988  0.77310  1.0000
  H   H1208     1.0  0.20753  0.88845  0.83432  1.0000
  H   H1209     1.0  0.18228  0.86807  0.85344  1.0000
  C   C735      1.0  0.02032  0.90334  0.90514  1.0000
  C   C736      1.0  0.02809  0.89951  0.89200  1.0000
  C   C737      1.0  0.30884  0.57708  0.82110  1.0000
  H   H1210     1.0  0.04567  0.90275  0.88694  1.0000
  H   H1211     1.0  0.20444  0.85137  0.82595  1.0000
  C   C738      1.0  0.12248  0.80871  0.92007  1.0000
  C   C739      1.0  0.12820  0.81280  0.90617  1.0000
  C   C740      1.0  0.12980  0.79434  0.89899  1.0000
  C   C741      1.0  0.12530  0.77173  0.90560  1.0000
  C   C742      1.0  0.11926  0.76762  0.91950  1.0000
  C   C743      1.0  0.11812  0.78603  0.92672  1.0000
  H   H1212     1.0  0.13198  0.83006  0.90094  1.0000
  H   H1213     1.0  0.13465  0.79763  0.88825  1.0000
  H   H1214     1.0  0.11602  0.75016  0.92469  1.0000
  H   H1215     1.0  0.11388  0.78270  0.93749  1.0000
  C   C744      1.0  0.17104  0.60682  0.95774  1.0000
  C   C745      1.0  0.16553  0.63148  0.95343  1.0000
  C   C746      1.0  0.14546  0.64120  0.94723  1.0000
  C   C747      1.0  0.13023  0.62640  0.94572  1.0000
  C   C748      1.0  0.13560  0.60174  0.95012  1.0000
  C   C749      1.0  0.15619  0.59190  0.95588  1.0000
  H   H1216     1.0  0.17683  0.64314  0.95492  1.0000
  H   H1217     1.0  0.14136  0.66024  0.94403  1.0000
  H   H1218     1.0  0.12379  0.59020  0.94910  1.0000
  H   H1219     1.0  0.16014  0.57292  0.95930  1.0000
  C   C750      1.0  0.28684  0.70275  0.74922  1.0000
  C   C751      1.0  0.29289  0.49999  0.91599  1.0000
  C   C752      1.0  0.00590  0.81755  0.90741  1.0000
  H   H1220     1.0  0.00375  0.68096  0.94471  1.0000
  C   C753      1.0  0.15954  0.95607  0.92569  1.0000
  H   H1221     1.0  0.02099  0.81354  0.93726  1.0000
  C   C754      1.0  0.04563  0.61973  0.93077  1.0000
  C   C755      1.0  0.18589  0.96423  0.94420  1.0000
  C   C756      1.0  0.18019  0.94157  0.94473  1.0000
  C   C757      1.0  0.16711  0.93749  0.93554  1.0000
  H   H1222     1.0  0.29380  0.56126  0.88346  1.0000
  H   H1223     1.0  0.02328  0.84836  0.90358  1.0000
  H   H1224     1.0  0.18588  0.92704  0.95232  1.0000
  H   H1225     1.0  0.16296  0.91993  0.93606  1.0000
  C   C758      1.0  0.01263  0.89262  0.88515  1.0000
  H   H1226     1.0  0.18291  0.91942  0.79814  1.0000
  N   N55       1.0  0.20097  0.59380  0.91634  1.0000
  C   C759      1.0  0.21454  0.59146  0.92766  1.0000
  C   C760      1.0  0.19342  0.57005  0.91714  1.0000
  C   C761      1.0  0.17926  0.61299  0.91817  1.0000
  C   C762      1.0  0.21730  0.60065  0.90347  1.0000
  C   C763      1.0  0.22195  0.61452  0.92956  1.0000
  C   C764      1.0  0.21368  0.54864  0.91562  1.0000
  C   C765      1.0  0.15645  0.61010  0.91349  1.0000
  C   C766      1.0  0.20724  0.60249  0.89061  1.0000
  H   H1227     1.0  0.20389  0.58432  0.93730  1.0000
  H   H1228     1.0  0.23139  0.57852  0.92643  1.0000
  H   H1229     1.0  0.18254  0.57060  0.90941  1.0000
  H   H1230     1.0  0.18166  0.56549  0.92689  1.0000
  H   H1231     1.0  0.17340  0.61424  0.92886  1.0000
  H   H1232     1.0  0.18357  0.63092  0.91335  1.0000
  H   H1233     1.0  0.22224  0.61836  0.90305  1.0000
  H   H1234     1.0  0.23448  0.58801  0.90286  1.0000
  H   H1235     1.0  0.20664  0.62915  0.93086  1.0000
  H   H1236     1.0  0.22986  0.61070  0.93882  1.0000
  H   H1237     1.0  0.23589  0.62061  0.92130  1.0000
  H   H1238     1.0  0.20573  0.53264  0.91584  1.0000
  H   H1239     1.0  0.22596  0.55135  0.90602  1.0000
  H   H1240     1.0  0.22390  0.54422  0.92396  1.0000
  H   H1241     1.0  0.14302  0.62646  0.91432  1.0000
  H   H1242     1.0  0.14814  0.59531  0.92006  1.0000
  H   H1243     1.0  0.15943  0.60739  0.90302  1.0000
  H   H1244     1.0  0.20220  0.58554  0.88970  1.0000
  H   H1245     1.0  0.22114  0.60694  0.88188  1.0000
  H   H1246     1.0  0.19181  0.61710  0.88984  1.0000
  H   H1247     1.0  0.28921  0.63934  0.75925  1.0000
  H   H1248     1.0  0.24554  0.64203  0.73422  1.0000
  H   H1249     1.0  0.27867  0.51569  0.88283  1.0000
  H   H1250     1.0  0.20805  0.94213  0.88306  1.0000
  H   H1251     1.0  0.23555  0.57158  0.85310  1.0000
  H   H1252     1.0  0.27883  0.78439  0.76280  1.0000
  H   H1253     1.0  0.31975  0.57651  0.76380  1.0000
  H   H1254     1.0  0.03279  0.68275  0.94797  1.0000
  H   H1255     1.0  0.23458  0.87479  0.86299  1.0000
  C   C767      1.0  0.04074  0.85322  0.93242  1.0000
  C   C768      1.0  0.02248  0.68242  0.94010  1.0000
  C   C769      1.0  0.05342  0.84102  0.92041  1.0000
  H   H1256     1.0  0.31104  0.49443  0.76161  1.0000
  H   H1257     1.0  0.05393  0.66267  0.93016  1.0000
  H   H1258     1.0  0.24994  0.58810  0.83857  1.0000
  C   C770      1.0  0.14028  0.88878  0.82568  1.0000
  C   C771      1.0  0.25052  0.95382  0.83641  1.0000
  H   H1259     1.0  0.13274  0.90871  0.79992  1.0000
  C   C772      1.0  0.28497  0.58500  0.74802  1.0000
  C   C773      1.0  0.22845  0.97472  0.75057  1.0000
  H   H1260     1.0  0.05458  0.85562  0.91170  1.0000
  H   H1261     1.0  0.05167  0.59481  0.95641  1.0000
  C   C774      1.0  0.21891  0.75438  0.76084  1.0000
  H   H1262     1.0  0.27617  0.52114  0.85577  1.0000
  H   H1263     1.0  0.23425  0.60630  0.72884  1.0000
  C   C775      1.0  0.01938  0.83389  0.91210  1.0000
  H   H1264     1.0  0.31112  0.59772  0.87605  1.0000
  C   C776      1.0  0.99535  0.66524  0.88939  1.0000
  H   H1265     1.0  0.14767  0.96515  0.96606  1.0000
  N   N56       1.0  0.27871  0.56113  0.86600  1.0000
  S   S221      1.0  0.29206  0.87740  0.79411  1.0000
  C   C777      1.0  0.05599  0.79177  0.93742  1.0000
  C   C778      1.0  0.29949  0.54325  0.86095  1.0000
  N   N57       1.0  0.28251  0.58182  0.77356  1.0000
  H   H1266     1.0  0.17403  0.85277  0.83393  1.0000
  C   C779      1.0  0.29436  0.52552  0.85306  1.0000
  S   S222      1.0  0.26517  0.50194  0.96409  1.0000
  H   H1267     1.0  0.18591  0.83532  0.82070  1.0000
  C   C780      1.0  0.15161  0.90166  0.80097  1.0000
  H   H1268     1.0  0.06652  0.80414  0.93954  1.0000
  H   H1269     1.0  0.31359  0.55250  0.85426  1.0000
  H   H1270     1.0  0.30887  0.53281  0.86917  1.0000
  H   H1271     1.0  0.24752  0.94299  0.82942  1.0000
  H   H1272     1.0  0.28622  0.51177  0.77837  1.0000
  H   H1273     1.0  0.21528  0.95271  0.84678  1.0000
  C   C781      1.0  0.23321  0.94994  0.84979  1.0000
  H   H1274     1.0  0.16640  0.48232  0.73095  1.0000
  H   H1275     1.0  0.29803  0.53217  0.84218  1.0000
  C   C782      1.0  0.25806  0.54959  0.87412  1.0000
  H   H1276     1.0  0.05629  0.60913  0.91129  1.0000
  H   H1277     1.0  0.27879  0.61194  0.78349  1.0000
  C   C783      1.0  0.11701  0.90706  0.82529  1.0000
  C   C784      1.0  0.29713  0.60071  0.81905  1.0000
  S   S223      1.0  0.23855  0.83347  0.80342  1.0000
  C   C785      1.0  0.05916  0.80846  0.90775  1.0000
  H   H1278     1.0  0.29149  0.74166  0.76536  1.0000
  H   H1279     1.0  0.28898  0.70869  0.73831  1.0000
  H   H1280     1.0  0.24363  0.56332  0.87814  1.0000
  H   H1281     1.0  0.15169  0.89687  0.83029  1.0000
  H   H1282     1.0  0.03738  0.60748  0.97077  1.0000
  C   C786      1.0  0.28769  0.75031  0.75528  1.0000
  H   H1283     1.0  0.21628  0.73567  0.76214  1.0000
  H   H1284     1.0  0.30377  0.70253  0.75273  1.0000
  H   H1285     1.0  0.00023  0.65078  0.88373  1.0000
  H   H1286     1.0  0.24926  0.71210  0.75594  1.0000
  C   C787      1.0  0.14502  0.86051  0.80983  1.0000
  H   H1287     1.0  0.20608  0.76235  0.76888  1.0000
  Fe  Fe109     1.0  0.28661  0.89592  0.81199  1.0000
  H   H1288     1.0  0.26074  0.55713  0.84238  1.0000
  H   H1289     1.0  0.11354  0.87959  0.80065  1.0000
  H   H1290     1.0  0.27232  0.50551  0.79536  1.0000
  H   H1291     1.0  0.29682  0.63659  0.82168  1.0000
  H   H1292     1.0  0.28340  0.78768  0.74472  1.0000
  H   H1293     1.0  0.26297  0.87919  0.86630  1.0000
  H   H1294     1.0  0.30423  0.57766  0.74609  1.0000
  C   C788      1.0  0.32122  0.92328  0.82699  1.0000
  C   C789      1.0  0.24433  0.75683  0.76205  1.0000
  H   H1295     1.0  0.15616  0.85445  0.80066  1.0000
  C   C790      1.0  0.27978  0.92930  0.86277  1.0000
  N   N58       1.0  0.17060  0.73778  0.85598  1.0000
  C   C791      1.0  0.18119  0.71295  0.86191  1.0000
  C   C792      1.0  0.17974  0.74109  0.84116  1.0000
  C   C793      1.0  0.14365  0.73979  0.85869  1.0000
  C   C794      1.0  0.17833  0.75513  0.86261  1.0000
  C   C795      1.0  0.17181  0.70465  0.87679  1.0000
  C   C796      1.0  0.20710  0.73784  0.83684  1.0000
  C   C797      1.0  0.12960  0.75620  0.84823  1.0000
  C   C798      1.0  0.17093  0.78170  0.85730  1.0000
  H   H1296     1.0  0.17817  0.69969  0.85630  1.0000
  H   H1297     1.0  0.20088  0.71107  0.86106  1.0000
  H   H1298     1.0  0.17266  0.75900  0.83607  1.0000
  H   H1299     1.0  0.17324  0.72829  0.83660  1.0000
  H   H1300     1.0  0.13823  0.72217  0.85956  1.0000
  H   H1301     1.0  0.13601  0.74547  0.86849  1.0000
  H   H1302     1.0  0.17090  0.75269  0.87345  1.0000
  H   H1303     1.0  0.19805  0.75171  0.86202  1.0000
  H   H1304     1.0  0.15222  0.70531  0.87891  1.0000
  H   H1305     1.0  0.17982  0.68573  0.87966  1.0000
  H   H1306     1.0  0.17694  0.71497  0.88335  1.0000
  H   H1307     1.0  0.21538  0.74987  0.84088  1.0000
  H   H1308     1.0  0.21566  0.71907  0.83944  1.0000
  H   H1309     1.0  0.21120  0.74233  0.82580  1.0000
  H   H1310     1.0  0.13234  0.74823  0.83906  1.0000
  H   H1311     1.0  0.13418  0.77432  0.84553  1.0000
  H   H1312     1.0  0.11021  0.75795  0.85234  1.0000
  H   H1313     1.0  0.17832  0.78663  0.84662  1.0000
  H   H1314     1.0  0.17813  0.79235  0.86286  1.0000
  H   H1315     1.0  0.15128  0.78698  0.85914  1.0000
  H   H1316     1.0  0.24376  0.90735  0.73912  1.0000
  H   H1317     1.0  0.30626  0.50820  0.85523  1.0000
  C   C799      1.0  0.24791  0.90671  0.85075  1.0000
  C   C800      1.0  0.24635  0.74155  0.73245  1.0000
  C   C801      1.0  0.30742  0.58836  0.86855  1.0000
  H   H1318     1.0  0.25574  0.77308  0.73686  1.0000
  H   H1319     1.0  0.30807  0.77877  0.75359  1.0000
  C   C802      1.0  0.30659  0.48740  0.90599  1.0000
  H   H1320     1.0  0.20251  0.91771  0.86029  1.0000
  H   H1321     1.0  0.21634  0.90413  0.87429  1.0000
  H   H1322     1.0  0.26537  0.90955  0.84453  1.0000
  H   H1323     1.0  0.23604  0.90703  0.84352  1.0000
  H   H1324     1.0  0.30919  0.61318  0.75585  1.0000
  H   H1325     1.0  0.26959  0.94970  0.83736  1.0000
  H   H1326     1.0  0.18185  0.93435  0.87979  1.0000
  C   C803      1.0  0.29832  0.62200  0.76403  1.0000
  H   H1327     1.0  0.24643  0.94269  0.87387  1.0000
  H   H1328     1.0  0.01925  0.60113  0.96026  1.0000
  H   H1329     1.0  0.28950  0.92886  0.87103  1.0000
  H   H1330     1.0  0.24011  0.95129  0.93512  1.0000
  H   H1331     1.0  0.24809  0.52127  0.89028  1.0000
  H   H1332     1.0  0.02486  0.64509  0.95881  1.0000
  C   C804      1.0  0.26576  0.71804  0.75687  1.0000
  H   H1333     1.0  0.26111  0.59641  0.85831  1.0000
  H   H1334     1.0  0.05054  0.86760  0.93287  1.0000
  H   H1335     1.0  0.10825  0.90855  0.83571  1.0000
  H   H1336     1.0  0.24947  0.54136  0.86801  1.0000
  H   H1337     1.0  0.27486  0.57404  0.79516  1.0000
  H   H1338     1.0  0.10668  0.86478  0.81788  1.0000
  H   H1339     1.0  0.02889  0.66727  0.92222  1.0000
  C   C805      1.0  0.24848  0.97923  0.91846  1.0000
  C   C806      1.0  0.32008  0.57222  0.78472  1.0000
  H   H1340     1.0  0.24653  0.75037  0.77265  1.0000
  H   H1341     1.0  0.15961  0.92833  0.81134  1.0000
  H   H1342     1.0  0.00629  0.84292  0.91965  1.0000
  C   C807      1.0  0.03672  0.63294  0.95232  1.0000
  H   H1343     1.0  0.26699  0.71256  0.76765  1.0000
  H   H1344     1.0  0.30211  0.56337  0.81799  1.0000
  H   H1345     1.0  0.19493  0.95751  0.86853  1.0000
  H   H1346     1.0  0.28153  0.94641  0.85600  1.0000
  H   H1347     1.0  0.29645  0.95794  0.73895  1.0000
  H   H1348     1.0  0.27196  0.58644  0.87965  1.0000
  C   C808      1.0  0.29465  0.52382  0.91548  1.0000
  H   H1349     1.0  0.14716  0.84506  0.81802  1.0000
  C   C809      1.0  0.26856  0.57066  0.78641  1.0000
  C   C810      1.0  0.18599  0.85212  0.82421  1.0000
  C   C811      1.0  0.27276  0.57641  0.76228  1.0000
  H   H1350     1.0  0.02220  0.86177  0.93143  1.0000
  C   C812      1.0  0.24132  0.57923  0.78873  1.0000
  C   C813      1.0  0.28922  0.77693  0.75393  1.0000
  Fe  Fe110     1.0  0.21795  0.55853  0.96649  1.0000
  N   N59       1.0  0.15359  0.88160  0.81263  1.0000
  H   H1351     1.0  0.27145  0.55096  0.78724  1.0000
  H   H1352     1.0  0.05265  0.79225  0.90671  1.0000
  H   H1353     1.0  0.04378  0.60123  0.93570  1.0000
  H   H1354     1.0  0.26140  0.86897  0.85150  1.0000
  H   H1355     1.0  0.04872  0.78165  0.94715  1.0000
  H   H1356     1.0  0.25376  0.58469  0.76257  1.0000
  H   H1357     1.0  0.26156  0.61707  0.77069  1.0000
  C   C814      1.0  0.99743  0.89905  0.91158  1.0000
  H   H1358     1.0  0.23669  0.59886  0.78770  1.0000
  H   H1359     1.0  0.23230  0.57263  0.78207  1.0000
  H   H1360     1.0  0.23372  0.57195  0.79910  1.0000
  H   H1361     1.0  0.28189  0.60470  0.74554  1.0000
  C   C815      1.0  0.03516  0.80465  0.93008  1.0000
  H   H1362     1.0  0.18724  0.88870  0.81581  1.0000
  H   H1363     1.0  0.23275  0.96499  0.85503  1.0000
  H   H1364     1.0  0.07943  0.81130  0.88767  1.0000
  H   H1365     1.0  0.27312  0.55688  0.76330  1.0000
  H   H1366     1.0  0.07296  0.83872  0.89388  1.0000
  H   H1367     1.0  0.20096  0.97727  0.89793  1.0000
  H   H1368     1.0  0.28032  0.49156  0.92378  1.0000
  H   H1369     1.0  0.28606  0.58479  0.84722  1.0000
  H   H1370     1.0  0.07221  0.83408  0.92188  1.0000
  H   H1371     1.0  0.26586  0.49810  0.76487  1.0000
  H   H1372     1.0  0.13586  0.87288  0.83309  1.0000
  H   H1373     1.0  0.27188  0.91628  0.73235  1.0000
  S   S224      1.0  0.20190  0.96842  0.95626  1.0000
  C   C816      1.0  0.03605  0.60752  0.96025  1.0000
  H   H1374     1.0  0.99497  0.96689  0.89793  1.0000
  H   H1375     1.0  0.24683  0.97273  0.83158  1.0000
  H   H1376     1.0  0.04126  0.63901  0.91040  1.0000
  C   C817      1.0  0.03440  0.66222  0.93213  1.0000
  H   H1377     1.0  0.23973  0.95868  0.89765  1.0000
  H   H1378     1.0  0.15639  0.93880  0.79424  1.0000
  H   H1379     1.0  0.06809  0.77861  0.93172  1.0000
  H   H1380     1.0  0.30279  0.60222  0.86002  1.0000
  H   H1381     1.0  0.26830  0.53729  0.89402  1.0000
  H   H1382     1.0  0.26157  0.94032  0.92209  1.0000
  C   C818      1.0  0.16328  0.92318  0.80133  1.0000
  H   H1383     1.0  0.30856  0.97740  0.75837  1.0000
  H   H1384     1.0  0.16233  0.95524  0.83909  1.0000
  H   H1385     1.0  0.25363  0.91122  0.87654  1.0000
  C   C819      1.0  0.11870  0.86397  0.80817  1.0000
  H   H1386     1.0  0.19039  0.87012  0.80380  1.0000
  H   H1387     1.0  0.27653  0.57874  0.74093  1.0000
  H   H1388     1.0  0.04994  0.82800  0.88838  1.0000
  H   H1389     1.0  0.02482  0.61428  0.91644  1.0000
  C   C820      1.0  0.26389  0.98058  0.73438  1.0000
  N   N60       1.0  0.23773  0.92623  0.85891  1.0000
  H   H1390     1.0  0.20940  0.97921  0.75377  1.0000
  H   H1391     1.0  0.12062  0.92511  0.82046  1.0000
  C   C821      1.0  0.31082  0.53460  0.90521  1.0000
  C   C822      1.0  0.17978  0.87404  0.81356  1.0000
  H   H1392     1.0  0.10397  0.90206  0.82038  1.0000
  H   H1393     1.0  0.02726  0.79028  0.92781  1.0000
  H   H1394     1.0  0.28901  0.91416  0.85767  1.0000
  H   H1395     1.0  0.15996  0.89511  0.79145  1.0000
  C   C823      1.0  0.28709  0.57396  0.87504  1.0000
  H   H1396     1.0  0.28027  0.75112  0.73208  1.0000
  C   C824      1.0  0.19922  0.94005  0.87493  1.0000
  H   H1397     1.0  0.23255  0.73291  0.73964  1.0000
  C   C825      1.0  0.28748  0.49915  0.78782  1.0000
  C   C826      1.0  0.04143  0.62102  0.91645  1.0000
  H   H1398     1.0  0.23013  0.94849  0.92047  1.0000
  H   H1399     1.0  0.31229  0.55303  0.90475  1.0000
  H   H1400     1.0  0.21396  0.76441  0.75126  1.0000
  H   H1401     1.0  0.06474  0.62115  0.93021  1.0000
  H   H1402     1.0  0.99334  0.64035  0.94977  1.0000
  C   C827      1.0  0.98956  0.64973  0.92928  1.0000
  C   C828      1.0  0.00367  0.63514  0.94024  1.0000
  S   S225      1.0  0.20423  0.51552  0.73088  1.0000
  H   H1403     1.0  0.28872  0.97342  0.77371  1.0000
  H   H1404     1.0  0.30407  0.49987  0.79140  1.0000
  H   H1405     1.0  0.99141  0.90180  0.92179  1.0000
  C   C829      1.0  0.24502  0.95325  0.92410  1.0000
  H   H1406     1.0  0.31028  0.62652  0.76994  1.0000
  C   C830      1.0  0.25589  0.91193  0.72958  1.0000
  H   H1407     1.0  0.01718  0.80778  0.89964  1.0000
  C   C831      1.0  0.98952  0.88899  0.89146  1.0000
  Fe  Fe111     1.0  0.22541  0.50459  0.97131  1.0000
  H   H1408     1.0  0.31641  0.59060  0.78694  1.0000
  H   H1409     1.0  0.27895  0.95107  0.90138  1.0000
  C   C832      1.0  0.27803  0.48629  0.75839  1.0000
  H   H1410     1.0  0.31429  0.55984  0.79390  1.0000
  S   S226      1.0  0.31090  0.89668  0.82663  1.0000
  H   H1411     1.0  0.99812  0.80484  0.91583  1.0000
  C   C833      1.0  0.29340  0.97675  0.88559  1.0000
  H   H1412     1.0  0.02251  0.69983  0.93330  1.0000
  H   H1413     1.0  0.99815  0.64695  0.91911  1.0000
  H   H1414     1.0  0.31061  0.96430  0.88428  1.0000
  C   C834      1.0  0.16516  0.97877  0.92521  1.0000
  C   C835      1.0  0.28010  0.97032  0.89998  1.0000
  H   H1415     1.0  0.27999  0.49667  0.74811  1.0000
  H   H1416     1.0  0.28331  0.97496  0.87796  1.0000
  H   H1417     1.0  0.31249  0.94133  0.80796  1.0000
  C   C836      1.0  0.31996  0.94251  0.81649  1.0000
  H   H1418     1.0  0.99072  0.82880  0.90288  1.0000
  H   H1419     1.0  0.29229  0.97163  0.90674  1.0000
  Fe  Fe112     1.0  0.21487  0.55189  0.72705  1.0000
  H   H1420     1.0  0.31767  0.96802  0.97578  1.0000
  C   C837      1.0  0.31991  0.98142  0.96653  1.0000
  C   C838      1.0  0.32221  0.49847  0.89548  1.0000
  Fe  Fe113     1.0  0.55006  0.06241  0.06388  1.0000
  S   S227      1.0  0.56609  0.03779  0.04924  1.0000
  S   S228      1.0  0.50966  0.07335  0.06854  1.0000
  Fe  Fe114     1.0  0.59839  0.05891  0.07339  1.0000
  S   S229      1.0  0.61703  0.03279  0.05981  1.0000
  S   S230      1.0  0.62109  0.06600  0.08735  1.0000
  Fe  Fe115     1.0  0.59745  0.05740  0.04448  1.0000
  S   S231      1.0  0.61624  0.07343  0.02425  1.0000
  Fe  Fe116     1.0  0.58396  0.01589  0.06604  1.0000
  H   H1421     1.0  0.39738  0.11270  0.02584  1.0000
  S   S232      1.0  0.57991  0.08435  0.05786  1.0000
  S   S233      1.0  0.56689  0.03965  0.08088  1.0000
  Fe  Fe117     1.0  0.35292  0.04259  0.03473  1.0000
  C   C839      1.0  0.63949  0.05689  0.01439  1.0000
  C   C840      1.0  0.44413  0.98427  0.04319  1.0000
  Fe  Fe118     1.0  0.40168  0.04666  0.04132  1.0000
  S   S234      1.0  0.39220  0.03116  0.06270  1.0000
  S   S235      1.0  0.43892  0.05555  0.03327  1.0000
  Fe  Fe119     1.0  0.37713  0.00475  0.05525  1.0000
  H   H1422     1.0  0.59093  0.04424  0.98148  1.0000
  Fe  Fe120     1.0  0.35622  0.05349  0.06179  1.0000
  C   C841      1.0  0.50792  0.99965  0.05721  1.0000
  S   S236      1.0  0.38886  0.01877  0.03353  1.0000
  S   S237      1.0  0.36681  0.07183  0.04088  1.0000
  C   C842      1.0  0.64342  0.47260  0.07909  1.0000
  H   H1423     1.0  0.38442  0.09860  0.08541  1.0000
  C   C843      1.0  0.63775  0.32047  0.12711  1.0000
  H   H1424     1.0  0.45804  0.01411  0.06421  1.0000
  N   N61       1.0  0.32937  0.05553  0.21654  1.0000
  H   H1425     1.0  0.36321  0.17236  0.05808  1.0000
  H   H1426     1.0  0.61224  0.45148  0.10917  1.0000
  H   H1427     1.0  0.64847  0.46170  0.02707  1.0000
  H   H1428     1.0  0.32527  0.00462  0.97872  1.0000
  H   H1429     1.0  0.36222  0.14245  0.05729  1.0000
  H   H1430     1.0  0.63454  0.00874  0.13541  1.0000
  H   H1431     1.0  0.62488  0.10879  0.04276  1.0000
  C   C844      1.0  0.63178  0.09301  0.08641  1.0000
  C   C845      1.0  0.62562  0.11331  0.07717  1.0000
  C   C846      1.0  0.63169  0.98805  0.12026  1.0000
  H   H1432     1.0  0.38131  0.01490  0.20832  1.0000
  H   H1433     1.0  0.52767  0.99697  0.08705  1.0000
  C   C847      1.0  0.64400  0.03203  0.01703  1.0000
  H   H1434     1.0  0.61351  0.11299  0.07056  1.0000
  C   C848      1.0  0.45619  0.99561  0.06902  1.0000
  H   H1435     1.0  0.35647  0.00473  0.12312  1.0000
  H   H1436     1.0  0.40215  0.14109  0.02809  1.0000
  H   H1437     1.0  0.63804  0.13571  0.03963  1.0000
  H   H1438     1.0  0.63020  0.14980  0.06937  1.0000
  S   S238      1.0  0.32903  0.05647  0.01874  1.0000
  H   H1439     1.0  0.63332  0.02250  0.02539  1.0000
  H   H1440     1.0  0.36732  0.05559  0.21417  1.0000
  C   C849      1.0  0.65347  0.06903  0.00347  1.0000
  H   H1441     1.0  0.63986  0.98588  0.08118  1.0000
  C   C850      1.0  0.62731  0.45392  0.10128  1.0000
  H   H1442     1.0  0.63683  0.34340  0.10283  1.0000
  S   S239      1.0  0.34012  0.02600  0.05585  1.0000
  C   C851      1.0  0.49073  0.06655  0.05890  1.0000
  C   C852      1.0  0.46693  0.06452  0.06462  1.0000
  C   C853      1.0  0.45105  0.06038  0.05700  1.0000
  C   C854      1.0  0.45871  0.05877  0.04352  1.0000
  C   C855      1.0  0.48256  0.06051  0.03786  1.0000
  C   C856      1.0  0.49856  0.06416  0.04553  1.0000
  H   H1443     1.0  0.46076  0.06625  0.07497  1.0000
  H   H1444     1.0  0.43283  0.05875  0.06153  1.0000
  H   H1445     1.0  0.48866  0.05930  0.02743  1.0000
  H   H1446     1.0  0.51679  0.06584  0.04098  1.0000
  C   C857      1.0  0.65081  0.13500  0.08508  1.0000
  H   H1447     1.0  0.64984  0.01131  0.97877  1.0000
  H   H1448     1.0  0.61309  0.02513  0.99069  1.0000
  C   C858      1.0  0.65438  0.37388  0.10024  1.0000
  S   S240      1.0  0.34984  0.47443  0.07498  1.0000
  H   H1449     1.0  0.49836  0.01351  0.06317  1.0000
  C   C859      1.0  0.62393  0.36321  0.12686  1.0000
  H   H1450     1.0  0.65000  0.08828  0.00133  1.0000
  H   H1451     1.0  0.65353  0.04735  0.14987  1.0000
  C   C860      1.0  0.35466  0.04258  0.21651  1.0000
  C   C861      1.0  0.62998  0.99141  0.13480  1.0000
  C   C862      1.0  0.65318  0.05399  0.18605  1.0000
  C   C863      1.0  0.32467  0.11238  0.06533  1.0000
  H   H1452     1.0  0.61748  0.00168  0.11609  1.0000
  H   H1453     1.0  0.44702  0.00577  0.08862  1.0000
  H   H1454     1.0  0.32998  0.43104  0.08358  1.0000
  H   H1455     1.0  0.50593  0.00604  0.10057  1.0000
  C   C864      1.0  0.47132  0.98314  0.12094  1.0000
  H   H1456     1.0  0.60279  0.05500  0.99330  1.0000
  H   H1457     1.0  0.64297  0.02720  0.10503  1.0000
  H   H1458     1.0  0.41115  0.98352  0.10268  1.0000
  H   H1459     1.0  0.42885  0.99285  0.04980  1.0000
  H   H1460     1.0  0.46970  0.13766  0.05237  1.0000
  H   H1461     1.0  0.62301  0.31835  0.12227  1.0000
  C   C865      1.0  0.62399  0.46967  0.08936  1.0000
  H   H1462     1.0  0.45393  0.12308  0.06724  1.0000
  H   H1463     1.0  0.33577  0.10554  0.05683  1.0000
  H   H1464     1.0  0.64243  0.05308  0.97981  1.0000
  H   H1465     1.0  0.63719  0.06525  0.19077  1.0000
  H   H1466     1.0  0.58755  0.37983  0.12484  1.0000
  C   C866      1.0  0.60083  0.36490  0.12124  1.0000
  H   H1467     1.0  0.61887  0.35965  0.13789  1.0000
  H   H1468     1.0  0.37091  0.12613  0.07710  1.0000
  H   H1469     1.0  0.42675  0.11643  0.02664  1.0000
  C   C867      1.0  0.32882  0.07096  0.20297  1.0000
  H   H1470     1.0  0.36885  0.16347  0.04227  1.0000
  H   H1471     1.0  0.34351  0.08178  0.20037  1.0000
  C   C868      1.0  0.60743  0.04344  0.98552  1.0000
  H   H1472     1.0  0.44270  0.15365  0.06032  1.0000
  H   H1473     1.0  0.64277  0.07078  0.16703  1.0000
  H   H1474     1.0  0.33716  0.99668  0.14483  1.0000
  H   H1475     1.0  0.37589  0.09894  0.06995  1.0000
  C   C869      1.0  0.36334  0.02469  0.20670  1.0000
  C   C870      1.0  0.65268  0.01714  0.16522  1.0000
  H   H1476     1.0  0.41391  0.12472  0.07512  1.0000
  C   C871      1.0  0.32641  0.00300  0.11479  1.0000
  H   H1477     1.0  0.59269  0.34856  0.12485  1.0000
  H   H1478     1.0  0.62903  0.38127  0.12457  1.0000
  H   H1479     1.0  0.41085  0.09388  0.04780  1.0000
  H   H1480     1.0  0.63047  0.31799  0.13797  1.0000
  S   S241      1.0  0.33828  0.06879  0.08021  1.0000
  H   H1481     1.0  0.47828  0.99724  0.08373  1.0000
  H   H1482     1.0  0.42052  0.09685  0.06952  1.0000
  H   H1483     1.0  0.62719  0.12702  0.02677  1.0000
  H   H1484     1.0  0.40159  0.16041  0.06170  1.0000
  H   H1485     1.0  0.50782  0.00681  0.04648  1.0000
  H   H1486     1.0  0.40738  0.16328  0.04407  1.0000
  H   H1487     1.0  0.60358  0.36885  0.11021  1.0000
  C   C872      1.0  0.32294  0.09807  0.07791  1.0000
  H   H1488     1.0  0.36526  0.03372  0.19617  1.0000
  C   C873      1.0  0.63508  0.13418  0.07653  1.0000
  C   C874      1.0  0.63653  0.12004  0.03546  1.0000
  H   H1489     1.0  0.32309  0.46326  0.04119  1.0000
  H   H1490     1.0  0.63652  0.02572  0.17128  1.0000
  H   H1491     1.0  0.33131  0.01085  0.10412  1.0000
  C   C875      1.0  0.46828  0.98671  0.04640  1.0000
  N   N62       1.0  0.41135  0.12683  0.05433  1.0000
  C   C876      1.0  0.43777  0.12653  0.04932  1.0000
  C   C877      1.0  0.40264  0.11300  0.04596  1.0000
  C   C878      1.0  0.40848  0.11436  0.06864  1.0000
  C   C879      1.0  0.39902  0.15245  0.05330  1.0000
  C   C880      1.0  0.45146  0.13590  0.05794  1.0000
  C   C881      1.0  0.40762  0.12161  0.03078  1.0000
  C   C882      1.0  0.38333  0.10950  0.07538  1.0000
  C   C883      1.0  0.37195  0.15734  0.05272  1.0000
  H   H1492     1.0  0.44707  0.10821  0.04816  1.0000
  H   H1493     1.0  0.44097  0.13731  0.03917  1.0000
  H   H1494     1.0  0.38322  0.11281  0.04866  1.0000
  H   H1495     1.0  0.52685  0.99621  0.05869  1.0000
  H   H1496     1.0  0.46190  0.99953  0.12487  1.0000
  H   H1497     1.0  0.64656  0.00646  0.15921  1.0000
  H   H1498     1.0  0.33181  0.05985  0.19504  1.0000
  H   H1499     1.0  0.64201  0.01310  0.08591  1.0000
  H   H1500     1.0  0.64910  0.03574  0.18762  1.0000
  H   H1501     1.0  0.53715  0.99796  0.10204  1.0000
  N   N63       1.0  0.64458  0.34486  0.12223  1.0000
  C   C884      1.0  0.52262  0.99353  0.09808  1.0000
  C   C885      1.0  0.46066  0.99287  0.08343  1.0000
  H   H1502     1.0  0.46988  0.00592  0.04336  1.0000
  H   H1503     1.0  0.61129  0.99110  0.14000  1.0000
  C   C886      1.0  0.64729  0.09390  0.09506  1.0000
  H   H1504     1.0  0.35150  0.01117  0.20828  1.0000
  H   H1505     1.0  0.34681  0.02880  0.98354  1.0000
  H   H1506     1.0  0.39069  0.99410  0.08311  1.0000
  H   H1507     1.0  0.38939  0.99022  0.13169  1.0000
  H   H1508     1.0  0.65041  0.35254  0.14837  1.0000
  H   H1509     1.0  0.32615  0.00595  0.02040  1.0000
  H   H1510     1.0  0.61956  0.99569  0.09507  1.0000
  H   H1511     1.0  0.65092  0.28237  0.12900  1.0000
  H   H1512     1.0  0.63781  0.38709  0.10158  1.0000
  H   H1513     1.0  0.50377  0.99332  0.12331  1.0000
  H   H1514     1.0  0.43700  0.99470  0.06968  1.0000
  H   H1515     1.0  0.64554  0.08117  0.05693  1.0000
  C   C887      1.0  0.34931  0.99042  0.12029  1.0000
  C   C888      1.0  0.63830  0.99480  0.08989  1.0000
  C   C889      1.0  0.65008  0.44131  0.10298  1.0000
  H   H1516     1.0  0.65055  0.06632  0.04305  1.0000
  H   H1517     1.0  0.44275  0.99331  0.03281  1.0000
  H   H1518     1.0  0.47182  0.98662  0.11003  1.0000
  H   H1519     1.0  0.36301  0.98493  0.11182  1.0000
  H   H1520     1.0  0.33285  0.08716  0.22356  1.0000
  S   S242      1.0  0.65408  0.42162  0.11788  1.0000
  H   H1521     1.0  0.65199  0.07841  0.10233  1.0000
  C   C890      1.0  0.65072  0.34848  0.10723  1.0000
  H   H1522     1.0  0.60639  0.47925  0.08805  1.0000
  H   H1523     1.0  0.32538  0.05329  0.97711  1.0000
  H   H1524     1.0  0.54902  0.98549  0.12058  1.0000
  C   C891      1.0  0.65507  0.47507  0.03107  1.0000
  H   H1525     1.0  0.33276  0.48176  0.02542  1.0000
  N   N64       1.0  0.65565  0.98972  0.11148  1.0000
  H   H1526     1.0  0.48055  0.45036  0.39575  1.0000
  Fe  Fe121     1.0  0.62723  0.40158  0.40847  1.0000
  S   S243      1.0  0.60676  0.41102  0.39112  1.0000
  C   C892      1.0  0.64497  0.40142  0.35282  1.0000
  Fe  Fe122     1.0  0.61269  0.35174  0.41617  1.0000
  S   S244      1.0  0.59213  0.35808  0.39953  1.0000
  S   S245      1.0  0.61162  0.31437  0.42743  1.0000
  Fe  Fe123     1.0  0.62290  0.37411  0.38714  1.0000
  H   H1527     1.0  0.63819  0.98339  0.46416  1.0000
  Fe  Fe124     1.0  0.57747  0.39369  0.40519  1.0000
  S   S246      1.0  0.53680  0.40352  0.40913  1.0000
  H   H1528     1.0  0.54300  0.09743  0.38765  1.0000
  S   S247      1.0  0.59660  0.38687  0.42287  1.0000
  Fe  Fe125     1.0  0.60575  0.21103  0.39249  1.0000
  S   S248      1.0  0.58603  0.20062  0.37867  1.0000
  S   S249      1.0  0.61985  0.24577  0.38587  1.0000
  Fe  Fe126     1.0  0.60321  0.16474  0.41208  1.0000
  S   S250      1.0  0.58220  0.15086  0.40009  1.0000
  S   S251      1.0  0.61290  0.14365  0.43174  1.0000
  Fe  Fe127     1.0  0.60839  0.16477  0.38261  1.0000
  Fe  Fe128     1.0  0.56120  0.18792  0.39715  1.0000
  S   S252      1.0  0.52194  0.20159  0.39590  1.0000
  S   S253      1.0  0.63069  0.17614  0.39472  1.0000
  S   S254      1.0  0.57962  0.20084  0.41084  1.0000
  Fe  Fe129     1.0  0.36168  0.18662  0.38994  1.0000
  S   S255      1.0  0.39201  0.18158  0.37296  1.0000
  S   S256      1.0  0.34382  0.22374  0.39330  1.0000
  Fe  Fe130     1.0  0.35981  0.13346  0.39830  1.0000
  S   S257      1.0  0.39023  0.12502  0.38186  1.0000
  S   S258      1.0  0.34751  0.09928  0.41017  1.0000
  Fe  Fe131     1.0  0.40793  0.15163  0.38762  1.0000
  S   S259      1.0  0.44679  0.13924  0.39041  1.0000
  Fe  Fe132     1.0  0.37146  0.15551  0.36889  1.0000
  S   S260      1.0  0.36824  0.15311  0.34781  1.0000
  S   S261      1.0  0.37874  0.15821  0.40501  1.0000
  H   H1529     1.0  0.34653  0.05575  0.24166  1.0000
  Fe  Fe133     1.0  0.38010  0.37778  0.40569  1.0000
  S   S262      1.0  0.38886  0.40289  0.38665  1.0000
  S   S263      1.0  0.35979  0.39003  0.42488  1.0000
  Fe  Fe134     1.0  0.40158  0.33371  0.39256  1.0000
  S   S264      1.0  0.41107  0.35598  0.37259  1.0000
  S   S265      1.0  0.41416  0.29406  0.39373  1.0000
  Fe  Fe135     1.0  0.42431  0.37824  0.38415  1.0000
  S   S266      1.0  0.46092  0.38914  0.37621  1.0000
  Fe  Fe136     1.0  0.37481  0.37795  0.37721  1.0000
  S   S267      1.0  0.34320  0.39014  0.36619  1.0000
  S   S268      1.0  0.41654  0.35484  0.40389  1.0000
  S   S269      1.0  0.36449  0.35391  0.39647  1.0000
  C   C893      1.0  0.36323  0.24361  0.39312  1.0000
  C   C894      1.0  0.38784  0.23728  0.38937  1.0000
  C   C895      1.0  0.40312  0.25342  0.38900  1.0000
  C   C896      1.0  0.39401  0.27572  0.39277  1.0000
  C   C897      1.0  0.36934  0.28227  0.39634  1.0000
  C   C898      1.0  0.35397  0.26626  0.39645  1.0000
  H   H1530     1.0  0.39515  0.21996  0.38669  1.0000
  H   H1531     1.0  0.42207  0.24856  0.38579  1.0000
  H   H1532     1.0  0.36216  0.29942  0.39931  1.0000
  C   C899      1.0  0.33095  0.42648  0.43660  1.0000
  C   C900      1.0  0.50171  0.18382  0.39401  1.0000
  C   C901      1.0  0.48214  0.19459  0.38760  1.0000
  C   C902      1.0  0.46494  0.18128  0.38658  1.0000
  C   C903      1.0  0.46714  0.15708  0.39203  1.0000
  C   C904      1.0  0.48680  0.14629  0.39835  1.0000
  C   C905      1.0  0.50401  0.15958  0.39936  1.0000
  H   H1533     1.0  0.48029  0.21331  0.38334  1.0000
  H   H1534     1.0  0.45011  0.18965  0.38147  1.0000
  H   H1535     1.0  0.48865  0.12753  0.40254  1.0000
  H   H1536     1.0  0.51882  0.15114  0.40446  1.0000
  C   C906      1.0  0.61363  0.29525  0.41595  1.0000
  C   C907      1.0  0.62653  0.30002  0.40308  1.0000
  C   C908      1.0  0.62823  0.28475  0.39394  1.0000
  C   C909      1.0  0.61684  0.26473  0.39754  1.0000
  C   C910      1.0  0.60337  0.26024  0.41029  1.0000
  C   C911      1.0  0.60194  0.27538  0.41953  1.0000
  N   N65       1.0  0.33238  0.07384  0.37493  1.0000
  C   C912      1.0  0.39339  0.47023  0.42223  1.0000
  H   H1537     1.0  0.59413  0.24513  0.41303  1.0000
  H   H1538     1.0  0.59158  0.27191  0.42939  1.0000
  C   C913      1.0  0.51755  0.39584  0.39997  1.0000
  C   C914      1.0  0.52248  0.39854  0.38607  1.0000
  C   C915      1.0  0.50530  0.39550  0.37896  1.0000
  C   C916      1.0  0.48325  0.38924  0.38566  1.0000
  C   C917      1.0  0.47894  0.38502  0.39960  1.0000
  C   C918      1.0  0.49581  0.38881  0.40670  1.0000
  H   H1539     1.0  0.53905  0.40414  0.38075  1.0000
  H   H1540     1.0  0.50882  0.39881  0.36817  1.0000
  H   H1541     1.0  0.46219  0.37991  0.40488  1.0000
  H   H1542     1.0  0.49188  0.38662  0.41747  1.0000
  H   H1543     1.0  0.41979  0.47096  0.38105  1.0000
  C   C919      1.0  0.43739  0.45954  0.38175  1.0000
  C   C920      1.0  0.36272  0.38276  0.34053  1.0000
  C   C921      1.0  0.36073  0.38017  0.32763  1.0000
  H   H1544     1.0  0.37941  0.38583  0.34249  1.0000
  H   H1545     1.0  0.37601  0.38105  0.31973  1.0000
  C   C922      1.0  0.33889  0.37723  0.32482  1.0000
  H   H1546     1.0  0.35997  0.31597  0.37208  1.0000
  H   H1547     1.0  0.44220  0.45023  0.37299  1.0000
  C   C923      1.0  0.47435  0.45493  0.40587  1.0000
  H   H1548     1.0  0.40503  0.40794  0.43060  1.0000
  H   H1549     1.0  0.45093  0.27568  0.41122  1.0000
  H   H1550     1.0  0.45393  0.42870  0.39389  1.0000
  C   C924      1.0  0.37504  0.27362  0.35646  1.0000
  N   N66       1.0  0.43024  0.45016  0.40745  1.0000
  C   C925      1.0  0.40555  0.46487  0.40828  1.0000
  C   C926      1.0  0.34274  0.38274  0.35062  1.0000
  H   H1551     1.0  0.62697  0.47951  0.47262  1.0000
  H   H1552     1.0  0.62594  0.20637  0.32858  1.0000
  H   H1553     1.0  0.33490  0.27125  0.39936  1.0000
  H   H1554     1.0  0.33434  0.22990  0.32996  1.0000
  H   H1555     1.0  0.34245  0.03732  0.39891  1.0000
  H   H1556     1.0  0.56504  0.99281  0.47175  1.0000
  H   H1557     1.0  0.62916  0.10714  0.45261  1.0000
  C   C927      1.0  0.34545  0.41989  0.42491  1.0000
  H   H1558     1.0  0.44387  0.47134  0.41824  1.0000
  C   C928      1.0  0.35575  0.03956  0.38962  1.0000
  C   C929      1.0  0.35027  0.09033  0.37331  1.0000
  H   H1559     1.0  0.41121  0.24665  0.41624  1.0000
  H   H1560     1.0  0.45126  0.47068  0.38090  1.0000
  H   H1561     1.0  0.37183  0.28917  0.33115  1.0000
  C   C930      1.0  0.63567  0.18998  0.33322  1.0000
  H   H1562     1.0  0.34783  0.27315  0.33823  1.0000
  S   S270      1.0  0.62591  0.14196  0.36715  1.0000
  H   H1563     1.0  0.43452  0.19198  0.43087  1.0000
  H   H1564     1.0  0.35540  0.14463  0.32401  1.0000
  C   C931      1.0  0.48352  0.21063  0.43159  1.0000
  H   H1565     1.0  0.44825  0.21488  0.44286  1.0000
  H   H1566     1.0  0.58947  0.15523  0.34670  1.0000
  H   H1567     1.0  0.42317  0.39506  0.41685  1.0000
  C   C932      1.0  0.45770  0.22439  0.43352  1.0000
  H   H1568     1.0  0.47429  0.22500  0.40597  1.0000
  H   H1569     1.0  0.64254  0.24152  0.42389  1.0000
  H   H1570     1.0  0.47573  0.26738  0.39898  1.0000
  H   H1571     1.0  0.40504  0.20883  0.41520  1.0000
  H   H1572     1.0  0.61201  0.24344  0.45128  1.0000
  H   H1573     1.0  0.63544  0.31543  0.40018  1.0000
  C   C933      1.0  0.34113  0.14808  0.34448  1.0000
  C   C934      1.0  0.43154  0.42937  0.41873  1.0000
  C   C935      1.0  0.64460  0.11039  0.44512  1.0000
  C   C936      1.0  0.34887  0.43734  0.41362  1.0000
  H   H1574     1.0  0.38807  0.45403  0.42894  1.0000
  N   N67       1.0  0.54239  0.31534  0.39181  1.0000
  C   C937      1.0  0.53644  0.33381  0.40086  1.0000
  C   C938      1.0  0.52764  0.32387  0.38080  1.0000
  C   C939      1.0  0.56859  0.31254  0.38585  1.0000
  C   C940      1.0  0.53718  0.29172  0.39981  1.0000
  C   C941      1.0  0.54585  0.32675  0.41424  1.0000
  C   C942      1.0  0.50097  0.32136  0.38461  1.0000
  C   C943      1.0  0.57651  0.33328  0.37507  1.0000
  C   C944      1.0  0.54086  0.27096  0.39192  1.0000
  H   H1575     1.0  0.54279  0.35059  0.39568  1.0000
  H   H1576     1.0  0.51685  0.33904  0.40358  1.0000
  H   H1577     1.0  0.53525  0.31467  0.37211  1.0000
  H   H1578     1.0  0.52817  0.34311  0.37679  1.0000
  H   H1579     1.0  0.57983  0.30950  0.39369  1.0000
  H   H1580     1.0  0.57425  0.29640  0.38105  1.0000
  H   H1581     1.0  0.54911  0.28536  0.40743  1.0000
  H   H1582     1.0  0.51884  0.29348  0.40575  1.0000
  H   H1583     1.0  0.54333  0.34291  0.41889  1.0000
  H   H1584     1.0  0.53563  0.31391  0.42134  1.0000
  H   H1585     1.0  0.56509  0.31931  0.41312  1.0000
  H   H1586     1.0  0.49167  0.33013  0.39319  1.0000
  H   H1587     1.0  0.49177  0.33022  0.37606  1.0000
  H   H1588     1.0  0.49850  0.30246  0.38669  1.0000
  H   H1589     1.0  0.57012  0.35097  0.37806  1.0000
  H   H1590     1.0  0.57052  0.33342  0.36555  1.0000
  H   H1591     1.0  0.59635  0.33081  0.37299  1.0000
  H   H1592     1.0  0.55858  0.25962  0.39263  1.0000
  H   H1593     1.0  0.53970  0.27680  0.38124  1.0000
  H   H1594     1.0  0.52681  0.25968  0.39610  1.0000
  H   H1595     1.0  0.61498  0.25670  0.35547  1.0000
  C   C945      1.0  0.43649  0.44067  0.39451  1.0000
  H   H1596     1.0  0.38865  0.07626  0.37190  1.0000
  H   H1597     1.0  0.33812  0.20031  0.33975  1.0000
  H   H1598     1.0  0.42943  0.43544  0.42847  1.0000
  C   C946      1.0  0.46620  0.26137  0.40913  1.0000
  H   H1599     1.0  0.39293  0.27492  0.35020  1.0000
  H   H1600     1.0  0.63842  0.28856  0.38405  1.0000
  H   H1601     1.0  0.32820  0.41308  0.44539  1.0000
  H   H1602     1.0  0.37711  0.27477  0.36671  1.0000
  H   H1603     1.0  0.37279  0.24313  0.34723  1.0000
  H   H1604     1.0  0.45829  0.19153  0.41721  1.0000
  H   H1605     1.0  0.61737  0.19850  0.42826  1.0000
  H   H1606     1.0  0.40477  0.47822  0.42691  1.0000
  H   H1607     1.0  0.48412  0.19193  0.43049  1.0000
  H   H1608     1.0  0.61094  0.23596  0.34601  1.0000
  C   C947      1.0  0.36564  0.31666  0.35023  1.0000
  C   C948      1.0  0.33979  0.14436  0.33172  1.0000
  H   H1609     1.0  0.38155  0.31771  0.34219  1.0000
  H   H1610     1.0  0.60992  0.18728  0.35137  1.0000
  H   H1611     1.0  0.60085  0.20431  0.45776  1.0000
  S   S271      1.0  0.65174  0.42816  0.40889  1.0000
  H   H1612     1.0  0.34039  0.32744  0.32928  1.0000
  H   H1613     1.0  0.44742  0.24097  0.40111  1.0000
  H   H1614     1.0  0.33248  0.43161  0.31722  1.0000
  H   H1615     1.0  0.39915  0.21588  0.43714  1.0000
  C   C949      1.0  0.40327  0.23359  0.43738  1.0000
  H   H1616     1.0  0.49143  0.21001  0.44057  1.0000
  C   C950      1.0  0.64551  0.21714  0.44973  1.0000
  H   H1617     1.0  0.42395  0.18238  0.41090  1.0000
  H   H1618     1.0  0.39318  0.45646  0.40450  1.0000
  C   C951      1.0  0.32727  0.06098  0.24107  1.0000
  H   H1619     1.0  0.36749  0.05186  0.39053  1.0000
  H   H1620     1.0  0.48508  0.46825  0.40673  1.0000
  S   S272      1.0  0.63942  0.35820  0.36872  1.0000
  H   H1621     1.0  0.63068  0.40939  0.35981  1.0000
  N   N68       1.0  0.35640  0.29368  0.35145  1.0000
  H   H1622     1.0  0.38607  0.24615  0.43777  1.0000
  C   C952      1.0  0.64582  0.24689  0.33999  1.0000
  C   C953      1.0  0.44758  0.46587  0.40826  1.0000
  H   H1623     1.0  0.39929  0.41902  0.41413  1.0000
  H   H1624     1.0  0.60849  0.22601  0.43406  1.0000
  C   C954      1.0  0.32431  0.46785  0.42582  1.0000
  H   H1625     1.0  0.47887  0.43909  0.41342  1.0000
  H   H1626     1.0  0.37389  0.33995  0.36209  1.0000
  H   H1627     1.0  0.42942  0.21043  0.40134  1.0000
  H   H1628     1.0  0.41001  0.23311  0.44671  1.0000
  C   C955      1.0  0.35406  0.29024  0.33777  1.0000
  H   H1629     1.0  0.65461  0.17442  0.42999  1.0000
  H   H1630     1.0  0.42326  0.26045  0.42639  1.0000
  H   H1631     1.0  0.63351  0.24695  0.46053  1.0000
  N   N69       1.0  0.44432  0.22673  0.42218  1.0000
  H   H1632     1.0  0.35341  0.09207  0.38326  1.0000
  H   H1633     1.0  0.58501  0.19593  0.44687  1.0000
  H   H1634     1.0  0.49524  0.21933  0.42297  1.0000
  H   H1635     1.0  0.47885  0.25962  0.41610  1.0000
  C   C956      1.0  0.63853  0.15736  0.35182  1.0000
  H   H1636     1.0  0.36698  0.02184  0.38898  1.0000
  C   C957      1.0  0.42067  0.24275  0.42495  1.0000
  C   C958      1.0  0.42378  0.20127  0.41156  1.0000
  H   H1637     1.0  0.35975  0.43254  0.40455  1.0000
  H   H1638     1.0  0.35214  0.24561  0.36279  1.0000
  N   N70       1.0  0.55085  0.13547  0.36343  1.0000
  C   C959      1.0  0.56621  0.11418  0.37023  1.0000
  C   C960      1.0  0.55901  0.13656  0.34861  1.0000
  C   C961      1.0  0.52537  0.13103  0.36700  1.0000
  C   C962      1.0  0.55366  0.15739  0.36831  1.0000
  C   C963      1.0  0.55850  0.10702  0.38541  1.0000
  C   C964      1.0  0.58526  0.13974  0.34350  1.0000
  C   C965      1.0  0.50634  0.15018  0.36090  1.0000
  C   C966      1.0  0.54696  0.18185  0.35957  1.0000
  H   H1639     1.0  0.56712  0.09811  0.36571  1.0000
  H   H1640     1.0  0.58499  0.11724  0.36883  1.0000
  H   H1641     1.0  0.54810  0.15105  0.34272  1.0000
  H   H1642     1.0  0.55657  0.12004  0.34552  1.0000
  H   H1643     1.0  0.52403  0.11380  0.36426  1.0000
  H   H1644     1.0  0.51917  0.12928  0.37791  1.0000
  H   H1645     1.0  0.54316  0.15812  0.37846  1.0000
  H   H1646     1.0  0.57255  0.15637  0.36947  1.0000
  H   H1647     1.0  0.57339  0.09458  0.38961  1.0000
  H   H1648     1.0  0.55416  0.12246  0.39069  1.0000
  C   C967      1.0  0.44094  0.20220  0.42096  1.0000
  H   H1649     1.0  0.59789  0.12358  0.34675  1.0000
  H   H1650     1.0  0.58862  0.14294  0.33243  1.0000
  H   H1651     1.0  0.50974  0.15348  0.34988  1.0000
  H   H1652     1.0  0.50406  0.16696  0.36488  1.0000
  H   H1653     1.0  0.48880  0.14390  0.36400  1.0000
  H   H1654     1.0  0.53652  0.19461  0.36610  1.0000
  H   H1655     1.0  0.53610  0.18203  0.35196  1.0000
  H   H1656     1.0  0.56330  0.18945  0.35463  1.0000
  H   H1657     1.0  0.34199  0.47467  0.40545  1.0000
  C   C968      1.0  0.62661  0.17920  0.34610  1.0000
  C   C969      1.0  0.41375  0.41206  0.42004  1.0000
  H   H1658     1.0  0.42358  0.42926  0.39389  1.0000
  H   H1659     1.0  0.44958  0.41831  0.41769  1.0000
  C   C970      1.0  0.37290  0.32082  0.36298  1.0000
  H   H1660     1.0  0.62926  0.22579  0.35852  1.0000
  C   C971      1.0  0.65246  0.37676  0.35486  1.0000
  H   H1661     1.0  0.34612  0.05864  0.34905  1.0000
  C   C972      1.0  0.37531  0.08333  0.36515  1.0000
  S   S273      1.0  0.33638  0.37618  0.30832  1.0000
  H   H1662     1.0  0.45826  0.24220  0.43576  1.0000
  C   C973      1.0  0.60314  0.19526  0.44905  1.0000
  C   C974      1.0  0.45811  0.23756  0.40923  1.0000
  H   H1663     1.0  0.37650  0.07072  0.35832  1.0000
  H   H1664     1.0  0.35244  0.33232  0.34708  1.0000
  C   C975      1.0  0.61820  0.20765  0.43655  1.0000
  H   H1665     1.0  0.38327  0.23533  0.36267  1.0000
  H   H1666     1.0  0.64173  0.21099  0.40981  1.0000
  C   C976      1.0  0.62424  0.24111  0.35077  1.0000
  C   C977      1.0  0.64164  0.12688  0.43341  1.0000
  C   C978      1.0  0.37016  0.24815  0.35723  1.0000
  C   C979      1.0  0.33869  0.46122  0.41415  1.0000
  C   C980      1.0  0.33220  0.21125  0.33058  1.0000
  H   H1667     1.0  0.57860  0.98506  0.45560  1.0000
  C   C981      1.0  0.33308  0.29265  0.36102  1.0000
  H   H1668     1.0  0.32964  0.01301  0.23428  1.0000
  H   H1669     1.0  0.33628  0.28536  0.37141  1.0000
  C   C982      1.0  0.65429  0.22394  0.42532  1.0000
  H   H1670     1.0  0.63829  0.25612  0.44292  1.0000
  H   H1671     1.0  0.63907  0.26186  0.33242  1.0000
  H   H1672     1.0  0.38127  0.09966  0.35887  1.0000
  S   S274      1.0  0.64476  0.36547  0.40346  1.0000
  H   H1673     1.0  0.35671  0.04289  0.36858  1.0000
  H   H1674     1.0  0.39088  0.31068  0.36431  1.0000
  H   H1675     1.0  0.60692  0.99438  0.46585  1.0000
  H   H1676     1.0  0.34689  0.09057  0.34625  1.0000
  S   S275      1.0  0.33997  0.16253  0.38486  1.0000
  C   C983      1.0  0.33540  0.07658  0.34940  1.0000
  C   C984      1.0  0.34342  0.04789  0.37722  1.0000
  H   H1677     1.0  0.32932  0.05659  0.42275  1.0000
  H   H1678     1.0  0.34471  0.20434  0.32209  1.0000
  H   H1679     1.0  0.61045  0.17615  0.45173  1.0000
  H   H1680     1.0  0.64377  0.27147  0.36014  1.0000
  H   H1681     1.0  0.33840  0.30561  0.32003  1.0000
  H   H1682     1.0  0.63976  0.20470  0.45894  1.0000
  C   C985      1.0  0.63140  0.24230  0.45102  1.0000
  H   H1683     1.0  0.65004  0.43483  0.33996  1.0000
  H   H1684     1.0  0.64493  0.41474  0.43820  1.0000
  N   N71       1.0  0.64379  0.20788  0.43748  1.0000
  H   H1685     1.0  0.34295  0.10860  0.36876  1.0000
  H   H1686     1.0  0.32958  0.03645  0.37826  1.0000
  H   H1687     1.0  0.64933  0.17109  0.44729  1.0000
  H   H1688     1.0  0.64828  0.28936  0.34409  1.0000
  H   H1689     1.0  0.65146  0.23132  0.33478  1.0000
  C   C986      1.0  0.33661  0.30918  0.33033  1.0000
  H   H1690     1.0  0.32354  0.07977  0.34181  1.0000
  H   H1691     1.0  0.65440  0.43358  0.37665  1.0000
  H   H1692     1.0  0.32312  0.27993  0.35865  1.0000
  H   H1693     1.0  0.35763  0.03259  0.22643  1.0000
  C   C987      1.0  0.32288  0.07185  0.22679  1.0000
  C   C988      1.0  0.62025  0.03704  0.69689  1.0000
  C   C989      1.0  0.34112  0.08177  0.71349  1.0000
  H   H1694     1.0  0.60439  0.03069  0.70353  1.0000
  H   H1695     1.0  0.61513  0.05644  0.69350  1.0000
  H   H1696     1.0  0.63941  0.06113  0.66848  1.0000
  H   H1697     1.0  0.62698  0.10394  0.71175  1.0000
  H   H1698     1.0  0.35730  0.07248  0.70834  1.0000
  H   H1699     1.0  0.56242  0.32022  0.72297  1.0000
  H   H1700     1.0  0.64207  0.02468  0.65847  1.0000
  H   H1701     1.0  0.61416  0.03090  0.67818  1.0000
  H   H1702     1.0  0.35990  0.10227  0.72197  1.0000
  H   H1703     1.0  0.59111  0.28499  0.72184  1.0000
  C   C990      1.0  0.62757  0.02357  0.68491  1.0000
  C   C991      1.0  0.34266  0.09862  0.72122  1.0000
  C   C992      1.0  0.65475  0.05095  0.67330  1.0000
  H   H1704     1.0  0.34268  0.46493  0.72356  1.0000
  C   C993      1.0  0.63860  0.10550  0.71837  1.0000
  H   H1705     1.0  0.65412  0.05914  0.68222  1.0000
  H   H1706     1.0  0.62482  0.00489  0.68868  1.0000
  H   H1707     1.0  0.53516  0.35194  0.72146  1.0000
  N   N72       1.0  0.65247  0.02490  0.67734  1.0000
  H   H1708     1.0  0.58333  0.98304  0.48860  1.0000
  H   H1709     1.0  0.63466  0.03440  0.70290  1.0000
  H   H1710     1.0  0.54670  0.29683  0.72432  1.0000
  C   C994      1.0  0.65426  0.98802  0.66636  1.0000
  H   H1711     1.0  0.65264  0.99491  0.70452  1.0000
  C   C995      1.0  0.65555  0.01467  0.66472  1.0000
  H   H1712     1.0  0.32401  0.10561  0.67742  1.0000
  H   H1713     1.0  0.62196  0.98715  0.48020  1.0000
  H   H1714     1.0  0.32407  0.15993  0.70187  1.0000
  H   H1715     1.0  0.63770  0.98304  0.67278  1.0000
  H   H1716     1.0  0.65456  0.98361  0.65639  1.0000
  C   C996      1.0  0.38483  0.44254  0.89689  1.0000
  H   H1717     1.0  0.57624  0.26836  0.73632  1.0000
  Fe  Fe137     1.0  0.37757  0.04658  0.84946  1.0000
  H   H1718     1.0  0.35846  0.15722  0.81107  1.0000
  S   S276      1.0  0.37785  0.08607  0.84357  1.0000
  H   H1719     1.0  0.65120  0.05840  0.89140  1.0000
  H   H1720     1.0  0.52518  0.27949  0.74431  1.0000
  S   S277      1.0  0.34687  0.02611  0.85583  1.0000
  S   S278      1.0  0.39705  0.02736  0.86620  1.0000
  Fe  Fe138     1.0  0.61401  0.02275  0.88219  1.0000
  Fe  Fe139     1.0  0.41577  0.00266  0.85200  1.0000
  H   H1721     1.0  0.51290  0.27286  0.76920  1.0000
  Fe  Fe140     1.0  0.59074  0.05756  0.85986  1.0000
  S   S279      1.0  0.58247  0.02829  0.85132  1.0000
  S   S280      1.0  0.58116  0.09623  0.85049  1.0000
  Fe  Fe141     1.0  0.57020  0.01263  0.87251  1.0000
  H   H1722     1.0  0.32952  0.04506  0.93079  1.0000
  Fe  Fe142     1.0  0.61924  0.01009  0.85447  1.0000
  S   S281      1.0  0.57675  0.04294  0.88113  1.0000
  Fe  Fe143     1.0  0.36868  0.00067  0.84257  1.0000
  S   S282      1.0  0.39766  0.02307  0.83500  1.0000
  C   C997      1.0  0.61224  0.06765  0.79282  1.0000
  C   C998      1.0  0.49395  0.43643  0.78280  1.0000
  H   H1723     1.0  0.62990  0.27457  0.76354  1.0000
  S   S283      1.0  0.36245  0.42107  0.73862  1.0000
  H   H1724     1.0  0.44159  0.28773  0.77052  1.0000
  S   S284      1.0  0.63837  0.14758  0.74554  1.0000
  Fe  Fe144     1.0  0.60268  0.35787  0.77382  1.0000
  S   S285      1.0  0.60368  0.38450  0.75482  1.0000
  Fe  Fe145     1.0  0.58254  0.39660  0.79118  1.0000
  S   S286      1.0  0.58165  0.42595  0.77358  1.0000
  S   S287      1.0  0.56660  0.40395  0.81194  1.0000
  Fe  Fe146     1.0  0.56734  0.40060  0.76460  1.0000
  S   S288      1.0  0.53489  0.41351  0.75453  1.0000
  S   S289      1.0  0.56563  0.37255  0.78287  1.0000
  Fe  Fe147     1.0  0.59996  0.16262  0.75392  1.0000
  S   S290      1.0  0.59319  0.16777  0.77547  1.0000
  Fe  Fe148     1.0  0.54707  0.17720  0.75175  1.0000
  S   S291      1.0  0.53666  0.18244  0.77297  1.0000
  H   H1725     1.0  0.42351  0.21735  0.74680  1.0000
  Fe  Fe149     1.0  0.56834  0.20145  0.76899  1.0000
  S   S292      1.0  0.55775  0.23656  0.77705  1.0000
  Fe  Fe150     1.0  0.56219  0.14886  0.77749  1.0000
  S   S293      1.0  0.55278  0.11736  0.79292  1.0000
  S   S294      1.0  0.57750  0.19803  0.74728  1.0000
  S   S295      1.0  0.57020  0.14181  0.75644  1.0000
  Fe  Fe151     1.0  0.35088  0.14384  0.74589  1.0000
  S   S296      1.0  0.33361  0.17317  0.75764  1.0000
  N   N73       1.0  0.54142  0.31092  0.74264  1.0000
  Fe  Fe152     1.0  0.39803  0.14086  0.75585  1.0000
  S   S297      1.0  0.38360  0.16925  0.76850  1.0000
  S   S298      1.0  0.43557  0.12237  0.75781  1.0000
  Fe  Fe153     1.0  0.35149  0.15100  0.77427  1.0000
  H   H1726     1.0  0.38360  0.46604  0.93162  1.0000
  Fe  Fe154     1.0  0.36725  0.18877  0.75076  1.0000
  S   S299      1.0  0.36745  0.22801  0.74247  1.0000
  S   S300      1.0  0.36696  0.12085  0.76312  1.0000
  S   S301      1.0  0.38358  0.16139  0.73752  1.0000
  Fe  Fe155     1.0  0.37096  0.34201  0.77228  1.0000
  S   S302      1.0  0.39453  0.35467  0.75322  1.0000
  S   S303      1.0  0.35901  0.30580  0.77884  1.0000
  Fe  Fe156     1.0  0.37357  0.38528  0.78474  1.0000
  S   S304      1.0  0.39809  0.40035  0.76687  1.0000
  S   S305      1.0  0.35915  0.40224  0.80322  1.0000
  Fe  Fe157     1.0  0.37312  0.39124  0.75524  1.0000
  H   H1727     1.0  0.63747  0.04681  0.80607  1.0000
  Fe  Fe158     1.0  0.41691  0.36275  0.76657  1.0000
  S   S306      1.0  0.45605  0.34729  0.76582  1.0000
  S   S307      1.0  0.34762  0.37785  0.77323  1.0000
  S   S308      1.0  0.39441  0.34838  0.78551  1.0000
  H   H1728     1.0  0.46157  0.25069  0.73688  1.0000
  C   C999      1.0  0.36747  0.24919  0.75249  1.0000
  C   C1000     1.0  0.36644  0.27330  0.74669  1.0000
  C   C1001     1.0  0.36488  0.29082  0.75456  1.0000
  C   C1002     1.0  0.36400  0.28432  0.76833  1.0000
  C   C1003     1.0  0.36571  0.26012  0.77407  1.0000
  C   C1004     1.0  0.36771  0.24259  0.76616  1.0000
  H   H1729     1.0  0.36637  0.27852  0.73609  1.0000
  H   H1730     1.0  0.36352  0.30942  0.75004  1.0000
  H   H1731     1.0  0.36523  0.25498  0.78471  1.0000
  H   H1732     1.0  0.36901  0.22401  0.77064  1.0000
  C   C1005     1.0  0.37679  0.45571  0.90894  1.0000
  H   H1733     1.0  0.45929  0.19957  0.77857  1.0000
  C   C1006     1.0  0.49716  0.14794  0.75451  1.0000
  C   C1007     1.0  0.47896  0.13391  0.75841  1.0000
  C   C1008     1.0  0.45802  0.14041  0.75280  1.0000
  S   S309      1.0  0.63356  0.01266  0.90027  1.0000
  H   H1734     1.0  0.64956  0.28268  0.81286  1.0000
  H   H1735     1.0  0.51313  0.14292  0.75900  1.0000
  H   H1736     1.0  0.48118  0.11801  0.76579  1.0000
  H   H1737     1.0  0.37531  0.44181  0.91805  1.0000
  Fe  Fe159     1.0  0.61802  0.40737  0.76552  1.0000
  H   H1738     1.0  0.61072  0.27720  0.81938  1.0000
  C   C1009     1.0  0.57513  0.25892  0.77610  1.0000
  C   C1010     1.0  0.56462  0.27912  0.78200  1.0000
  C   C1011     1.0  0.57737  0.29785  0.78103  1.0000
  H   H1739     1.0  0.54645  0.28030  0.78729  1.0000
  H   H1740     1.0  0.56901  0.31335  0.78550  1.0000
  C   C1012     1.0  0.51249  0.39551  0.75810  1.0000
  C   C1013     1.0  0.51585  0.37282  0.76576  1.0000
  C   C1014     1.0  0.49798  0.35861  0.76847  1.0000
  C   C1015     1.0  0.47670  0.36681  0.76335  1.0000
  C   C1016     1.0  0.47306  0.38962  0.75580  1.0000
  C   C1017     1.0  0.49099  0.40393  0.75316  1.0000
  H   H1741     1.0  0.53241  0.36591  0.76936  1.0000
  C   C1018     1.0  0.60096  0.29632  0.77433  1.0000
  H   H1742     1.0  0.59669  0.31446  0.83785  1.0000
  N   N74       1.0  0.61325  0.32518  0.81751  1.0000
  C   C1019     1.0  0.39429  0.45734  0.81498  1.0000
  C   C1020     1.0  0.40143  0.45097  0.80226  1.0000
  C   C1021     1.0  0.39085  0.43407  0.79852  1.0000
  C   C1022     1.0  0.37277  0.42370  0.80743  1.0000
  C   C1023     1.0  0.36513  0.43063  0.82000  1.0000
  C   C1024     1.0  0.37591  0.44733  0.82380  1.0000
  H   H1743     1.0  0.43312  0.19102  0.77514  1.0000
  H   H1744     1.0  0.39667  0.42905  0.78878  1.0000
  H   H1745     1.0  0.35109  0.42272  0.82692  1.0000
  H   H1746     1.0  0.37027  0.45212  0.83362  1.0000
  C   C1025     1.0  0.61278  0.43452  0.83310  1.0000
  C   C1026     1.0  0.58880  0.43345  0.83851  1.0000
  C   C1027     1.0  0.57486  0.42382  0.83200  1.0000
  C   C1028     1.0  0.58453  0.41606  0.81981  1.0000
  C   C1029     1.0  0.60828  0.41782  0.81418  1.0000
  C   C1030     1.0  0.60857  0.34982  0.82114  1.0000
  H   H1747     1.0  0.58135  0.43912  0.84800  1.0000
  H   H1748     1.0  0.48569  0.43512  0.77429  1.0000
  H   H1749     1.0  0.60698  0.24199  0.76483  1.0000
  C   C1031     1.0  0.45556  0.16082  0.74308  1.0000
  C   C1032     1.0  0.61159  0.27597  0.76863  1.0000
  H   H1750     1.0  0.48907  0.08218  0.78579  1.0000
  H   H1751     1.0  0.36924  0.02564  0.96104  1.0000
  H   H1752     1.0  0.50934  0.32035  0.73380  1.0000
  C   C1033     1.0  0.57405  0.10227  0.83426  1.0000
  C   C1034     1.0  0.56762  0.08465  0.82897  1.0000
  C   C1035     1.0  0.56058  0.08983  0.81647  1.0000
  C   C1036     1.0  0.56078  0.11250  0.80880  1.0000
  C   C1037     1.0  0.56759  0.13025  0.81386  1.0000
  C   C1038     1.0  0.57389  0.12520  0.82667  1.0000
  H   H1753     1.0  0.56776  0.06702  0.83452  1.0000
  H   H1754     1.0  0.55535  0.07601  0.81261  1.0000
  H   H1755     1.0  0.56772  0.14788  0.80799  1.0000
  H   H1756     1.0  0.57876  0.13903  0.83068  1.0000
  C   C1039     1.0  0.36507  0.10152  0.82963  1.0000
  C   C1040     1.0  0.36714  0.12557  0.82526  1.0000
  C   C1041     1.0  0.35725  0.13853  0.81418  1.0000
  C   C1042     1.0  0.34497  0.12758  0.80747  1.0000
  C   C1043     1.0  0.34298  0.10345  0.81177  1.0000
  C   C1044     1.0  0.35325  0.09034  0.82276  1.0000
  H   H1757     1.0  0.59958  0.06974  0.76779  1.0000
  H   H1758     1.0  0.47262  0.18945  0.73088  1.0000
  C   C1045     1.0  0.32997  0.00787  0.90188  1.0000
  H   H1759     1.0  0.35155  0.07179  0.82610  1.0000
  H   H1760     1.0  0.59076  0.35331  0.82748  1.0000
  C   C1046     1.0  0.59868  0.25745  0.76938  1.0000
  H   H1761     1.0  0.32431  0.22524  0.76513  1.0000
  C   C1047     1.0  0.51218  0.00044  0.87029  1.0000
  H   H1762     1.0  0.60645  0.03757  0.93721  1.0000
  H   H1763     1.0  0.40064  0.42855  0.89817  1.0000
  H   H1764     1.0  0.50716  0.33225  0.74850  1.0000
  H   H1765     1.0  0.52483  0.44992  0.81259  1.0000
  C   C1048     1.0  0.49494  0.16803  0.74457  1.0000
  H   H1766     1.0  0.63390  0.09575  0.80250  1.0000
  C   C1049     1.0  0.55463  0.32036  0.75103  1.0000
  H   H1767     1.0  0.53499  0.46774  0.83648  1.0000
  S   S310      1.0  0.35291  0.99008  0.82665  1.0000
  H   H1768     1.0  0.56553  0.35515  0.74874  1.0000
  H   H1769     1.0  0.56479  0.32095  0.82532  1.0000
  C   C1050     1.0  0.47422  0.17425  0.73876  1.0000
  H   H1770     1.0  0.64357  0.35835  0.82210  1.0000
  H   H1771     1.0  0.45171  0.00391  0.87297  1.0000
  H   H1772     1.0  0.62848  0.01414  0.94303  1.0000
  H   H1773     1.0  0.60890  0.11287  0.79561  1.0000
  C   C1051     1.0  0.34391  0.01465  0.94496  1.0000
  H   H1774     1.0  0.65166  0.32283  0.81540  1.0000
  N   N75       1.0  0.50294  0.08280  0.85980  1.0000
  C   C1052     1.0  0.50934  0.08790  0.87224  1.0000
  C   C1053     1.0  0.50519  0.10474  0.84932  1.0000
  C   C1054     1.0  0.52118  0.06237  0.85538  1.0000
  C   C1055     1.0  0.47818  0.07635  0.86311  1.0000
  C   C1056     1.0  0.50946  0.06737  0.88428  1.0000
  C   C1057     1.0  0.48807  0.12758  0.85249  1.0000
  C   C1058     1.0  0.51873  0.05420  0.84257  1.0000
  C   C1059     1.0  0.46461  0.07862  0.85138  1.0000
  H   H1775     1.0  0.52734  0.09340  0.87006  1.0000
  H   H1776     1.0  0.49660  0.10304  0.87598  1.0000
  H   H1777     1.0  0.50267  0.10221  0.83947  1.0000
  H   H1778     1.0  0.52374  0.10876  0.84750  1.0000
  H   H1779     1.0  0.53947  0.06663  0.85411  1.0000
  H   H1780     1.0  0.52068  0.04626  0.86312  1.0000
  H   H1781     1.0  0.47877  0.05767  0.86854  1.0000
  H   H1782     1.0  0.46647  0.08757  0.87018  1.0000
  H   H1783     1.0  0.51213  0.07413  0.89306  1.0000
  H   H1784     1.0  0.49244  0.06023  0.88710  1.0000
  H   H1785     1.0  0.52450  0.05269  0.88256  1.0000
  H   H1786     1.0  0.46929  0.12471  0.85568  1.0000
  H   H1787     1.0  0.49367  0.13510  0.86016  1.0000
  H   H1788     1.0  0.48877  0.14136  0.84336  1.0000
  H   H1789     1.0  0.50241  0.04614  0.84398  1.0000
  H   H1790     1.0  0.53400  0.03993  0.84026  1.0000
  H   H1791     1.0  0.51950  0.06844  0.83373  1.0000
  H   H1792     1.0  0.45708  0.06205  0.85233  1.0000
  H   H1793     1.0  0.47536  0.08133  0.84133  1.0000
  H   H1794     1.0  0.44903  0.09323  0.85194  1.0000
  H   H1795     1.0  0.48026  0.06199  0.80080  1.0000
  H   H1796     1.0  0.56363  0.35028  0.81519  1.0000
  H   H1797     1.0  0.55660  0.42225  0.83648  1.0000
  H   H1798     1.0  0.33299  0.47824  0.77901  1.0000
  H   H1799     1.0  0.49041  0.21285  0.76277  1.0000
  H   H1800     1.0  0.46717  0.25061  0.77277  1.0000
  H   H1801     1.0  0.54194  0.32821  0.75913  1.0000
  N   N76       1.0  0.62813  0.08496  0.78470  1.0000
  C   C1060     1.0  0.61466  0.07956  0.76338  1.0000
  N   N77       1.0  0.63639  0.03893  0.96330  1.0000
  H   H1802     1.0  0.46706  0.22097  0.74471  1.0000
  C   C1061     1.0  0.62655  0.35530  0.82879  1.0000
  H   H1803     1.0  0.41540  0.45895  0.79533  1.0000
  H   H1804     1.0  0.54845  0.27508  0.75377  1.0000
  H   H1805     1.0  0.55155  0.45812  0.79159  1.0000
  H   H1806     1.0  0.43576  0.15078  0.79673  1.0000
  C   C1062     1.0  0.56890  0.33087  0.81509  1.0000
  S   S311      1.0  0.64608  0.99819  0.83709  1.0000
  C   C1063     1.0  0.34905  0.44779  0.77006  1.0000
  C   C1064     1.0  0.47037  0.00191  0.86847  1.0000
  H   H1807     1.0  0.36609  0.44754  0.77347  1.0000
  H   H1808     1.0  0.61043  0.09025  0.75375  1.0000
  H   H1809     1.0  0.38842  0.45489  0.88739  1.0000
  H   H1810     1.0  0.34743  0.42903  0.77044  1.0000
  N   N78       1.0  0.39217  0.47317  0.91009  1.0000
  H   H1811     1.0  0.48237  0.00649  0.88604  1.0000
  S   S312      1.0  0.45613  0.99355  0.84603  1.0000
  H   H1812     1.0  0.62913  0.45299  0.73865  1.0000
  H   H1813     1.0  0.49865  0.45459  0.78080  1.0000
  H   H1814     1.0  0.33041  0.06409  0.75825  1.0000
  H   H1815     1.0  0.41853  0.24749  0.73764  1.0000
  C   C1065     1.0  0.35092  0.03628  0.96154  1.0000
  S   S313      1.0  0.40981  0.47668  0.81972  1.0000
  H   H1816     1.0  0.61244  0.05299  0.78735  1.0000
  S   S314      1.0  0.35139  0.98944  0.89218  1.0000
  C   C1066     1.0  0.65309  0.07149  0.78148  1.0000
  C   C1067     1.0  0.62267  0.03361  0.94195  1.0000
  C   C1068     1.0  0.33363  0.00010  0.96874  1.0000
  H   H1817     1.0  0.51096  0.42373  0.78294  1.0000
  C   C1069     1.0  0.32804  0.45554  0.72838  1.0000
  H   H1818     1.0  0.35319  0.05257  0.95413  1.0000
  H   H1819     1.0  0.52042  0.30061  0.77004  1.0000
  H   H1820     1.0  0.63125  0.06682  0.76111  1.0000
  C   C1070     1.0  0.50313  0.45320  0.83838  1.0000
  C   C1071     1.0  0.60533  0.28268  0.82927  1.0000
  H   H1821     1.0  0.48829  0.42145  0.74716  1.0000
  H   H1822     1.0  0.59330  0.07660  0.79445  1.0000
  H   H1823     1.0  0.62718  0.11015  0.76611  1.0000
  H   H1824     1.0  0.50203  0.44818  0.84936  1.0000
  C   C1072     1.0  0.51710  0.47423  0.83353  1.0000
  H   H1825     1.0  0.63005  0.34127  0.83744  1.0000
  S   S315      1.0  0.40087  0.47627  0.85905  1.0000
  H   H1826     1.0  0.60156  0.03301  0.96134  1.0000
  H   H1827     1.0  0.50699  0.23471  0.76409  1.0000
  C   C1073     1.0  0.61635  0.04226  0.95547  1.0000
  H   H1828     1.0  0.33210  0.00383  0.94248  1.0000
  H   H1829     1.0  0.35479  0.02618  0.92379  1.0000
  H   H1830     1.0  0.33078  0.03968  0.88714  1.0000
  C   C1074     1.0  0.59538  0.32479  0.80884  1.0000
  N   N79       1.0  0.33406  0.02235  0.95829  1.0000
  C   C1075     1.0  0.65433  0.02599  0.90565  1.0000
  C   C1076     1.0  0.53312  0.28830  0.75056  1.0000
  Fe  Fe160     1.0  0.36826  0.00445  0.87127  1.0000
  H   H1831     1.0  0.62784  0.30374  0.83453  1.0000
  C   C1077     1.0  0.32273  0.03188  0.89697  1.0000
  H   H1832     1.0  0.58603  0.28201  0.83281  1.0000
  S   S316      1.0  0.60651  0.99113  0.87500  1.0000
  C   C1078     1.0  0.43207  0.23150  0.73977  1.0000
  H   H1833     1.0  0.53004  0.36353  0.73703  1.0000
  C   C1079     1.0  0.57082  0.33901  0.74393  1.0000
  C   C1080     1.0  0.64604  0.12495  0.73547  1.0000
  H   H1834     1.0  0.33232  0.22483  0.78625  1.0000
  C   C1081     1.0  0.64589  0.45867  0.73847  1.0000
  H   H1835     1.0  0.36160  0.00295  0.94526  1.0000
  H   H1836     1.0  0.56634  0.30540  0.75621  1.0000
  H   H1837     1.0  0.55116  0.45823  0.81490  1.0000
  H   H1838     1.0  0.41756  0.44412  0.91828  1.0000
  H   H1839     1.0  0.34314  0.02361  0.73471  1.0000
  C   C1082     1.0  0.51955  0.32830  0.73931  1.0000
  C   C1083     1.0  0.61850  0.05531  0.80661  1.0000
  C   C1084     1.0  0.54022  0.47336  0.79595  1.0000
  H   H1840     1.0  0.42438  0.45281  0.90065  1.0000
  S   S317      1.0  0.32973  0.14482  0.79484  1.0000
  H   H1841     1.0  0.45602  0.36614  0.79537  1.0000
  H   H1842     1.0  0.37616  0.13429  0.83058  1.0000
  C   C1085     1.0  0.33111  0.01048  0.73952  1.0000
  H   H1843     1.0  0.58966  0.33194  0.74519  1.0000
  N   N80       1.0  0.42910  0.09085  0.80046  1.0000
  C   C1086     1.0  0.40754  0.09486  0.79368  1.0000
  C   C1087     1.0  0.43030  0.11422  0.80432  1.0000
  C   C1088     1.0  0.42542  0.07207  0.81275  1.0000
  C   C1089     1.0  0.45076  0.08250  0.79078  1.0000
  C   C1090     1.0  0.40050  0.07246  0.79067  1.0000
  C   C1091     1.0  0.43405  0.13502  0.79268  1.0000
  C   C1092     1.0  0.43900  0.07182  0.82412  1.0000
  C   C1093     1.0  0.47538  0.07989  0.79492  1.0000
  H   H1844     1.0  0.39158  0.10382  0.79979  1.0000
  H   H1845     1.0  0.41005  0.10705  0.78397  1.0000
  H   H1846     1.0  0.44472  0.11263  0.81015  1.0000
  H   H1847     1.0  0.41364  0.12004  0.81113  1.0000
  H   H1848     1.0  0.40625  0.07398  0.81745  1.0000
  H   H1849     1.0  0.42995  0.05390  0.81006  1.0000
  H   H1850     1.0  0.44978  0.06473  0.78869  1.0000
  H   H1851     1.0  0.45122  0.09388  0.78080  1.0000
  H   H1852     1.0  0.38435  0.07802  0.78585  1.0000
  H   H1853     1.0  0.41461  0.06352  0.78357  1.0000
  H   H1854     1.0  0.39564  0.05966  0.79983  1.0000
  H   H1855     1.0  0.33315  0.09502  0.80674  1.0000
  H   H1856     1.0  0.45837  0.07139  0.82077  1.0000
  H   H1857     1.0  0.43667  0.05559  0.83169  1.0000
  H   H1858     1.0  0.43135  0.08725  0.82932  1.0000
  H   H1859     1.0  0.50029  0.23364  0.74825  1.0000
  H   H1860     1.0  0.47685  0.09378  0.80042  1.0000
  C   C1094     1.0  0.34405  0.04407  0.97535  1.0000
  N   N81       1.0  0.44766  0.24562  0.75802  1.0000
  C   C1095     1.0  0.43121  0.26930  0.75629  1.0000
  C   C1096     1.0  0.45336  0.23720  0.74473  1.0000
  C   C1097     1.0  0.47010  0.24969  0.76194  1.0000
  C   C1098     1.0  0.43490  0.22879  0.76882  1.0000
  C   C1099     1.0  0.42548  0.28293  0.76818  1.0000
  H   H1861     1.0  0.64109  0.42717  0.81681  1.0000
  C   C1100     1.0  0.49299  0.23150  0.75907  1.0000
  C   C1101     1.0  0.51898  0.99619  0.85717  1.0000
  H   H1862     1.0  0.43870  0.28158  0.74742  1.0000
  H   H1863     1.0  0.59839  0.33757  0.79938  1.0000
  H   H1864     1.0  0.41640  0.22913  0.76724  1.0000
  S   S318      1.0  0.53346  0.00179  0.88017  1.0000
  H   H1865     1.0  0.47487  0.26723  0.75665  1.0000
  H   H1866     1.0  0.41369  0.26710  0.75434  1.0000
  H   H1867     1.0  0.43211  0.23486  0.77858  1.0000
  H   H1868     1.0  0.48740  0.47538  0.81458  1.0000
  H   H1869     1.0  0.41568  0.27310  0.77721  1.0000
  H   H1870     1.0  0.55755  0.32615  0.80889  1.0000
  H   H1871     1.0  0.41352  0.30000  0.76552  1.0000
  C   C1102     1.0  0.61722  0.09654  0.77248  1.0000
  H   H1872     1.0  0.48452  0.45782  0.83644  1.0000
  H   H1873     1.0  0.63977  0.33583  0.80061  1.0000
  S   S319      1.0  0.62850  0.04046  0.86170  1.0000
  H   H1874     1.0  0.63615  0.04311  0.93491  1.0000
  H   H1875     1.0  0.35820  0.46481  0.90822  1.0000
  H   H1876     1.0  0.41865  0.14048  0.78730  1.0000
  H   H1877     1.0  0.61477  0.26863  0.83625  1.0000
  C   C1103     1.0  0.44704  0.20252  0.77123  1.0000
  N   N82       1.0  0.46946  0.40883  0.80072  1.0000
  C   C1104     1.0  0.45590  0.40512  0.79051  1.0000
  C   C1105     1.0  0.47675  0.43311  0.79620  1.0000
  C   C1106     1.0  0.45288  0.40788  0.81400  1.0000
  C   C1107     1.0  0.49067  0.38912  0.80135  1.0000
  C   C1108     1.0  0.44327  0.38304  0.79415  1.0000
  C   C1109     1.0  0.45814  0.42101  0.82434  1.0000
  C   C1110     1.0  0.50841  0.39036  0.81033  1.0000
  H   H1878     1.0  0.44198  0.42087  0.78829  1.0000
  H   H1879     1.0  0.46791  0.40336  0.78087  1.0000
  H   H1880     1.0  0.48557  0.43798  0.80355  1.0000
  H   H1881     1.0  0.46061  0.44708  0.79542  1.0000
  H   H1882     1.0  0.43425  0.41578  0.81260  1.0000
  H   H1883     1.0  0.45204  0.38909  0.81890  1.0000
  H   H1884     1.0  0.48466  0.37160  0.80509  1.0000
  H   H1885     1.0  0.50090  0.38706  0.79126  1.0000
  H   H1886     1.0  0.42919  0.38376  0.80310  1.0000
  H   H1887     1.0  0.43415  0.38251  0.78581  1.0000
  H   H1888     1.0  0.60796  0.36373  0.81208  1.0000
  H   H1889     1.0  0.45442  0.44062  0.82119  1.0000
  H   H1890     1.0  0.47654  0.41560  0.82647  1.0000
  H   H1891     1.0  0.44582  0.41697  0.83388  1.0000
  H   H1892     1.0  0.50255  0.38216  0.82079  1.0000
  H   H1893     1.0  0.51177  0.40854  0.80999  1.0000
  H   H1894     1.0  0.52615  0.38045  0.80663  1.0000
  S   S320      1.0  0.51763  0.18578  0.73935  1.0000
  C   C1111     1.0  0.34696  0.03452  0.93277  1.0000
  H   H1895     1.0  0.59908  0.10664  0.77540  1.0000
  S   S321      1.0  0.61965  0.37936  0.78389  1.0000
  H   H1896     1.0  0.49673  0.29944  0.76124  1.0000
  H   H1897     1.0  0.37021  0.43341  0.89601  1.0000
  S   S322      1.0  0.65261  0.42272  0.76017  1.0000
  H   H1898     1.0  0.63478  0.29379  0.79837  1.0000
  H   H1899     1.0  0.35075  0.45713  0.75959  1.0000
  C   C1112     1.0  0.62249  0.42660  0.82096  1.0000
  H   H1900     1.0  0.45672  0.39601  0.75174  1.0000
  C   C1113     1.0  0.63808  0.32153  0.80951  1.0000
  S   S323      1.0  0.61806  0.31889  0.77334  1.0000
  H   H1901     1.0  0.50081  0.34101  0.77434  1.0000
  H   H1902     1.0  0.61590  0.41196  0.80477  1.0000
  C   C1114     1.0  0.32840  0.46042  0.77933  1.0000
  S   S324      1.0  0.63145  0.44296  0.84215  1.0000
  H   H1903     1.0  0.43962  0.16580  0.73857  1.0000
  C   C1115     1.0  0.51473  0.29088  0.76342  1.0000
  H   H1904     1.0  0.65070  0.08670  0.95700  1.0000
  H   H1905     1.0  0.45068  0.13081  0.78558  1.0000
  H   H1906     1.0  0.60832  0.06141  0.95344  1.0000
  H   H1907     1.0  0.45681  0.19588  0.76209  1.0000
  H   H1908     1.0  0.53768  0.99376  0.85278  1.0000
  C   C1116     1.0  0.48780  0.00334  0.87588  1.0000
  H   H1909     1.0  0.51237  0.43721  0.83403  1.0000
  C   C1117     1.0  0.61115  0.30714  0.83020  1.0000
  H   H1910     1.0  0.52407  0.47818  0.79117  1.0000
  H   H1911     1.0  0.63929  0.13674  0.79335  1.0000
  C   C1118     1.0  0.47721  0.99705  0.85547  1.0000
  H   H1912     1.0  0.61906  0.37216  0.83272  1.0000
  C   C1119     1.0  0.50159  0.99432  0.84985  1.0000
  H   H1913     1.0  0.60754  0.04100  0.81075  1.0000
  H   H1914     1.0  0.35933  0.04626  0.93354  1.0000
  C   C1120     1.0  0.53411  0.46549  0.81114  1.0000
  H   H1915     1.0  0.59758  0.30746  0.80549  1.0000
  C   C1121     1.0  0.33271  0.43315  0.73641  1.0000
  H   H1916     1.0  0.61395  0.06773  0.81391  1.0000
  H   H1917     1.0  0.50709  0.99051  0.83982  1.0000
  H   H1918     1.0  0.33616  0.00127  0.74917  1.0000
  C   C1122     1.0  0.62758  0.10376  0.79293  1.0000
  H   H1919     1.0  0.35211  0.99084  0.96977  1.0000
  H   H1920     1.0  0.63956  0.08034  0.94313  1.0000
  H   H1921     1.0  0.32921  0.45101  0.78973  1.0000
  C   C1123     1.0  0.65404  0.07543  0.94917  1.0000
  C   C1124     1.0  0.64670  0.29757  0.80451  1.0000
  H   H1922     1.0  0.33505  0.99684  0.73292  1.0000
  C   C1125     1.0  0.64328  0.01297  0.96918  1.0000
  C   C1126     1.0  0.41731  0.45986  0.91012  1.0000
  H   H1923     1.0  0.50588  0.36312  0.72910  1.0000
  H   H1924     1.0  0.62749  0.00368  0.97175  1.0000
  H   H1925     1.0  0.59108  0.29218  0.73775  1.0000
  H   H1926     1.0  0.57050  0.34511  0.73321  1.0000
  C   C1127     1.0  0.52345  0.35290  0.73122  1.0000
  H   H1927     1.0  0.63872  0.13298  0.77689  1.0000
  C   C1128     1.0  0.55696  0.30447  0.72996  1.0000
  C   C1129     1.0  0.63080  0.12190  0.72730  1.0000
  H   H1928     1.0  0.45345  0.46174  0.91195  1.0000
  H   H1929     1.0  0.62051  0.07167  0.97105  1.0000
  C   C1130     1.0  0.58005  0.28649  0.73178  1.0000
  C   C1131     1.0  0.64294  0.12326  0.78667  1.0000
  C   C1132     1.0  0.43625  0.47409  0.91143  1.0000
  H   H1930     1.0  0.43865  0.22468  0.73022  1.0000
  C   C1133     1.0  0.65335  0.47753  0.72865  1.0000
  H   H1931     1.0  0.35569  0.05671  0.97600  1.0000
  C   C1134     1.0  0.62749  0.05272  0.97469  1.0000
  H   H1932     1.0  0.39306  0.98297  0.79615  1.0000
  H   H1933     1.0  0.65230  0.05346  0.77962  1.0000
  C   C1135     1.0  0.38260  0.48147  0.92330  1.0000
  H   H1934     1.0  0.61332  0.13281  0.72750  1.0000
  H   H1935     1.0  0.32462  0.05995  0.74268  1.0000
  Fe  Fe161     1.0  0.62086  0.47984  0.84743  1.0000
  Fe  Fe162     1.0  0.59282  0.56272  0.04215  1.0000
  S   S325      1.0  0.58681  0.52479  0.04553  1.0000
  S   S326      1.0  0.60897  0.58208  0.02212  1.0000
  Fe  Fe163     1.0  0.58038  0.56602  0.07200  1.0000
  S   S327      1.0  0.57462  0.52807  0.07720  1.0000
  S   S328      1.0  0.57148  0.58348  0.09046  1.0000
  Fe  Fe164     1.0  0.60734  0.51995  0.06231  1.0000
  H   H1936     1.0  0.43274  0.58376  0.09053  1.0000
  Fe  Fe165     1.0  0.55418  0.53683  0.06013  1.0000
  S   S329      1.0  0.51848  0.52379  0.06686  1.0000
  S   S330      1.0  0.61487  0.55731  0.05834  1.0000
  S   S331      1.0  0.55850  0.57535  0.05552  1.0000
  Fe  Fe166     1.0  0.34801  0.56065  0.07611  1.0000
  S   S332      1.0  0.37905  0.53084  0.07463  1.0000
  H   H1937     1.0  0.38309  0.58063  0.14773  1.0000
  Fe  Fe167     1.0  0.33522  0.55682  0.04919  1.0000
  S   S333      1.0  0.36579  0.52722  0.04567  1.0000
  H   H1938     1.0  0.48060  0.54880  0.08625  1.0000
  H   H1939     1.0  0.45906  0.58325  0.11401  1.0000
  Fe  Fe168     1.0  0.38731  0.54845  0.05329  1.0000
  S   S334      1.0  0.42295  0.55824  0.04212  1.0000
  S   S335      1.0  0.35732  0.57951  0.05519  1.0000
  Fe  Fe169     1.0  0.42396  0.90686  0.13063  1.0000
  S   S336      1.0  0.41737  0.91067  0.15220  1.0000
  S   S337      1.0  0.43337  0.93903  0.11574  1.0000
  Fe  Fe170     1.0  0.41550  0.85485  0.13686  1.0000
  S   S338      1.0  0.40757  0.85502  0.15890  1.0000
  S   S339      1.0  0.42233  0.82213  0.12683  1.0000
  Fe  Fe171     1.0  0.38632  0.89183  0.15389  1.0000
  S   S340      1.0  0.34797  0.90533  0.16296  1.0000
  Fe  Fe172     1.0  0.43922  0.87405  0.15516  1.0000
  S   S341      1.0  0.47025  0.86023  0.16627  1.0000
  S   S342      1.0  0.39179  0.89006  0.13195  1.0000
  S   S343      1.0  0.44830  0.87195  0.13346  1.0000
  Fe  Fe173     1.0  0.62740  0.90383  0.13440  1.0000
  S   S344      1.0  0.61346  0.93397  0.14568  1.0000
  H   H1940     1.0  0.40278  0.63661  0.99461  1.0000
  Fe  Fe174     1.0  0.62105  0.86587  0.15913  1.0000
  S   S345      1.0  0.60723  0.89352  0.17264  1.0000
  S   S346      1.0  0.62081  0.82640  0.16745  1.0000
  Fe  Fe175     1.0  0.58565  0.91167  0.15656  1.0000
  S   S347      1.0  0.54676  0.92862  0.15850  1.0000
  Fe  Fe176     1.0  0.63653  0.91366  0.16066  1.0000
  S   S348      1.0  0.59778  0.88326  0.14387  1.0000
  Fe  Fe177     1.0  0.61908  0.66974  0.12348  1.0000
  S   S349      1.0  0.59507  0.65525  0.14179  1.0000
  S   S350      1.0  0.63031  0.65321  0.10463  1.0000
  Fe  Fe178     1.0  0.62533  0.71171  0.13595  1.0000
  S   S351      1.0  0.60194  0.70004  0.15512  1.0000
  S   S352      1.0  0.64250  0.74505  0.13160  1.0000
  Fe  Fe179     1.0  0.62139  0.66301  0.15295  1.0000
  S   S353      1.0  0.63196  0.63706  0.17105  1.0000
  Fe  Fe180     1.0  0.57796  0.69346  0.14222  1.0000
  S   S354      1.0  0.53872  0.70938  0.14513  1.0000
  S   S355      1.0  0.64669  0.67510  0.13459  1.0000
  S   S356      1.0  0.60015  0.70756  0.12303  1.0000
  Fe  Fe181     1.0  0.39635  0.65659  0.12357  1.0000
  S   S357      1.0  0.41232  0.62567  0.13738  1.0000
  S   S358      1.0  0.39627  0.65212  0.10253  1.0000
  Fe  Fe182     1.0  0.39035  0.69101  0.14302  1.0000
  S   S359      1.0  0.40603  0.66249  0.15844  1.0000
  H   H1941     1.0  0.38608  0.58570  0.02939  1.0000
  Fe  Fe183     1.0  0.43315  0.65150  0.14119  1.0000
  S   S360      1.0  0.47228  0.63814  0.14113  1.0000
  Fe  Fe184     1.0  0.38362  0.63905  0.15338  1.0000
  S   S361      1.0  0.41938  0.68173  0.12612  1.0000
  N   N83       1.0  0.37168  0.59953  0.01122  1.0000
  H   H1942     1.0  0.65377  0.79220  0.12649  1.0000
  C   C1136     1.0  0.51926  0.68941  0.14557  1.0000
  C   C1137     1.0  0.52742  0.66491  0.14727  1.0000
  C   C1138     1.0  0.51243  0.64923  0.14649  1.0000
  C   C1139     1.0  0.48918  0.65797  0.14399  1.0000
  C   C1140     1.0  0.48058  0.68244  0.14280  1.0000
  C   C1141     1.0  0.49566  0.69816  0.14357  1.0000
  H   H1943     1.0  0.54531  0.65795  0.14916  1.0000
  H   H1944     1.0  0.51904  0.63030  0.14758  1.0000
  H   H1945     1.0  0.46260  0.68926  0.14090  1.0000
  H   H1946     1.0  0.48924  0.71710  0.14222  1.0000
  H   H1947     1.0  0.39393  0.55227  0.14356  1.0000
  H   H1948     1.0  0.40014  0.55887  0.99966  1.0000
  H   H1949     1.0  0.49410  0.96991  0.13566  1.0000
  C   C1142     1.0  0.62729  0.80385  0.15740  1.0000
  C   C1143     1.0  0.61989  0.78172  0.16270  1.0000
  C   C1144     1.0  0.62405  0.76364  0.15488  1.0000
  C   C1145     1.0  0.63639  0.76728  0.14180  1.0000
  C   C1146     1.0  0.64416  0.78924  0.13659  1.0000
  C   C1147     1.0  0.63935  0.80756  0.14428  1.0000
  H   H1950     1.0  0.61056  0.77871  0.17286  1.0000
  H   H1951     1.0  0.61781  0.74692  0.15898  1.0000
  H   H1952     1.0  0.38431  0.53775  0.01104  1.0000
  H   H1953     1.0  0.62590  0.97082  0.12050  1.0000
  H   H1954     1.0  0.37423  0.93088  0.17527  1.0000
  C   C1148     1.0  0.49119  0.87951  0.16432  1.0000
  C   C1149     1.0  0.48605  0.90358  0.15882  1.0000
  C   C1150     1.0  0.50303  0.91855  0.15741  1.0000
  C   C1151     1.0  0.52566  0.90938  0.16085  1.0000
  C   C1152     1.0  0.53095  0.88522  0.16617  1.0000
  C   C1153     1.0  0.51352  0.87049  0.16820  1.0000
  H   H1955     1.0  0.46877  0.91078  0.15598  1.0000
  H   H1956     1.0  0.49863  0.93731  0.15365  1.0000
  H   H1957     1.0  0.54820  0.87807  0.16909  1.0000
  H   H1958     1.0  0.51731  0.85204  0.17275  1.0000
  C   C1154     1.0  0.40989  0.79585  0.13333  1.0000
  C   C1155     1.0  0.42038  0.77487  0.12818  1.0000
  C   C1156     1.0  0.41072  0.75370  0.13290  1.0000
  C   C1157     1.0  0.39007  0.75353  0.14255  1.0000
  C   C1158     1.0  0.37978  0.77443  0.14779  1.0000
  C   C1159     1.0  0.38976  0.79544  0.14331  1.0000
  H   H1959     1.0  0.43601  0.77503  0.12049  1.0000
  H   H1960     1.0  0.41886  0.73773  0.12881  1.0000
  H   H1961     1.0  0.38149  0.81146  0.14733  1.0000
  C   C1160     1.0  0.35380  0.59729  0.09700  1.0000
  H   H1962     1.0  0.49320  0.70920  0.10327  1.0000
  H   H1963     1.0  0.63922  0.48843  0.03384  1.0000
  C   C1161     1.0  0.38030  0.63045  0.10075  1.0000
  C   C1162     1.0  0.36177  0.62334  0.11073  1.0000
  C   C1163     1.0  0.65265  0.96697  0.19710  1.0000
  C   C1164     1.0  0.54291  0.69932  0.11174  1.0000
  H   H1964     1.0  0.55138  0.68676  0.11969  1.0000
  H   H1965     1.0  0.35737  0.63085  0.11981  1.0000
  H   H1966     1.0  0.33005  0.62678  0.15324  1.0000
  H   H1967     1.0  0.34841  0.75898  0.09000  1.0000
  C   C1165     1.0  0.59057  0.59984  0.09473  1.0000
  C   C1166     1.0  0.60863  0.60923  0.08529  1.0000
  C   C1167     1.0  0.62121  0.62501  0.08860  1.0000
  C   C1168     1.0  0.61586  0.63146  0.10133  1.0000
  C   C1169     1.0  0.59870  0.62103  0.11096  1.0000
  C   C1170     1.0  0.58612  0.60527  0.10767  1.0000
  H   H1968     1.0  0.61218  0.60520  0.07529  1.0000
  H   H1969     1.0  0.63461  0.63289  0.08112  1.0000
  H   H1970     1.0  0.59468  0.62558  0.12085  1.0000
  H   H1971     1.0  0.57232  0.59788  0.11507  1.0000
  C   C1171     1.0  0.49233  0.53360  0.05962  1.0000
  C   C1172     1.0  0.47160  0.52410  0.06587  1.0000
  C   C1173     1.0  0.45020  0.53167  0.06070  1.0000
  C   C1174     1.0  0.44937  0.54872  0.04914  1.0000
  C   C1175     1.0  0.47008  0.55831  0.04289  1.0000
  C   C1176     1.0  0.49148  0.55086  0.04814  1.0000
  H   H1972     1.0  0.47213  0.51071  0.07475  1.0000
  H   H1973     1.0  0.43445  0.52403  0.06554  1.0000
  H   H1974     1.0  0.46962  0.57144  0.03391  1.0000
  H   H1975     1.0  0.50734  0.55825  0.04323  1.0000
  N   N84       1.0  0.45531  0.77672  0.16475  1.0000
  C   C1177     1.0  0.61903  0.54356  0.00881  1.0000
  C   C1178     1.0  0.62473  0.56548  0.00956  1.0000
  H   H1976     1.0  0.52394  0.85831  0.14314  1.0000
  H   H1977     1.0  0.52337  0.85780  0.12586  1.0000
  H   H1978     1.0  0.35671  0.70198  0.10128  1.0000
  H   H1979     1.0  0.60420  0.53692  0.01565  1.0000
  C   C1179     1.0  0.33450  0.58199  0.17975  1.0000
  H   H1980     1.0  0.61641  0.69713  0.19251  1.0000
  H   H1981     1.0  0.47432  0.68845  0.10248  1.0000
  H   H1982     1.0  0.49222  0.68148  0.11481  1.0000
  C   C1180     1.0  0.54843  0.68887  0.09874  1.0000
  C   C1181     1.0  0.39595  0.95823  0.07937  1.0000
  C   C1182     1.0  0.41781  0.94590  0.10223  1.0000
  C   C1183     1.0  0.41468  0.92809  0.09579  1.0000
  C   C1184     1.0  0.40399  0.93429  0.08429  1.0000
  H   H1983     1.0  0.42115  0.90960  0.09941  1.0000
  H   H1984     1.0  0.40232  0.92053  0.07906  1.0000
  H   H1985     1.0  0.39436  0.70132  0.08760  1.0000
  C   C1185     1.0  0.62417  0.92855  0.10150  1.0000
  C   C1186     1.0  0.60397  0.94418  0.10617  1.0000
  H   H1986     1.0  0.37640  0.98029  0.14890  1.0000
  C   C1187     1.0  0.59092  0.96008  0.09706  1.0000
  H   H1987     1.0  0.50500  0.96502  0.09746  1.0000
  H   H1988     1.0  0.53335  0.97625  0.13717  1.0000
  C   C1188     1.0  0.61798  0.94442  0.07874  1.0000
  C   C1189     1.0  0.63309  0.68908  0.18655  1.0000
  H   H1989     1.0  0.56279  0.96210  0.13183  1.0000
  H   H1990     1.0  0.35192  0.55861  0.11994  1.0000
  C   C1190     1.0  0.47774  0.93365  0.05842  1.0000
  H   H1991     1.0  0.40199  0.72475  0.09375  1.0000
  H   H1992     1.0  0.53581  0.95638  0.09797  1.0000
  H   H1993     1.0  0.48361  0.93967  0.04768  1.0000
  H   H1994     1.0  0.32534  0.49502  0.10048  1.0000
  H   H1995     1.0  0.35813  0.50397  0.14672  1.0000
  C   C1191     1.0  0.32846  0.61672  0.00733  1.0000
  S   S362      1.0  0.65200  0.88419  0.14856  1.0000
  C   C1192     1.0  0.65222  0.53816  0.99036  1.0000
  H   H1996     1.0  0.43930  0.80797  0.15243  1.0000
  H   H1997     1.0  0.64527  0.82445  0.14011  1.0000
  H   H1998     1.0  0.60302  0.84817  0.11095  1.0000
  H   H1999     1.0  0.40192  0.55338  0.01730  1.0000
  S   S363      1.0  0.38501  0.96574  0.06414  1.0000
  H   H2000     1.0  0.55642  0.77769  0.15509  1.0000
  N   N85       1.0  0.47169  0.97808  0.06071  1.0000
  H   H2001     1.0  0.59850  0.94397  0.11676  1.0000
  C   C1193     1.0  0.38283  0.53144  0.12042  1.0000
  C   C1194     1.0  0.51933  0.96726  0.10259  1.0000
  H   H2002     1.0  0.52511  0.91895  0.10332  1.0000
  H   H2003     1.0  0.34068  0.60627  0.02632  1.0000
  H   H2004     1.0  0.57875  0.79279  0.12577  1.0000
  C   C1195     1.0  0.47440  0.79775  0.14167  1.0000
  C   C1196     1.0  0.40918  0.96972  0.09757  1.0000
  H   H2005     1.0  0.64027  0.67252  0.19289  1.0000
  H   H2006     1.0  0.52361  0.70407  0.11536  1.0000
  H   H2007     1.0  0.36377  0.77447  0.15523  1.0000
  H   H2008     1.0  0.56823  0.68315  0.09707  1.0000
  H   H2009     1.0  0.37709  0.59645  0.07809  1.0000
  H   H2010     1.0  0.48585  0.94056  0.11442  1.0000
  H   H2011     1.0  0.40795  0.59299  0.01537  1.0000
  C   C1197     1.0  0.49759  0.75086  0.16107  1.0000
  H   H2012     1.0  0.33765  0.92759  0.11437  1.0000
  H   H2013     1.0  0.50081  0.61711  0.05623  1.0000
  H   H2014     1.0  0.65392  0.71135  0.19189  1.0000
  H   H2015     1.0  0.32593  0.74147  0.12648  1.0000
  H   H2016     1.0  0.34675  0.78647  0.10985  1.0000
  H   H2017     1.0  0.40476  0.61944  0.03063  1.0000
  H   H2018     1.0  0.42558  0.73808  0.17498  1.0000
  C   C1198     1.0  0.47861  0.76665  0.16972  1.0000
  H   H2019     1.0  0.49073  0.62958  0.07112  1.0000
  N   N86       1.0  0.35018  0.54210  0.14061  1.0000
  H   H2020     1.0  0.49575  0.75326  0.15050  1.0000
  H   H2021     1.0  0.46557  0.92077  0.05897  1.0000
  H   H2022     1.0  0.43802  0.81989  0.17767  1.0000
  H   H2023     1.0  0.55108  0.94224  0.11662  1.0000
  H   H2024     1.0  0.46964  0.78592  0.13583  1.0000
  H   H2025     1.0  0.54695  0.77401  0.14018  1.0000
  H   H2026     1.0  0.60789  0.50731  0.11499  1.0000
  H   H2027     1.0  0.33375  0.62590  0.99702  1.0000
  H   H2028     1.0  0.38251  0.51853  0.14568  1.0000
  H   H2029     1.0  0.62877  0.56715  0.10648  1.0000
  H   H2030     1.0  0.45893  0.97493  0.08923  1.0000
  H   H2031     1.0  0.37938  0.73092  0.08308  1.0000
  H   H2032     1.0  0.49320  0.79254  0.14319  1.0000
  S   S364      1.0  0.64160  0.90900  0.11240  1.0000
  C   C1199     1.0  0.38572  0.62075  0.08897  1.0000
  C   C1200     1.0  0.38999  0.55534  0.00989  1.0000
  H   H2033     1.0  0.62715  0.51736  0.08990  1.0000
  C   C1201     1.0  0.62307  0.53050  0.09681  1.0000
  H   H2034     1.0  0.38687  0.57720  0.13055  1.0000
  C   C1202     1.0  0.50186  0.93661  0.11939  1.0000
  C   C1203     1.0  0.51778  0.91476  0.11407  1.0000
  H   H2035     1.0  0.46048  0.96892  0.12557  1.0000
  H   H2036     1.0  0.37088  0.60451  0.98996  1.0000
  C   C1204     1.0  0.34752  0.94134  0.11562  1.0000
  C   C1205     1.0  0.65061  0.70716  0.18247  1.0000
  H   H2037     1.0  0.65491  0.71300  0.15691  1.0000
  H   H2038     1.0  0.32496  0.49386  0.04041  1.0000
  C   C1206     1.0  0.38494  0.63447  0.99309  1.0000
  C   C1207     1.0  0.36770  0.71360  0.10380  1.0000
  H   H2039     1.0  0.62791  0.68454  0.17781  1.0000
  H   H2040     1.0  0.33179  0.73525  0.09345  1.0000
  H   H2041     1.0  0.50123  0.96826  0.07175  1.0000
  H   H2042     1.0  0.34595  0.57409  0.18707  1.0000
  H   H2043     1.0  0.33906  0.51842  0.16832  1.0000
  H   H2044     1.0  0.64054  0.72383  0.17755  1.0000
  H   H2045     1.0  0.53256  0.90719  0.11980  1.0000
  H   H2046     1.0  0.36316  0.53510  0.16674  1.0000
  H   H2047     1.0  0.57538  0.97217  0.10060  1.0000
  H   H2048     1.0  0.34701  0.56770  0.15368  1.0000
  H   H2049     1.0  0.32330  0.59946  0.00711  1.0000
  H   H2050     1.0  0.44473  0.95484  0.06656  1.0000
  H   H2051     1.0  0.38015  0.75708  0.10154  1.0000
  C   C1208     1.0  0.60213  0.52291  0.10759  1.0000
  C   C1209     1.0  0.33889  0.92787  0.17303  1.0000
  H   H2052     1.0  0.37096  0.64665  0.99846  1.0000
  H   H2053     1.0  0.62823  0.51299  0.99887  1.0000
  H   H2054     1.0  0.50125  0.84616  0.13876  1.0000
  C   C1210     1.0  0.59781  0.96006  0.08334  1.0000
  H   H2055     1.0  0.33590  0.93542  0.13699  1.0000
  C   C1211     1.0  0.57498  0.79648  0.13618  1.0000
  H   H2056     1.0  0.49362  0.92421  0.06290  1.0000
  H   H2057     1.0  0.63808  0.97101  0.20505  1.0000
  H   H2058     1.0  0.59272  0.79414  0.13919  1.0000
  H   H2059     1.0  0.38352  0.64071  0.98240  1.0000
  H   H2060     1.0  0.34963  0.63240  0.01661  1.0000
  H   H2061     1.0  0.35777  0.56814  0.02243  1.0000
  H   H2062     1.0  0.36625  0.93251  0.11575  1.0000
  H   H2063     1.0  0.39127  0.63761  0.01723  1.0000
  H   H2064     1.0  0.49814  0.73172  0.16549  1.0000
  C   C1212     1.0  0.35507  0.56500  0.14337  1.0000
  C   C1213     1.0  0.63780  0.54985  0.11146  1.0000
  C   C1214     1.0  0.35662  0.54080  0.12592  1.0000
  H   H2065     1.0  0.51885  0.60926  0.06884  1.0000
  C   C1215     1.0  0.52048  0.84781  0.13618  1.0000
  H   H2066     1.0  0.37309  0.62637  0.03270  1.0000
  H   H2067     1.0  0.48264  0.97767  0.03940  1.0000
  H   H2068     1.0  0.57510  0.75890  0.14424  1.0000
  H   H2069     1.0  0.37720  0.70232  0.11178  1.0000
  H   H2070     1.0  0.49512  0.93081  0.13016  1.0000
  H   H2071     1.0  0.62448  0.54355  0.12009  1.0000
  C   C1216     1.0  0.36750  0.57430  0.01232  1.0000
  C   C1217     1.0  0.38161  0.60815  0.99689  1.0000
  H   H2072     1.0  0.34583  0.76958  0.12679  1.0000
  N   N87       1.0  0.53584  0.66861  0.09836  1.0000
  C   C1218     1.0  0.55095  0.65462  0.08799  1.0000
  C   C1219     1.0  0.53431  0.65198  0.11155  1.0000
  C   C1220     1.0  0.51170  0.67784  0.09430  1.0000
  C   C1221     1.0  0.55657  0.66874  0.07379  1.0000
  C   C1222     1.0  0.52170  0.63045  0.11269  1.0000
  H   H2073     1.0  0.56844  0.64646  0.09106  1.0000
  H   H2074     1.0  0.54253  0.63963  0.08695  1.0000
  H   H2075     1.0  0.52492  0.66131  0.11985  1.0000
  H   H2076     1.0  0.55244  0.64514  0.11408  1.0000
  H   H2077     1.0  0.50443  0.66361  0.09140  1.0000
  H   H2078     1.0  0.56847  0.65651  0.06738  1.0000
  H   H2079     1.0  0.54030  0.67558  0.06923  1.0000
  H   H2080     1.0  0.56633  0.68349  0.07349  1.0000
  H   H2081     1.0  0.53171  0.61769  0.10612  1.0000
  H   H2082     1.0  0.52073  0.62047  0.12304  1.0000
  H   H2083     1.0  0.50304  0.63601  0.11086  1.0000
  H   H2084     1.0  0.51666  0.59259  0.08957  1.0000
  N   N88       1.0  0.35222  0.73536  0.10870  1.0000
  H   H2085     1.0  0.43461  0.60458  0.10833  1.0000
  H   H2086     1.0  0.64989  0.57027  0.12332  1.0000
  S   S365      1.0  0.64028  0.49206  0.06401  1.0000
  C   C1223     1.0  0.50663  0.56914  0.10728  1.0000
  H   H2087     1.0  0.46702  0.55612  0.10183  1.0000
  H   H2088     1.0  0.44594  0.57007  0.07599  1.0000
  H   H2089     1.0  0.49777  0.55339  0.11139  1.0000
  H   H2090     1.0  0.49909  0.58377  0.11307  1.0000
  H   H2091     1.0  0.52552  0.56358  0.10879  1.0000
  H   H2092     1.0  0.42944  0.76780  0.15504  1.0000
  H   H2093     1.0  0.55085  0.71580  0.11007  1.0000
  C   C1224     1.0  0.36866  0.75071  0.11100  1.0000
  H   H2094     1.0  0.45730  0.61402  0.11416  1.0000
  H   H2095     1.0  0.35599  0.57315  0.00518  1.0000
  H   H2096     1.0  0.56532  0.83312  0.11536  1.0000
  C   C1225     1.0  0.35692  0.77340  0.11684  1.0000
  H   H2097     1.0  0.51328  0.69131  0.08505  1.0000
  H   H2098     1.0  0.64132  0.97669  0.14039  1.0000
  C   C1226     1.0  0.45418  0.60117  0.10833  1.0000
  H   H2099     1.0  0.43965  0.72314  0.16139  1.0000
  C   C1227     1.0  0.46949  0.56370  0.09110  1.0000
  C   C1228     1.0  0.64381  0.57401  0.00039  1.0000
  H   H2100     1.0  0.38105  0.74004  0.11774  1.0000
  C   C1229     1.0  0.37272  0.60396  0.08716  1.0000
  C   C1230     1.0  0.56236  0.77592  0.14450  1.0000
  Fe  Fe185     1.0  0.35440  0.51275  0.06731  1.0000
  C   C1231     1.0  0.34796  0.61405  0.01593  1.0000
  H   H2101     1.0  0.58669  0.82951  0.14768  1.0000
  C   C1232     1.0  0.33744  0.74834  0.09820  1.0000
  H   H2102     1.0  0.43578  0.55232  0.09130  1.0000
  H   H2103     1.0  0.42695  0.80252  0.19293  1.0000
  H   H2104     1.0  0.64613  0.50448  0.11929  1.0000
  H   H2105     1.0  0.38759  0.51207  0.12399  1.0000
  H   H2106     1.0  0.39564  0.54114  0.12272  1.0000
  H   H2107     1.0  0.44245  0.96538  0.04377  1.0000
  C   C1233     1.0  0.59866  0.83607  0.12051  1.0000
  C   C1234     1.0  0.49769  0.97614  0.06151  1.0000
  C   C1235     1.0  0.35535  0.93750  0.17765  1.0000
  H   H2108     1.0  0.40312  0.96399  0.14113  1.0000
  S   S366      1.0  0.37543  0.72835  0.14760  1.0000
  S   S367      1.0  0.36570  0.66830  0.13919  1.0000
  H   H2109     1.0  0.60815  0.81800  0.11906  1.0000
  H   H2110     1.0  0.45829  0.79783  0.18680  1.0000
  H   H2111     1.0  0.39956  0.59775  0.99400  1.0000
  H   H2112     1.0  0.65228  0.96180  0.10136  1.0000
  C   C1236     1.0  0.56716  0.83084  0.14828  1.0000
  C   C1237     1.0  0.49212  0.69004  0.10433  1.0000
  H   H2113     1.0  0.54478  0.70396  0.09053  1.0000
  H   H2114     1.0  0.51732  0.56310  0.08701  1.0000
  H   H2115     1.0  0.34591  0.58059  0.13716  1.0000
  C   C1238     1.0  0.38129  0.56869  0.14100  1.0000
  C   C1239     1.0  0.38681  0.71834  0.09133  1.0000
  C   C1240     1.0  0.44462  0.56811  0.08694  1.0000
  H   H2116     1.0  0.38501  0.53388  0.10937  1.0000
  H   H2117     1.0  0.46690  0.94787  0.07647  1.0000
  H   H2118     1.0  0.53274  0.81461  0.12896  1.0000
  C   C1241     1.0  0.50638  0.57760  0.09229  1.0000
  H   H2119     1.0  0.60608  0.84223  0.12801  1.0000
  N   N89       1.0  0.48226  0.58494  0.08793  1.0000
  C   C1242     1.0  0.44222  0.73567  0.16759  1.0000
  H   H2120     1.0  0.45875  0.75484  0.14941  1.0000
  C   C1243     1.0  0.46797  0.60609  0.09390  1.0000
  H   H2121     1.0  0.37073  0.94239  0.14224  1.0000
  H   H2122     1.0  0.45740  0.72701  0.17279  1.0000
  H   H2123     1.0  0.49708  0.57649  0.06820  1.0000
  H   H2124     1.0  0.46331  0.81275  0.15933  1.0000
  H   H2125     1.0  0.54022  0.81436  0.16396  1.0000
  H   H2126     1.0  0.47304  0.81570  0.13539  1.0000
  C   C1244     1.0  0.34733  0.95546  0.18560  1.0000
  C   C1245     1.0  0.48674  0.59185  0.07293  1.0000
  H   H2127     1.0  0.50674  0.90062  0.11528  1.0000
  H   H2128     1.0  0.48715  0.78126  0.17123  1.0000
  S   S368      1.0  0.36708  0.61219  0.16994  1.0000
  C   C1246     1.0  0.38935  0.59903  0.02021  1.0000
  C   C1247     1.0  0.46428  0.95403  0.06595  1.0000
  C   C1248     1.0  0.53567  0.82274  0.13723  1.0000
  H   H2129     1.0  0.52750  0.81200  0.14646  1.0000
  C   C1249     1.0  0.55860  0.81813  0.16242  1.0000
  H   H2130     1.0  0.56069  0.85028  0.14783  1.0000
  H   H2131     1.0  0.56381  0.85647  0.12445  1.0000
  H   H2132     1.0  0.41851  0.78887  0.17322  1.0000
  H   H2133     1.0  0.46969  0.59671  0.06893  1.0000
  C   C1250     1.0  0.43632  0.78271  0.17642  1.0000
  C   C1251     1.0  0.34049  0.60157  0.17011  1.0000
  C   C1252     1.0  0.57125  0.83738  0.12405  1.0000
  H   H2134     1.0  0.57110  0.80157  0.16515  1.0000
  N   N90       1.0  0.56204  0.82164  0.13674  1.0000
  H   H2135     1.0  0.55804  0.83013  0.16960  1.0000
  H   H2136     1.0  0.64694  0.91695  0.08413  1.0000
  C   C1253     1.0  0.45721  0.79953  0.15493  1.0000
  C   C1254     1.0  0.54555  0.97011  0.12839  1.0000
  H   H2137     1.0  0.45434  0.61575  0.08765  1.0000
  S   S369      1.0  0.57980  0.97726  0.07200  1.0000
  H   H2138     1.0  0.34599  0.52904  0.12318  1.0000
  H   H2139     1.0  0.63256  0.94806  0.18842  1.0000
  H   H2140     1.0  0.37124  0.78233  0.11832  1.0000
  C   C1255     1.0  0.44658  0.75944  0.15851  1.0000
  H   H2141     1.0  0.51559  0.75464  0.16117  1.0000
  C   C1256     1.0  0.38936  0.62219  0.02529  1.0000
  H   H2142     1.0  0.47973  0.61919  0.09374  1.0000
  H   H2143     1.0  0.47520  0.75538  0.17973  1.0000
  H   H2144     1.0  0.40000  0.62623  0.08121  1.0000
  C   C1257     1.0  0.50006  0.61321  0.06721  1.0000
  C   C1258     1.0  0.34830  0.60713  0.10874  1.0000
  H   H2145     1.0  0.34901  0.71778  0.12922  1.0000
  H   H2146     1.0  0.43432  0.76664  0.18418  1.0000
  S   S370      1.0  0.33681  0.57663  0.09496  1.0000
  C   C1259     1.0  0.63267  0.53004  0.99925  1.0000
  N   N91       1.0  0.34684  0.97011  0.13179  1.0000
  S   S371      1.0  0.32273  0.54129  0.07048  1.0000
  H   H2147     1.0  0.36886  0.50344  0.16863  1.0000
  C   C1260     1.0  0.44049  0.80182  0.18373  1.0000
  H   H2148     1.0  0.36018  0.96249  0.18932  1.0000
  N   N92       1.0  0.64522  0.53230  0.10188  1.0000
  C   C1261     1.0  0.36287  0.52050  0.14866  1.0000
  H   H2149     1.0  0.64824  0.59104  0.00083  1.0000
  C   C1262     1.0  0.33578  0.95089  0.12865  1.0000
  C   C1263     1.0  0.63129  0.92896  0.08778  1.0000
  C   C1264     1.0  0.35794  0.51968  0.16391  1.0000
  H   H2150     1.0  0.33829  0.53442  0.02142  1.0000
  C   C1265     1.0  0.53615  0.95087  0.12352  1.0000
  H   H2151     1.0  0.34667  0.95547  0.10671  1.0000
  H   H2152     1.0  0.53349  0.93691  0.13251  1.0000
  C   C1266     1.0  0.32367  0.54175  0.14470  1.0000
  N   N93       1.0  0.51361  0.95838  0.11742  1.0000
  H   H2153     1.0  0.33104  0.69145  0.11977  1.0000
  H   H2154     1.0  0.33818  0.96701  0.15333  1.0000
  C   C1267     1.0  0.39785  0.97580  0.08635  1.0000
  H   H2155     1.0  0.50895  0.96357  0.05506  1.0000
  C   C1268     1.0  0.33289  0.97909  0.14427  1.0000
  H   H2156     1.0  0.33341  0.60238  0.11626  1.0000
  H   H2157     1.0  0.61619  0.54777  0.09083  1.0000
  H   H2158     1.0  0.38306  0.95289  0.12554  1.0000
  C   C1269     1.0  0.33729  0.72673  0.12179  1.0000
  C   C1270     1.0  0.37155  0.95879  0.13456  1.0000
  C   C1271     1.0  0.49650  0.97650  0.12471  1.0000
  H   H2159     1.0  0.33321  0.51735  0.00230  1.0000
  C   C1272     1.0  0.32561  0.61171  0.16070  1.0000
  H   H2160     1.0  0.62320  0.94408  0.06817  1.0000
  C   C1273     1.0  0.64946  0.95389  0.18768  1.0000
  H   H2161     1.0  0.58893  0.51768  0.10282  1.0000
  C   C1274     1.0  0.32285  0.96428  0.18883  1.0000
  H   H2162     1.0  0.65303  0.60187  0.19086  1.0000
  C   C1275     1.0  0.38554  0.97458  0.13934  1.0000
  H   H2163     1.0  0.59248  0.53797  0.11268  1.0000
  H   H2164     1.0  0.65147  0.49358  0.10411  1.0000
  H   H2165     1.0  0.65509  0.56096  0.08610  1.0000
  H   H2166     1.0  0.65435  0.53298  0.07223  1.0000
  C   C1276     1.0  0.65523  0.50789  0.10874  1.0000
  H   H2167     1.0  0.65538  0.51719  0.03790  1.0000
  C   C1277     1.0  0.65330  0.51336  0.45085  1.0000
  C   C1278     1.0  0.60939  0.52867  0.45520  1.0000
  H   H2168     1.0  0.58233  0.94427  0.46277  1.0000
  H   H2169     1.0  0.37667  0.48322  0.42133  1.0000
  C   C1279     1.0  0.63851  0.55185  0.45781  1.0000
  H   H2170     1.0  0.59224  0.49741  0.46445  1.0000
  H   H2171     1.0  0.62065  0.95001  0.46305  1.0000
  C   C1280     1.0  0.56662  0.97980  0.46508  1.0000
  H   H2172     1.0  0.63818  0.56143  0.44743  1.0000
  H   H2173     1.0  0.59804  0.90670  0.46907  1.0000
  C   C1281     1.0  0.50134  0.69297  0.47419  1.0000
  N   N94       1.0  0.63318  0.52691  0.45942  1.0000
  H   H2174     1.0  0.60822  0.54069  0.44547  1.0000
  H   H2175     1.0  0.62708  0.90891  0.47245  1.0000
  H   H2176     1.0  0.60311  0.57253  0.46429  1.0000
  H   H2177     1.0  0.58885  0.50881  0.44734  1.0000
  H   H2178     1.0  0.50616  0.70930  0.46746  1.0000
  H   H2179     1.0  0.33831  0.96324  0.47222  1.0000
  H   H2180     1.0  0.65149  0.49442  0.45199  1.0000
  H   H2181     1.0  0.48142  0.74092  0.47378  1.0000
  C   C1282     1.0  0.61679  0.95560  0.47301  1.0000
  C   C1283     1.0  0.57497  0.95383  0.47133  1.0000
  H   H2182     1.0  0.42717  0.69587  0.47512  1.0000
  H   H2183     1.0  0.44310  0.77368  0.47302  1.0000
  H   H2184     1.0  0.61605  0.49167  0.45069  1.0000
  H   H2185     1.0  0.41967  0.72813  0.47383  1.0000
  H   H2186     1.0  0.64003  0.52361  0.43163  1.0000
  C   C1284     1.0  0.32436  0.95245  0.47573  1.0000
  H   H2187     1.0  0.62802  0.58552  0.46517  1.0000
  C   C1285     1.0  0.60145  0.50517  0.45456  1.0000
  H   H2188     1.0  0.50810  0.67798  0.46855  1.0000
  C   C1286     1.0  0.63242  0.51577  0.47394  1.0000
  H   H2189     1.0  0.59486  0.53756  0.46220  1.0000
  H   H2190     1.0  0.46655  0.69565  0.46938  1.0000
  C   C1287     1.0  0.62134  0.56831  0.46681  1.0000
  H   H2191     1.0  0.45757  0.73692  0.46702  1.0000
  C   C1288     1.0  0.32934  0.58127  0.47447  1.0000
  H   H2192     1.0  0.40591  0.48241  0.40160  1.0000
  H   H2193     1.0  0.44530  0.48285  0.40109  1.0000
  H   H2194     1.0  0.54829  0.98144  0.46292  1.0000
  C   C1289     1.0  0.62071  0.98172  0.47074  1.0000
  H   H2195     1.0  0.55886  0.94563  0.47620  1.0000
  H   H2196     1.0  0.39646  0.56635  0.56052  1.0000
  Fe  Fe186     1.0  0.59499  0.68720  0.51802  1.0000
  S   S372      1.0  0.57061  0.68444  0.53767  1.0000
  H   H2197     1.0  0.50726  0.83229  0.54027  1.0000
  Fe  Fe187     1.0  0.60395  0.63329  0.51871  1.0000
  S   S373      1.0  0.57974  0.62749  0.53863  1.0000
  H   H2198     1.0  0.53383  0.84137  0.49827  1.0000
  Fe  Fe188     1.0  0.55453  0.65877  0.53005  1.0000
  S   S374      1.0  0.51377  0.66417  0.53478  1.0000
  Fe  Fe189     1.0  0.59811  0.65367  0.54427  1.0000
  S   S375      1.0  0.60789  0.64992  0.56481  1.0000
  S   S376      1.0  0.57738  0.66320  0.50976  1.0000
  S   S377      1.0  0.62377  0.65777  0.52500  1.0000
  Fe  Fe190     1.0  0.59562  0.88846  0.54341  1.0000
  C   C1290     1.0  0.32431  0.66192  0.55488  1.0000
  H   H2199     1.0  0.36113  0.80242  0.49293  1.0000
  Fe  Fe191     1.0  0.56713  0.88717  0.52165  1.0000
  S   S378      1.0  0.59690  0.86178  0.51199  1.0000
  S   S379      1.0  0.53539  0.89863  0.51063  1.0000
  Fe  Fe192     1.0  0.59927  0.84269  0.53274  1.0000
  H   H2200     1.0  0.34327  0.83015  0.60066  1.0000
  Fe  Fe193     1.0  0.62142  0.88465  0.51549  1.0000
  H   H2201     1.0  0.38526  0.59688  0.56287  1.0000
  S   S380      1.0  0.56813  0.86667  0.54232  1.0000
  S   S381      1.0  0.59159  0.91166  0.52361  1.0000
  Fe  Fe194     1.0  0.35045  0.85956  0.53061  1.0000
  S   S382      1.0  0.34990  0.85555  0.50961  1.0000
  C   C1291     1.0  0.47407  0.69441  0.47859  1.0000
  Fe  Fe195     1.0  0.40230  0.86949  0.52407  1.0000
  S   S383      1.0  0.40530  0.86672  0.50256  1.0000
  S   S384      1.0  0.43171  0.87242  0.53504  1.0000
  Fe  Fe196     1.0  0.36785  0.88798  0.50395  1.0000
  C   C1292     1.0  0.51453  0.81356  0.53890  1.0000
  Fe  Fe197     1.0  0.38688  0.83470  0.51020  1.0000
  S   S385      1.0  0.40312  0.79806  0.50525  1.0000
  S   S386      1.0  0.36627  0.89312  0.52507  1.0000
  S   S387      1.0  0.38592  0.83633  0.53163  1.0000
  Fe  Fe198     1.0  0.35867  0.63877  0.52615  1.0000
  C   C1293     1.0  0.64879  0.91768  0.57835  1.0000
  H   H2202     1.0  0.65076  0.92104  0.58791  1.0000
  Fe  Fe199     1.0  0.40359  0.64665  0.50572  1.0000
  H   H2203     1.0  0.48075  0.62132  0.55041  1.0000
  S   S388      1.0  0.44418  0.64031  0.50094  1.0000
  Fe  Fe200     1.0  0.35815  0.68216  0.50468  1.0000
  C   C1294     1.0  0.47455  0.71309  0.49762  1.0000
  H   H2204     1.0  0.53645  0.78701  0.51080  1.0000
  H   H2205     1.0  0.42583  0.59890  0.56802  1.0000
  S   S389      1.0  0.38074  0.66814  0.52070  1.0000
  S   S390      1.0  0.38352  0.61597  0.51261  1.0000
  H   H2206     1.0  0.61219  0.91215  0.58477  1.0000
  H   H2207     1.0  0.41430  0.57324  0.53956  1.0000
  H   H2208     1.0  0.51093  0.68905  0.48282  1.0000
  H   H2209     1.0  0.44312  0.56012  0.54335  1.0000
  C   C1295     1.0  0.54876  0.83205  0.50354  1.0000
  C   C1296     1.0  0.38503  0.77749  0.50448  1.0000
  C   C1297     1.0  0.36586  0.78405  0.49748  1.0000
  C   C1298     1.0  0.35327  0.76664  0.49598  1.0000
  C   C1299     1.0  0.35980  0.74262  0.50144  1.0000
  C   C1300     1.0  0.37873  0.73621  0.50861  1.0000
  C   C1301     1.0  0.39130  0.75358  0.51010  1.0000
  C   C1302     1.0  0.64136  0.65373  0.57925  1.0000
  H   H2210     1.0  0.64054  0.97743  0.50544  1.0000
  H   H2211     1.0  0.38369  0.71789  0.51304  1.0000
  H   H2212     1.0  0.40605  0.74846  0.51557  1.0000
  C   C1303     1.0  0.50657  0.89139  0.51752  1.0000
  C   C1304     1.0  0.50019  0.88327  0.53115  1.0000
  C   C1305     1.0  0.47717  0.87771  0.53630  1.0000
  C   C1306     1.0  0.46034  0.87990  0.52791  1.0000
  C   C1307     1.0  0.46676  0.88782  0.51425  1.0000
  C   C1308     1.0  0.48971  0.89370  0.50911  1.0000
  H   H2213     1.0  0.51288  0.88159  0.53776  1.0000
  H   H2214     1.0  0.47233  0.87174  0.54689  1.0000
  H   H2215     1.0  0.45396  0.88966  0.50768  1.0000
  H   H2216     1.0  0.49443  0.90002  0.49855  1.0000
  H   H2217     1.0  0.33897  0.79813  0.52050  1.0000
  H   H2218     1.0  0.47113  0.67678  0.48464  1.0000
  C   C1309     1.0  0.65153  0.96374  0.50018  1.0000
  C   C1310     1.0  0.64207  0.71541  0.56365  1.0000
  H   H2219     1.0  0.61264  0.77159  0.49914  1.0000
  S   S391      1.0  0.35760  0.92098  0.48884  1.0000
  C   C1311     1.0  0.59069  0.76149  0.53724  1.0000
  C   C1312     1.0  0.59158  0.74342  0.52993  1.0000
  H   H2220     1.0  0.46123  0.61270  0.53432  1.0000
  H   H2221     1.0  0.36121  0.97309  0.51047  1.0000
  H   H2222     1.0  0.58459  0.75854  0.54789  1.0000
  H   H2223     1.0  0.58637  0.72675  0.53501  1.0000
  C   C1313     1.0  0.49486  0.65772  0.52506  1.0000
  C   C1314     1.0  0.47009  0.66518  0.52820  1.0000
  C   C1315     1.0  0.45434  0.66017  0.52082  1.0000
  C   C1316     1.0  0.46323  0.64725  0.51040  1.0000
  C   C1317     1.0  0.48798  0.63994  0.50720  1.0000
  C   C1318     1.0  0.50377  0.64521  0.51447  1.0000
  H   H2224     1.0  0.46311  0.67503  0.53633  1.0000
  H   H2225     1.0  0.43540  0.66643  0.52313  1.0000
  H   H2226     1.0  0.49501  0.63007  0.49908  1.0000
  H   H2227     1.0  0.52281  0.63938  0.51198  1.0000
  H   H2228     1.0  0.47029  0.58578  0.54490  1.0000
  C   C1319     1.0  0.62961  0.84457  0.58635  1.0000
  H   H2229     1.0  0.53524  0.84559  0.52189  1.0000
  H   H2230     1.0  0.48073  0.69421  0.50187  1.0000
  C   C1320     1.0  0.42448  0.58677  0.56135  1.0000
  H   H2231     1.0  0.36386  0.76673  0.55160  1.0000
  H   H2232     1.0  0.46327  0.60586  0.56423  1.0000
  H   H2233     1.0  0.50719  0.76941  0.53781  1.0000
  C   C1321     1.0  0.64190  0.59193  0.49757  1.0000
  C   C1322     1.0  0.63714  0.65127  0.56677  1.0000
  H   H2234     1.0  0.62032  0.83593  0.59605  1.0000
  H   H2235     1.0  0.63624  0.74142  0.53752  1.0000
  H   H2236     1.0  0.55901  0.94162  0.50530  1.0000
  C   C1323     1.0  0.65413  0.73307  0.53988  1.0000
  H   H2237     1.0  0.43696  0.57022  0.56440  1.0000
  H   H2238     1.0  0.46342  0.82316  0.51700  1.0000
  C   C1324     1.0  0.46261  0.61664  0.55417  1.0000
  H   H2239     1.0  0.55055  0.78163  0.52462  1.0000
  C   C1325     1.0  0.65025  0.61013  0.48784  1.0000
  H   H2240     1.0  0.56244  0.84389  0.50088  1.0000
  H   H2241     1.0  0.55710  0.81533  0.49972  1.0000
  C   C1326     1.0  0.47639  0.81634  0.52400  1.0000
  S   S392      1.0  0.62681  0.86280  0.53543  1.0000
  H   H2242     1.0  0.55769  0.82008  0.52305  1.0000
  H   H2243     1.0  0.64493  0.87164  0.60146  1.0000
  H   H2244     1.0  0.49858  0.84226  0.51510  1.0000
  H   H2245     1.0  0.50457  0.81705  0.50701  1.0000
  C   C1327     1.0  0.46269  0.73758  0.47670  1.0000
  H   H2246     1.0  0.49966  0.80366  0.54358  1.0000
  C   C1328     1.0  0.51767  0.76750  0.52786  1.0000
  C   C1329     1.0  0.39884  0.58101  0.56524  1.0000
  C   C1330     1.0  0.59638  0.92367  0.48661  1.0000
  H   H2247     1.0  0.59729  0.84982  0.57777  1.0000
  H   H2248     1.0  0.64120  0.90631  0.54393  1.0000
  H   H2249     1.0  0.33035  0.89453  0.55123  1.0000
  C   C1331     1.0  0.58430  0.96360  0.49196  1.0000
  C   C1332     1.0  0.32947  0.60286  0.47860  1.0000
  C   C1333     1.0  0.54107  0.82776  0.51884  1.0000
  H   H2250     1.0  0.52998  0.75028  0.52951  1.0000
  H   H2251     1.0  0.39505  0.57500  0.57618  1.0000
  C   C1334     1.0  0.43634  0.70991  0.49136  1.0000
  C   C1335     1.0  0.55950  0.96017  0.50013  1.0000
  H   H2252     1.0  0.61643  0.82259  0.57506  1.0000
  C   C1336     1.0  0.50109  0.82244  0.51701  1.0000
  N   N95       1.0  0.52200  0.81230  0.52425  1.0000
  H   H2253     1.0  0.62684  0.65385  0.58762  1.0000
  C   C1337     1.0  0.63763  0.48833  0.47724  1.0000
  H   H2254     1.0  0.59735  0.95896  0.49900  1.0000
  H   H2255     1.0  0.33018  0.87006  0.59941  1.0000
  C   C1338     1.0  0.60560  0.78693  0.51714  1.0000
  H   H2256     1.0  0.49107  0.72118  0.49409  1.0000
  H   H2257     1.0  0.32269  0.92837  0.52791  1.0000
  H   H2258     1.0  0.55511  0.97142  0.50805  1.0000
  H   H2259     1.0  0.62340  0.85084  0.56550  1.0000
  H   H2260     1.0  0.36727  0.83194  0.57829  1.0000
  H   H2261     1.0  0.32468  0.79811  0.55052  1.0000
  H   H2262     1.0  0.61010  0.88773  0.48269  1.0000
  H   H2263     1.0  0.60734  0.92031  0.49464  1.0000
  C   C1339     1.0  0.65055  0.56810  0.49602  1.0000
  S   S393      1.0  0.34601  0.61955  0.54671  1.0000
  C   C1340     1.0  0.34787  0.96160  0.51581  1.0000
  H   H2264     1.0  0.61477  0.52163  0.47992  1.0000
  H   H2265     1.0  0.63341  0.48268  0.48820  1.0000
  H   H2266     1.0  0.32701  0.97068  0.50042  1.0000
  S   S394      1.0  0.59976  0.80363  0.54096  1.0000
  N   N96       1.0  0.46159  0.71430  0.48617  1.0000
  C   C1341     1.0  0.61541  0.71793  0.56288  1.0000
  C   C1342     1.0  0.35553  0.77542  0.54272  1.0000
  H   H2267     1.0  0.34122  0.80620  0.59306  1.0000
  C   C1343     1.0  0.42087  0.71089  0.48074  1.0000
  S   S395      1.0  0.38230  0.66225  0.48923  1.0000
  H   H2268     1.0  0.43113  0.75782  0.48820  1.0000
  H   H2269     1.0  0.57906  0.91782  0.49143  1.0000
  C   C1344     1.0  0.46054  0.72459  0.50964  1.0000
  C   C1345     1.0  0.53423  0.80433  0.54753  1.0000
  H   H2270     1.0  0.52617  0.80436  0.55817  1.0000
  H   H2271     1.0  0.54281  0.78582  0.54658  1.0000
  H   H2272     1.0  0.54786  0.81618  0.54522  1.0000
  C   C1346     1.0  0.41454  0.61791  0.54178  1.0000
  C   C1347     1.0  0.44297  0.58197  0.52404  1.0000
  C   C1348     1.0  0.40670  0.63833  0.55004  1.0000
  H   H2273     1.0  0.42188  0.62614  0.53155  1.0000
  H   H2274     1.0  0.39799  0.61237  0.54041  1.0000
  H   H2275     1.0  0.44170  0.56671  0.51942  1.0000
  H   H2276     1.0  0.43275  0.59791  0.51874  1.0000
  H   H2277     1.0  0.46212  0.58371  0.52220  1.0000
  H   H2278     1.0  0.41691  0.65313  0.54570  1.0000
  H   H2279     1.0  0.38747  0.64548  0.54990  1.0000
  C   C1349     1.0  0.60858  0.90613  0.47695  1.0000
  C   C1350     1.0  0.64447  0.75785  0.55729  1.0000
  S   S396      1.0  0.65300  0.89374  0.49973  1.0000
  H   H2280     1.0  0.61146  0.80352  0.51218  1.0000
  C   C1351     1.0  0.32824  0.63709  0.55809  1.0000
  S   S397      1.0  0.60247  0.72364  0.50696  1.0000
  C   C1352     1.0  0.34764  0.83767  0.57913  1.0000
  C   C1353     1.0  0.61632  0.84153  0.57546  1.0000
  S   S398      1.0  0.34302  0.72137  0.49993  1.0000
  H   H2281     1.0  0.65056  0.69721  0.56212  1.0000
  C   C1354     1.0  0.60635  0.76879  0.50978  1.0000
  H   H2282     1.0  0.63180  0.93623  0.51128  1.0000
  H   H2283     1.0  0.33232  0.67062  0.54528  1.0000
  C   C1355     1.0  0.62694  0.91273  0.57654  1.0000
  H   H2284     1.0  0.64415  0.55393  0.50354  1.0000
  N   N97       1.0  0.43191  0.59664  0.54684  1.0000
  H   H2285     1.0  0.34231  0.83224  0.57066  1.0000
  H   H2286     1.0  0.65302  0.64885  0.54644  1.0000
  C   C1356     1.0  0.59979  0.74676  0.51620  1.0000
  H   H2287     1.0  0.64796  0.79527  0.55262  1.0000
  H   H2288     1.0  0.34321  0.56627  0.47656  1.0000
  H   H2289     1.0  0.45899  0.76831  0.48682  1.0000
  Fe  Fe201     1.0  0.36003  0.63309  0.49734  1.0000
  C   C1357     1.0  0.62411  0.90849  0.56415  1.0000
  H   H2290     1.0  0.33620  0.75753  0.52397  1.0000
  H   H2291     1.0  0.35478  0.94377  0.51300  1.0000
  H   H2292     1.0  0.36285  0.79205  0.53821  1.0000
  C   C1358     1.0  0.32366  0.97211  0.51122  1.0000
  S   S399      1.0  0.59676  0.90151  0.56234  1.0000
  H   H2293     1.0  0.60797  0.70296  0.56984  1.0000
  H   H2294     1.0  0.62652  0.76318  0.55436  1.0000
  S   S400      1.0  0.33398  0.65438  0.51142  1.0000
  H   H2295     1.0  0.50569  0.76597  0.52108  1.0000
  H   H2296     1.0  0.32263  0.76801  0.55604  1.0000
  H   H2297     1.0  0.60504  0.73463  0.56603  1.0000
  S   S401      1.0  0.62082  0.59781  0.51186  1.0000
  C   C1359     1.0  0.33534  0.82569  0.59274  1.0000
  H   H2298     1.0  0.64091  0.75807  0.56819  1.0000
  H   H2299     1.0  0.61250  0.71675  0.55285  1.0000
  C   C1360     1.0  0.32813  0.78079  0.54692  1.0000
  C   C1361     1.0  0.53260  0.78743  0.52168  1.0000
  H   H2300     1.0  0.46941  0.82547  0.53275  1.0000
  H   H2301     1.0  0.42638  0.72270  0.49783  1.0000
  C   C1362     1.0  0.64321  0.90947  0.55352  1.0000
  C   C1363     1.0  0.59823  0.78304  0.53095  1.0000
  H   H2302     1.0  0.36140  0.76282  0.53559  1.0000
  C   C1364     1.0  0.45686  0.60245  0.54450  1.0000
  H   H2303     1.0  0.45031  0.63362  0.55483  1.0000
  C   C1365     1.0  0.43255  0.57711  0.53904  1.0000
  H   H2304     1.0  0.62604  0.86395  0.58675  1.0000
  H   H2305     1.0  0.40810  0.63313  0.56069  1.0000
  H   H2306     1.0  0.43630  0.69227  0.49795  1.0000
  H   H2307     1.0  0.47636  0.79702  0.52704  1.0000
  H   H2308     1.0  0.64581  0.52188  0.47827  1.0000
  H   H2309     1.0  0.64365  0.62853  0.48891  1.0000
  H   H2310     1.0  0.44648  0.71428  0.51537  1.0000
  S   S402      1.0  0.35266  0.60460  0.48709  1.0000
  H   H2311     1.0  0.64512  0.80038  0.58918  1.0000
  H   H2312     1.0  0.64302  0.71596  0.57418  1.0000
  H   H2313     1.0  0.40236  0.70912  0.48583  1.0000
  H   H2314     1.0  0.63150  0.94527  0.47826  1.0000
  H   H2315     1.0  0.65431  0.82645  0.60594  1.0000
  H   H2316     1.0  0.47299  0.72414  0.51658  1.0000
  H   H2317     1.0  0.54521  0.96583  0.49395  1.0000
  H   H2318     1.0  0.34439  0.85736  0.57797  1.0000
  N   N98       1.0  0.59290  0.94979  0.48057  1.0000
  H   H2319     1.0  0.34739  0.96057  0.52657  1.0000
  H   H2320     1.0  0.33860  0.77173  0.49044  1.0000
  C   C1366     1.0  0.32921  0.93011  0.48380  1.0000
  H   H2321     1.0  0.65083  0.97692  0.53822  1.0000
  H   H2322     1.0  0.33351  0.73298  0.54681  1.0000
  H   H2323     1.0  0.45252  0.74339  0.50685  1.0000
  C   C1367     1.0  0.64648  0.94041  0.50349  1.0000
  H   H2324     1.0  0.64219  0.48633  0.72132  1.0000
  C   C1368     1.0  0.44827  0.76035  0.48167  1.0000
  H   H2325     1.0  0.64617  0.69713  0.54056  1.0000
  H   H2326     1.0  0.32347  0.78616  0.61210  1.0000
  N   N99       1.0  0.65547  0.73341  0.55420  1.0000
  H   H2327     1.0  0.62053  0.56100  0.47757  1.0000
  C   C1369     1.0  0.55755  0.50160  0.81831  1.0000
  C   C1370     1.0  0.39863  0.96494  0.80172  1.0000
  H   H2328     1.0  0.53043  0.51602  0.80599  1.0000
  Fe  Fe202     1.0  0.58212  0.52328  0.84724  1.0000
  S   S403      1.0  0.54486  0.53962  0.84287  1.0000
  Fe  Fe203     1.0  0.63476  0.52846  0.83693  1.0000
  S   S404      1.0  0.60984  0.50889  0.83112  1.0000
  S   S405      1.0  0.60619  0.54585  0.85151  1.0000
  Fe  Fe204     1.0  0.41653  0.50836  0.85964  1.0000
  C   C1371     1.0  0.53126  0.50605  0.81626  1.0000
  Fe  Fe205     1.0  0.37670  0.54202  0.84647  1.0000
  S   S406      1.0  0.35856  0.51219  0.84496  1.0000
  S   S407      1.0  0.36157  0.58086  0.84069  1.0000
  Fe  Fe206     1.0  0.36538  0.49801  0.86591  1.0000
  H   H2329     1.0  0.62246  0.91689  0.81187  1.0000
  C   C1372     1.0  0.42051  0.90910  0.80939  1.0000
  S   S408      1.0  0.38133  0.52892  0.86781  1.0000
  S   S409      1.0  0.41361  0.52465  0.83844  1.0000
  H   H2330     1.0  0.38198  0.95855  0.80710  1.0000
  H   H2331     1.0  0.34799  0.94692  0.84673  1.0000
  H   H2332     1.0  0.63593  0.95395  0.85403  1.0000
  Fe  Fe207     1.0  0.39574  0.49367  0.83826  1.0000
  H   H2333     1.0  0.40793  0.95364  0.79420  1.0000
  H   H2334     1.0  0.33265  0.91017  0.84601  1.0000
  H   H2335     1.0  0.41950  0.89239  0.81672  1.0000
  H   H2336     1.0  0.40976  0.52359  0.89059  1.0000
  H   H2337     1.0  0.52766  0.51614  0.89437  1.0000
  H   H2338     1.0  0.55413  0.55802  0.91509  1.0000
  C   C1373     1.0  0.35655  0.49463  0.92494  1.0000
  H   H2339     1.0  0.56498  0.57932  0.90139  1.0000
  S   S410      1.0  0.38865  0.97772  0.85826  1.0000
  S   S411      1.0  0.59136  0.49270  0.86332  1.0000
  H   H2340     1.0  0.65218  0.52384  0.74650  1.0000
  H   H2341     1.0  0.64809  0.48833  0.80592  1.0000
  C   C1374     1.0  0.39770  0.51702  0.89977  1.0000
  H   H2342     1.0  0.47154  0.94896  0.81288  1.0000
  C   C1375     1.0  0.55536  0.58766  0.86114  1.0000
  H   H2343     1.0  0.53897  0.59922  0.85815  1.0000
  C   C1376     1.0  0.51871  0.50808  0.86074  1.0000
  C   C1377     1.0  0.51858  0.52799  0.85061  1.0000
  C   C1378     1.0  0.49693  0.53912  0.84639  1.0000
  C   C1379     1.0  0.47557  0.53036  0.85213  1.0000
  C   C1380     1.0  0.47562  0.51060  0.86233  1.0000
  H   H2344     1.0  0.49667  0.55458  0.83859  1.0000
  H   H2345     1.0  0.45901  0.53911  0.84878  1.0000
  C   C1381     1.0  0.33948  0.96475  0.82760  1.0000
  H   H2346     1.0  0.33651  0.53079  0.88728  1.0000
  H   H2347     1.0  0.49706  0.50085  0.80404  1.0000
  C   C1382     1.0  0.64188  0.91816  0.78619  1.0000
  H   H2348     1.0  0.47459  0.95940  0.82736  1.0000
  C   C1383     1.0  0.34014  0.94582  0.83831  1.0000
  H   H2349     1.0  0.33975  0.56721  0.78213  1.0000
  H   H2350     1.0  0.40702  0.51635  0.90813  1.0000
  H   H2351     1.0  0.47886  0.56175  0.88197  1.0000
  H   H2352     1.0  0.48259  0.52492  0.82264  1.0000
  H   H2353     1.0  0.57216  0.57695  0.87843  1.0000
  S   S412      1.0  0.64790  0.49839  0.85231  1.0000
  H   H2354     1.0  0.49237  0.55155  0.89649  1.0000
  H   H2355     1.0  0.56398  0.51899  0.81620  1.0000
  C   C1384     1.0  0.53494  0.56414  0.89831  1.0000
  H   H2356     1.0  0.57109  0.53854  0.87828  1.0000
  H   H2357     1.0  0.65165  0.61651  0.84128  1.0000
  H   H2358     1.0  0.32986  0.97162  0.95845  1.0000
  N   N100      1.0  0.53859  0.56325  0.88362  1.0000
  H   H2359     1.0  0.64278  0.91624  0.77566  1.0000
  H   H2360     1.0  0.37292  0.49755  0.89576  1.0000
  H   H2361     1.0  0.43190  0.48207  0.92061  1.0000
  H   H2362     1.0  0.46004  0.51250  0.81824  1.0000
  H   H2363     1.0  0.54640  0.59929  0.88014  1.0000
  H   H2364     1.0  0.32519  0.97946  0.91856  1.0000
  C   C1385     1.0  0.32909  0.57099  0.82731  1.0000
  C   C1386     1.0  0.39119  0.49315  0.89831  1.0000
  H   H2365     1.0  0.62681  0.93245  0.78878  1.0000
  C   C1387     1.0  0.49724  0.49958  0.86667  1.0000
  C   C1388     1.0  0.64989  0.50150  0.79654  1.0000
  C   C1389     1.0  0.55346  0.58210  0.87643  1.0000
  H   H2366     1.0  0.39145  0.95379  0.83512  1.0000
  H   H2367     1.0  0.35341  0.50934  0.91656  1.0000
  H   H2368     1.0  0.53530  0.49927  0.86402  1.0000
  C   C1390     1.0  0.49601  0.55360  0.88549  1.0000
  C   C1391     1.0  0.40574  0.91730  0.84182  1.0000
  H   H2369     1.0  0.49741  0.48428  0.87456  1.0000
  C   C1392     1.0  0.54676  0.51708  0.89081  1.0000
  C   C1393     1.0  0.46200  0.95996  0.82048  1.0000
  H   H2370     1.0  0.50105  0.53604  0.88219  1.0000
  H   H2371     1.0  0.65004  0.94928  0.80661  1.0000
  H   H2372     1.0  0.52336  0.58110  0.90052  1.0000
  H   H2373     1.0  0.38763  0.93387  0.82543  1.0000
  H   H2374     1.0  0.55958  0.49379  0.82875  1.0000
  H   H2375     1.0  0.55865  0.57128  0.85674  1.0000
  S   S413      1.0  0.61735  0.52401  0.88690  1.0000
  H   H2376     1.0  0.41802  0.90182  0.83828  1.0000
  H   H2377     1.0  0.57049  0.59748  0.85673  1.0000
  H   H2378     1.0  0.50647  0.58830  0.88032  1.0000
  C   C1394     1.0  0.65345  0.95070  0.84804  1.0000
  C   C1395     1.0  0.55138  0.53932  0.88027  1.0000
  C   C1396     1.0  0.55801  0.56220  0.90404  1.0000
  C   C1397     1.0  0.49533  0.49136  0.81452  1.0000
  H   H2379     1.0  0.64911  0.51898  0.79951  1.0000
  C   C1398     1.0  0.51472  0.56974  0.87894  1.0000
  N   N101      1.0  0.42274  0.94470  0.82068  1.0000
  H   H2380     1.0  0.62544  0.54160  0.90930  1.0000
  C   C1399     1.0  0.43926  0.95075  0.82861  1.0000
  C   C1400     1.0  0.64195  0.53088  0.90552  1.0000
  H   H2381     1.0  0.43111  0.97324  0.80436  1.0000
  C   C1401     1.0  0.64302  0.51971  0.89454  1.0000
  H   H2382     1.0  0.38150  0.53091  0.90045  1.0000
  H   H2383     1.0  0.64967  0.95294  0.87831  1.0000
  H   H2384     1.0  0.42959  0.90331  0.79981  1.0000
  H   H2385     1.0  0.52157  0.51888  0.82292  1.0000
  H   H2386     1.0  0.57227  0.54801  0.90051  1.0000
  Fe  Fe208     1.0  0.61748  0.51428  0.86669  1.0000
  C   C1402     1.0  0.63306  0.92069  0.81869  1.0000
  H   H2387     1.0  0.56958  0.49036  0.81146  1.0000
  H   H2388     1.0  0.44756  0.93179  0.80412  1.0000
  S   S414      1.0  0.44898  0.49958  0.87003  1.0000
  H   H2389     1.0  0.52523  0.54992  0.90439  1.0000
  H   H2390     1.0  0.51686  0.56944  0.86807  1.0000
  H   H2391     1.0  0.54715  0.53650  0.87079  1.0000
  H   H2392     1.0  0.34360  0.48232  0.92609  1.0000
  H   H2393     1.0  0.41293  0.92299  0.84960  1.0000
  H   H2394     1.0  0.39350  0.49334  0.92549  1.0000
  C   C1403     1.0  0.32456  0.52202  0.89527  1.0000
  H   H2395     1.0  0.62150  0.93411  0.82445  1.0000
  C   C1404     1.0  0.43587  0.92470  0.81336  1.0000
  C   C1405     1.0  0.32588  0.61212  0.82963  1.0000
  H   H2396     1.0  0.44567  0.93494  0.83578  1.0000
  H   H2397     1.0  0.40296  0.48734  0.88927  1.0000
  H   H2398     1.0  0.44802  0.91213  0.81963  1.0000
  C   C1406     1.0  0.33745  0.58839  0.83182  1.0000
  H   H2399     1.0  0.55573  0.51579  0.89946  1.0000
  H   H2400     1.0  0.45788  0.97889  0.81578  1.0000
  H   H2401     1.0  0.32868  0.97751  0.80840  1.0000
  C   C1407     1.0  0.40100  0.93821  0.83040  1.0000
  H   H2402     1.0  0.63918  0.57994  0.83795  1.0000
  H   H2403     1.0  0.38856  0.91129  0.84673  1.0000
  H   H2404     1.0  0.40232  0.91789  0.80786  1.0000
  H   H2405     1.0  0.55460  0.50085  0.88636  1.0000
  H   H2406     1.0  0.33236  0.62571  0.83302  1.0000
  C   C1408     1.0  0.41534  0.96692  0.81110  1.0000
  H   H2407     1.0  0.42962  0.96443  0.83481  1.0000
  C   C1409     1.0  0.47658  0.50794  0.82273  1.0000
  S   S415      1.0  0.33803  0.48256  0.88266  1.0000
  C   C1410     1.0  0.33140  0.92503  0.83789  1.0000
  H   H2408     1.0  0.63746  0.90450  0.82610  1.0000
  H   H2409     1.0  0.43965  0.48779  0.90246  1.0000
  H   H2410     1.0  0.40647  0.98172  0.81668  1.0000
  H   H2411     1.0  0.33811  0.55281  0.82867  1.0000
  H   H2412     1.0  0.63804  0.90089  0.79211  1.0000
  H   H2413     1.0  0.35241  0.50258  0.93417  1.0000
  H   H2414     1.0  0.64360  0.51883  0.77092  1.0000
  H   H2415     1.0  0.32433  0.57664  0.86537  1.0000
  C   C1411     1.0  0.32920  0.96301  0.81676  1.0000
  H   H2416     1.0  0.64686  0.58459  0.88087  1.0000
  H   H2417     1.0  0.50857  0.48832  0.83959  1.0000
  H   H2418     1.0  0.55066  0.48818  0.79324  1.0000
  H   H2419     1.0  0.47147  0.49930  0.83318  1.0000
  N   N102      1.0  0.51943  0.48428  0.81886  1.0000
  H   H2420     1.0  0.63431  0.50180  0.79180  1.0000
  H   H2421     1.0  0.65077  0.56822  0.86766  1.0000
  C   C1412     1.0  0.65549  0.58539  0.83220  1.0000
  H   H2422     1.0  0.78782  0.47161  0.00207  1.0000
  Fe  Fe209     1.0  0.74070  0.04478  0.19729  1.0000
  S   S416      1.0  0.70421  0.04827  0.20962  1.0000
  S   S417      1.0  0.75223  0.06843  0.17795  1.0000
  H   H2423     1.0  0.66256  0.46565  0.04008  1.0000
  S   S418      1.0  0.69633  0.01483  0.98654  1.0000
  C   C1413     1.0  0.69765  0.06385  0.02464  1.0000
  S   S419      1.0  0.74349  0.00579  0.19731  1.0000
  Fe  Fe210     1.0  0.73645  0.15851  0.10276  1.0000
  S   S420      1.0  0.71669  0.18628  0.08887  1.0000
  S   S421      1.0  0.77101  0.13657  0.09482  1.0000
  Fe  Fe211     1.0  0.69630  0.16337  0.12593  1.0000
  S   S422      1.0  0.67305  0.19148  0.11361  1.0000
  S   S423      1.0  0.68248  0.14952  0.14756  1.0000
  Fe  Fe212     1.0  0.68513  0.16788  0.09790  1.0000
  Fe  Fe213     1.0  0.70662  0.20758  0.10566  1.0000
  S   S424      1.0  0.70673  0.24792  0.09960  1.0000
  S   S425      1.0  0.70563  0.13881  0.11084  1.0000
  S   S426      1.0  0.72913  0.18080  0.11897  1.0000
  Fe  Fe214     1.0  0.74421  0.40658  0.10571  1.0000
  S   S427      1.0  0.75884  0.38440  0.12365  1.0000
  S   S428      1.0  0.76240  0.42133  0.08530  1.0000
  Fe  Fe215     1.0  0.69289  0.40797  0.11915  1.0000
  S   S429      1.0  0.70323  0.38578  0.13797  1.0000
  S   S430      1.0  0.81714  0.12493  0.00331  1.0000
  Fe  Fe216     1.0  0.73116  0.40914  0.13546  1.0000
  S   S431      1.0  0.72885  0.42611  0.15392  1.0000
  Fe  Fe217     1.0  0.72950  0.36311  0.12464  1.0000
  S   S432      1.0  0.73355  0.32244  0.12973  1.0000
  S   S433      1.0  0.71883  0.43264  0.11732  1.0000
  S   S434      1.0  0.71697  0.38378  0.10601  1.0000
  Fe  Fe218     1.0  0.83963  0.15260  0.00487  1.0000
  S   S435      1.0  0.85722  0.14291  0.02331  1.0000
  H   H2424     1.0  0.67355  0.29905  0.12905  1.0000
  Fe  Fe219     1.0  0.85722  0.20101  0.99750  1.0000
  S   S436      1.0  0.87542  0.19444  0.01517  1.0000
  C   C1414     1.0  0.78197  0.09237  0.98351  1.0000
  Fe  Fe220     1.0  0.88874  0.15798  0.01040  1.0000
  S   S437      1.0  0.92797  0.14182  0.01004  1.0000
  Fe  Fe221     1.0  0.84254  0.18045  0.02639  1.0000
  S   S438      1.0  0.82659  0.19609  0.04494  1.0000
  S   S439      1.0  0.87256  0.16496  0.99170  1.0000
  S   S440      1.0  0.82299  0.18956  0.00903  1.0000
  Fe  Fe222     1.0  0.85555  0.40444  0.01249  1.0000
  S   S441      1.0  0.88544  0.40424  0.02350  1.0000
  H   H2425     1.0  0.77189  0.30781  0.10317  1.0000
  Fe  Fe223     1.0  0.86178  0.34966  0.01729  1.0000
  S   S442      1.0  0.89205  0.34536  0.02853  1.0000
  S   S443      1.0  0.84105  0.31971  0.01890  1.0000
  Fe  Fe224     1.0  0.87003  0.37527  0.03847  1.0000
  S   S444      1.0  0.86459  0.37152  0.06086  1.0000
  Fe  Fe225     1.0  0.90521  0.37448  0.01262  1.0000
  S   S445      1.0  0.94435  0.37204  0.00287  1.0000
  S   S446      1.0  0.83894  0.37756  0.02841  1.0000
  S   S447      1.0  0.87625  0.37669  0.00035  1.0000
  C   C1415     1.0  0.96674  0.37337  0.01194  1.0000
  C   C1416     1.0  0.96163  0.37341  0.02567  1.0000
  C   C1417     1.0  0.81786  0.02769  0.98514  1.0000
  H   H2426     1.0  0.94354  0.37302  0.03092  1.0000
  H   H2427     1.0  0.80392  0.45544  0.15274  1.0000
  C   C1418     1.0  0.85690  0.25975  0.99415  1.0000
  C   C1419     1.0  0.86448  0.28167  0.98852  1.0000
  C   C1420     1.0  0.86104  0.29987  0.99621  1.0000
  C   C1421     1.0  0.84912  0.29650  0.00940  1.0000
  C   C1422     1.0  0.84130  0.27474  0.01492  1.0000
  C   C1423     1.0  0.84547  0.25634  0.00742  1.0000
  H   H2428     1.0  0.95028  0.19651  0.03432  1.0000
  H   H2429     1.0  0.83180  0.27210  0.02505  1.0000
  H   H2430     1.0  0.83922  0.23970  0.01183  1.0000
  C   C1424     1.0  0.94815  0.15417  0.01635  1.0000
  C   C1425     1.0  0.94021  0.17283  0.02363  1.0000
  H   H2431     1.0  0.92145  0.18004  0.02538  1.0000
  C   C1426     1.0  0.79119  0.40780  0.07890  1.0000
  C   C1427     1.0  0.80550  0.39143  0.08706  1.0000
  C   C1428     1.0  0.82833  0.38079  0.08152  1.0000
  C   C1429     1.0  0.83667  0.38611  0.06779  1.0000
  C   C1430     1.0  0.82234  0.40250  0.05968  1.0000
  C   C1431     1.0  0.79973  0.41338  0.06524  1.0000
  H   H2432     1.0  0.79907  0.38717  0.09763  1.0000
  H   H2433     1.0  0.83946  0.36825  0.08784  1.0000
  H   H2434     1.0  0.82884  0.40715  0.04916  1.0000
  H   H2435     1.0  0.78880  0.42616  0.05891  1.0000
  C   C1432     1.0  0.78763  0.15277  0.08135  1.0000
  C   C1433     1.0  0.78517  0.17747  0.08010  1.0000
  C   C1434     1.0  0.79768  0.19046  0.06898  1.0000
  C   C1435     1.0  0.81186  0.17895  0.05881  1.0000
  C   C1436     1.0  0.81426  0.15423  0.05999  1.0000
  C   C1437     1.0  0.80261  0.14107  0.07144  1.0000
  H   H2436     1.0  0.77368  0.18654  0.08777  1.0000
  H   H2437     1.0  0.79589  0.20957  0.06813  1.0000
  H   H2438     1.0  0.82522  0.14526  0.05215  1.0000
  H   H2439     1.0  0.80444  0.12194  0.07239  1.0000
  C   C1438     1.0  0.71464  0.26821  0.10809  1.0000
  C   C1439     1.0  0.71307  0.29242  0.10222  1.0000
  C   C1440     1.0  0.71888  0.30923  0.10864  1.0000
  C   C1441     1.0  0.72632  0.30202  0.12105  1.0000
  C   C1442     1.0  0.72806  0.27781  0.12686  1.0000
  C   C1443     1.0  0.72223  0.26101  0.12045  1.0000
  S   S448      1.0  0.67746  0.99092  0.20865  1.0000
  H   H2440     1.0  0.71752  0.32774  0.10401  1.0000
  H   H2441     1.0  0.73385  0.27200  0.13643  1.0000
  H   H2442     1.0  0.72356  0.24248  0.12509  1.0000
  H   H2443     1.0  0.66481  0.00015  0.01042  1.0000
  C   C1444     1.0  0.73730  0.45727  0.16840  1.0000
  C   C1445     1.0  0.74711  0.44355  0.15829  1.0000
  C   C1446     1.0  0.77109  0.44336  0.15250  1.0000
  C   C1447     1.0  0.93153  0.20086  0.97899  1.0000
  H   H2444     1.0  0.76871  0.41149  0.01284  1.0000
  H   H2445     1.0  0.77893  0.43280  0.14476  1.0000
  H   H2446     1.0  0.74182  0.16048  0.17213  1.0000
  C   C1448     1.0  0.73233  0.09068  0.16973  1.0000
  C   C1449     1.0  0.74047  0.10184  0.15679  1.0000
  C   C1450     1.0  0.72531  0.11992  0.14993  1.0000
  C   C1451     1.0  0.70201  0.12731  0.15608  1.0000
  C   C1452     1.0  0.69395  0.11647  0.16913  1.0000
  C   C1453     1.0  0.70894  0.09793  0.17589  1.0000
  H   H2447     1.0  0.75858  0.09638  0.15200  1.0000
  H   H2448     1.0  0.73168  0.12821  0.13988  1.0000
  H   H2449     1.0  0.67593  0.12225  0.17392  1.0000
  H   H2450     1.0  0.70253  0.08948  0.18587  1.0000
  C   C1454     1.0  0.78459  0.35612  0.99017  1.0000
  H   H2451     1.0  0.71009  0.06970  0.04164  1.0000
  H   H2452     1.0  0.68841  0.02228  0.17864  1.0000
  H   H2453     1.0  0.79111  0.31754  0.99171  1.0000
  C   C1455     1.0  0.67843  0.10799  0.04982  1.0000
  H   H2454     1.0  0.91164  0.25958  0.01659  1.0000
  H   H2455     1.0  0.90921  0.22422  0.99153  1.0000
  C   C1456     1.0  0.73070  0.13720  0.19051  1.0000
  H   H2456     1.0  0.66867  0.37991  0.10367  1.0000
  H   H2457     1.0  0.91589  0.19213  0.97946  1.0000
  C   C1457     1.0  0.92726  0.21344  0.99117  1.0000
  C   C1458     1.0  0.67572  0.03153  0.99757  1.0000
  C   C1459     1.0  0.66123  0.10586  0.03067  1.0000
  H   H2458     1.0  0.98341  0.27994  0.02534  1.0000
  N   N103      1.0  0.79117  0.37670  0.99470  1.0000
  C   C1460     1.0  0.71758  0.01994  0.16251  1.0000
  C   C1461     1.0  0.75718  0.41623  0.20239  1.0000
  H   H2459     1.0  0.76384  0.46293  0.19802  1.0000
  C   C1462     1.0  0.73850  0.40279  0.19987  1.0000
  H   H2460     1.0  0.72828  0.39430  0.20916  1.0000
  H   H2461     1.0  0.72928  0.00929  0.16957  1.0000
  H   H2462     1.0  0.71072  0.43535  0.21168  1.0000
  C   C1463     1.0  0.67341  0.05030  0.05737  1.0000
  H   H2463     1.0  0.68071  0.01720  0.08826  1.0000
  C   C1464     1.0  0.79571  0.46460  0.99300  1.0000
  H   H2464     1.0  0.78590  0.41524  0.98973  1.0000
  H   H2465     1.0  0.68681  0.12077  0.20257  1.0000
  C   C1465     1.0  0.69654  0.03498  0.17033  1.0000
  H   H2466     1.0  0.73577  0.17484  0.18634  1.0000
  H   H2467     1.0  0.82185  0.39259  0.99488  1.0000
  H   H2468     1.0  0.65987  0.37402  0.08935  1.0000
  C   C1466     1.0  0.93954  0.23910  0.00407  1.0000
  H   H2469     1.0  0.70442  0.04636  0.17518  1.0000
  H   H2470     1.0  0.96237  0.25784  0.98044  1.0000
  C   C1467     1.0  0.68097  0.02152  0.09813  1.0000
  C   C1468     1.0  0.97997  0.37372  0.03267  1.0000
  C   C1469     1.0  0.69856  0.08017  0.03451  1.0000
  C   C1470     1.0  0.80791  0.13037  0.97731  1.0000
  H   H2471     1.0  0.67206  0.11878  0.02398  1.0000
  N   N104      1.0  0.67465  0.09115  0.04142  1.0000
  H   H2472     1.0  0.70723  0.29818  0.09266  1.0000
  H   H2473     1.0  0.67779  0.98254  0.12699  1.0000
  H   H2474     1.0  0.67555  0.03486  0.05218  1.0000
  H   H2475     1.0  0.72426  0.45571  0.19900  1.0000
  C   C1471     1.0  0.78474  0.47239  0.98161  1.0000
  H   H2476     1.0  0.70287  0.07543  0.15552  1.0000
  H   H2477     1.0  0.68251  0.33676  0.12306  1.0000
  H   H2478     1.0  0.80227  0.01835  0.98907  1.0000
  H   H2479     1.0  0.92559  0.19948  0.00020  1.0000
  S   S449      1.0  0.76029  0.03941  0.21455  1.0000
  C   C1472     1.0  0.78524  0.45616  0.15708  1.0000
  H   H2480     1.0  0.96457  0.30833  0.02210  1.0000
  H   H2481     1.0  0.78954  0.08894  0.00341  1.0000
  H   H2482     1.0  0.69328  0.07451  0.01506  1.0000
  H   H2483     1.0  0.97859  0.44939  0.03888  1.0000
  H   H2484     1.0  0.68470  0.05140  0.02865  1.0000
  H   H2485     1.0  0.70357  0.15725  0.21032  1.0000
  C   C1473     1.0  0.79195  0.09880  0.99337  1.0000
  N   N105      1.0  0.74100  0.17560  0.04638  1.0000
  C   C1474     1.0  0.74962  0.15896  0.05820  1.0000
  C   C1475     1.0  0.75713  0.19421  0.04177  1.0000
  C   C1476     1.0  0.74214  0.16247  0.03510  1.0000
  C   C1477     1.0  0.71544  0.18663  0.05052  1.0000
  C   C1478     1.0  0.73601  0.13798  0.06428  1.0000
  C   C1479     1.0  0.75278  0.21404  0.05030  1.0000
  C   C1480     1.0  0.76666  0.14778  0.03054  1.0000
  C   C1481     1.0  0.70392  0.20489  0.03965  1.0000
  H   H2486     1.0  0.76873  0.15132  0.05565  1.0000
  H   H2487     1.0  0.74887  0.16876  0.06642  1.0000
  H   H2488     1.0  0.75619  0.20305  0.03130  1.0000
  H   H2489     1.0  0.77622  0.18581  0.04149  1.0000
  H   H2490     1.0  0.72864  0.15036  0.03761  1.0000
  H   H2491     1.0  0.73730  0.17519  0.02613  1.0000
  H   H2492     1.0  0.70377  0.17272  0.05374  1.0000
  H   H2493     1.0  0.71315  0.19485  0.05960  1.0000
  H   H2494     1.0  0.74525  0.12647  0.07227  1.0000
  H   H2495     1.0  0.71758  0.14411  0.06919  1.0000
  H   H2496     1.0  0.73582  0.12669  0.05692  1.0000
  H   H2497     1.0  0.73609  0.22665  0.04884  1.0000
  H   H2498     1.0  0.75210  0.20689  0.06106  1.0000
  H   H2499     1.0  0.76773  0.22443  0.04716  1.0000
  H   H2500     1.0  0.77159  0.13232  0.03824  1.0000
  H   H2501     1.0  0.78109  0.15875  0.02765  1.0000
  H   H2502     1.0  0.76586  0.14048  0.02156  1.0000
  C   C1482     1.0  0.65896  0.01547  0.10849  1.0000
  H   H2503     1.0  0.71690  0.21428  0.03219  1.0000
  H   H2504     1.0  0.69104  0.21892  0.04437  1.0000
  H   H2505     1.0  0.76318  0.15394  0.18307  1.0000
  H   H2506     1.0  0.87300  0.28457  0.97820  1.0000
  H   H2507     1.0  0.68822  0.12210  0.04352  1.0000
  C   C1483     1.0  0.79705  0.33120  0.99581  1.0000
  C   C1484     1.0  0.75127  0.47055  0.17273  1.0000
  H   H2508     1.0  0.72897  0.03115  0.15498  1.0000
  C   C1485     1.0  0.94978  0.24649  0.97931  1.0000
  H   H2509     1.0  0.84947  0.05648  0.97981  1.0000
  C   C1486     1.0  0.69102  0.06690  0.15144  1.0000
  N   N106      1.0  0.74857  0.43429  0.21169  1.0000
  C   C1487     1.0  0.66187  0.01942  0.00854  1.0000
  H   H2510     1.0  0.66934  0.36603  0.12519  1.0000
  H   H2511     1.0  0.91130  0.25591  0.97729  1.0000
  H   H2512     1.0  0.70981  0.08748  0.05854  1.0000
  H   H2513     1.0  0.79907  0.42904  0.20112  1.0000
  H   H2514     1.0  0.77193  0.40254  0.20595  1.0000
  H   H2515     1.0  0.76674  0.08758  0.19999  1.0000
  H   H2516     1.0  0.76045  0.11455  0.21717  1.0000
  H   H2517     1.0  0.70886  0.09437  0.02881  1.0000
  H   H2518     1.0  0.97612  0.20401  0.98276  1.0000
  H   H2519     1.0  0.73712  0.12199  0.18503  1.0000
  H   H2520     1.0  0.71873  0.45760  0.17289  1.0000
  C   C1488     1.0  0.72404  0.44746  0.20965  1.0000
  C   C1489     1.0  0.78244  0.37439  0.00957  1.0000
  N   N107      1.0  0.67818  0.05027  0.16240  1.0000
  H   H2521     1.0  0.66224  0.04547  0.06721  1.0000
  H   H2522     1.0  0.92482  0.19842  0.06366  1.0000
  H   H2523     1.0  0.73545  0.47329  0.02999  1.0000
  C   C1490     1.0  0.74378  0.15780  0.18279  1.0000
  H   H2524     1.0  0.76489  0.42494  0.19227  1.0000
  H   H2525     1.0  0.86677  0.31674  0.99179  1.0000
  H   H2526     1.0  0.90574  0.26278  0.00015  1.0000
  C   C1491     1.0  0.81779  0.37630  0.99236  1.0000
  C   C1492     1.0  0.96921  0.21086  0.99231  1.0000
  C   C1493     1.0  0.95660  0.18219  0.02861  1.0000
  N   N108      1.0  0.89323  0.16657  0.06241  1.0000
  C   C1494     1.0  0.89033  0.18846  0.05186  1.0000
  C   C1495     1.0  0.91141  0.14756  0.05636  1.0000
  C   C1496     1.0  0.90177  0.17175  0.07413  1.0000
  C   C1497     1.0  0.86932  0.15861  0.06718  1.0000
  C   C1498     1.0  0.87561  0.21133  0.05662  1.0000
  C   C1499     1.0  0.90308  0.13591  0.04638  1.0000
  C   C1500     1.0  0.92560  0.18148  0.07083  1.0000
  C   C1501     1.0  0.86866  0.13591  0.07786  1.0000
  H   H2527     1.0  0.90796  0.19295  0.04660  1.0000
  H   H2528     1.0  0.88153  0.18511  0.04399  1.0000
  H   H2529     1.0  0.91808  0.13304  0.06413  1.0000
  H   H2530     1.0  0.92771  0.15487  0.05096  1.0000
  H   H2531     1.0  0.88801  0.18443  0.07945  1.0000
  H   H2532     1.0  0.90437  0.15532  0.08168  1.0000
  H   H2533     1.0  0.85605  0.17267  0.07164  1.0000
  H   H2534     1.0  0.86145  0.15629  0.05870  1.0000
  H   H2535     1.0  0.87395  0.22557  0.04779  1.0000
  H   H2536     1.0  0.85716  0.20909  0.06147  1.0000
  H   H2537     1.0  0.88439  0.21797  0.06336  1.0000
  H   H2538     1.0  0.91856  0.12412  0.04161  1.0000
  H   H2539     1.0  0.88944  0.12460  0.05139  1.0000
  H   H2540     1.0  0.89608  0.14926  0.03827  1.0000
  H   H2541     1.0  0.92428  0.27992  0.98018  1.0000
  H   H2542     1.0  0.66048  0.02162  0.11770  1.0000
  H   H2543     1.0  0.68173  0.34186  0.14561  1.0000
  H   H2544     1.0  0.86414  0.14056  0.08803  1.0000
  H   H2545     1.0  0.88555  0.12312  0.07718  1.0000
  H   H2546     1.0  0.85485  0.12618  0.07651  1.0000
  N   N109      1.0  0.78996  0.32353  0.07531  1.0000
  C   C1502     1.0  0.80489  0.33637  0.06342  1.0000
  C   C1503     1.0  0.76434  0.33550  0.07550  1.0000
  C   C1504     1.0  0.79225  0.29818  0.07316  1.0000
  C   C1505     1.0  0.79929  0.32436  0.08777  1.0000
  C   C1506     1.0  0.83142  0.32510  0.06037  1.0000
  C   C1507     1.0  0.75974  0.36265  0.07527  1.0000
  C   C1508     1.0  0.77705  0.28190  0.08354  1.0000
  C   C1509     1.0  0.78139  0.32318  0.10101  1.0000
  H   H2547     1.0  0.79722  0.33806  0.05419  1.0000
  H   H2548     1.0  0.80497  0.35492  0.06471  1.0000
  H   H2549     1.0  0.75243  0.32775  0.08437  1.0000
  H   H2550     1.0  0.75751  0.33245  0.06679  1.0000
  H   H2551     1.0  0.78782  0.29798  0.06322  1.0000
  H   H2552     1.0  0.81096  0.28879  0.07302  1.0000
  H   H2553     1.0  0.81465  0.30979  0.08930  1.0000
  H   H2554     1.0  0.80668  0.34101  0.08676  1.0000
  H   H2555     1.0  0.84095  0.33759  0.05257  1.0000
  H   H2556     1.0  0.84034  0.32186  0.06922  1.0000
  H   H2557     1.0  0.83372  0.30851  0.05619  1.0000
  H   H2558     1.0  0.76578  0.37245  0.06521  1.0000
  H   H2559     1.0  0.74028  0.36895  0.07785  1.0000
  H   H2560     1.0  0.76862  0.36762  0.08256  1.0000
  H   H2561     1.0  0.75780  0.28931  0.08508  1.0000
  H   H2562     1.0  0.78387  0.27709  0.09312  1.0000
  H   H2563     1.0  0.77862  0.26484  0.07989  1.0000
  H   H2564     1.0  0.76804  0.33967  0.10138  1.0000
  H   H2565     1.0  0.79123  0.32154  0.10938  1.0000
  N   N110      1.0  0.94594  0.22791  0.99161  1.0000
  H   H2566     1.0  0.76800  0.13843  0.20453  1.0000
  H   H2567     1.0  0.72603  0.41475  0.19362  1.0000
  H   H2568     1.0  0.66754  0.33651  0.10401  1.0000
  H   H2569     1.0  0.69359  0.11152  0.06661  1.0000
  H   H2570     1.0  0.79256  0.32686  0.00681  1.0000
  C   C1510     1.0  0.67514  0.08719  0.14355  1.0000
  H   H2571     1.0  0.71857  0.45813  0.04461  1.0000
  S   S450      1.0  0.83003  0.43881  0.00722  1.0000
  C   C1511     1.0  0.81681  0.44777  0.99274  1.0000
  H   H2572     1.0  0.83415  0.01478  0.98698  1.0000
  H   H2573     1.0  0.77633  0.11150  0.18728  1.0000
  H   H2574     1.0  0.76380  0.37055  0.01213  1.0000
  C   C1512     1.0  0.80498  0.11783  0.99037  1.0000
  C   C1513     1.0  0.66950  0.44447  0.09276  1.0000
  C   C1514     1.0  0.82707  0.43902  0.98095  1.0000
  H   H2575     1.0  0.71553  0.05298  0.02229  1.0000
  H   H2576     1.0  0.79234  0.09952  0.20074  1.0000
  H   H2577     1.0  0.96651  0.19481  0.99994  1.0000
  C   C1515     1.0  0.79214  0.44210  0.20797  1.0000
  H   H2578     1.0  0.70301  0.05700  0.14387  1.0000
  H   H2579     1.0  0.68123  0.46214  0.07291  1.0000
  H   H2580     1.0  0.71156  0.00707  0.15787  1.0000
  H   H2581     1.0  0.68712  0.43483  0.09400  1.0000
  C   C1516     1.0  0.72070  0.10828  0.21053  1.0000
  H   H2582     1.0  0.79340  0.35909  0.01510  1.0000
  H   H2583     1.0  0.80008  0.40212  0.01357  1.0000
  H   H2584     1.0  0.66880  0.11513  0.10105  1.0000
  C   C1517     1.0  0.97272  0.14521  0.01395  1.0000
  C   C1518     1.0  0.67185  0.05642  0.99523  1.0000
  C   C1519     1.0  0.69161  0.09697  0.06163  1.0000
  H   H2585     1.0  0.69085  0.05198  0.05947  1.0000
  H   H2586     1.0  0.69444  0.47371  0.21680  1.0000
  N   N111      1.0  0.73310  0.12957  0.20500  1.0000
  H   H2587     1.0  0.68239  0.06592  0.98679  1.0000
  C   C1520     1.0  0.75896  0.12255  0.20663  1.0000
  H   H2588     1.0  0.81563  0.04234  0.99093  1.0000
  C   C1521     1.0  0.65995  0.07287  0.04961  1.0000
  H   H2589     1.0  0.78841  0.35745  0.97920  1.0000
  C   C1522     1.0  0.72206  0.15009  0.21228  1.0000
  C   C1523     1.0  0.98118  0.17348  0.02606  1.0000
  Fe  Fe226     1.0  0.75965  0.00037  0.21591  1.0000
  H   H2590     1.0  0.66441  0.08046  0.13786  1.0000
  H   H2591     1.0  0.73202  0.16526  0.20853  1.0000
  H   H2592     1.0  0.68648  0.47134  0.01632  1.0000
  H   H2593     1.0  0.84362  0.42651  0.98058  1.0000
  C   C1524     1.0  0.91316  0.24987  0.00820  1.0000
  H   H2594     1.0  0.71166  0.14297  0.18936  1.0000
  H   H2595     1.0  0.68491  0.12495  0.21957  1.0000
  H   H2596     1.0  0.74781  0.38846  0.19411  1.0000
  H   H2597     1.0  0.68098  0.08526  0.06931  1.0000
  Fe  Fe227     1.0  0.70821  0.00854  0.21084  1.0000
  H   H2598     1.0  0.90181  0.23582  0.01189  1.0000
  H   H2599     1.0  0.94411  0.22569  0.01285  1.0000
  H   H2600     1.0  0.77826  0.39150  0.02693  1.0000
  C   C1525     1.0  0.76536  0.45230  0.20806  1.0000
  H   H2601     1.0  0.82662  0.36175  0.99938  1.0000
  H   H2602     1.0  0.80720  0.24574  0.22204  1.0000
  H   H2603     1.0  0.69794  0.01273  0.10159  1.0000
  H   H2604     1.0  0.72694  0.09438  0.20407  1.0000
  H   H2605     1.0  0.68630  0.09616  0.21599  1.0000
  C   C1526     1.0  0.77841  0.40003  0.98812  1.0000
  C   C1527     1.0  0.78248  0.39626  0.01591  1.0000
  H   H2606     1.0  0.80265  0.45682  0.20426  1.0000
  H   H2607     1.0  0.94069  0.16831  0.06695  1.0000
  H   H2608     1.0  0.98695  0.42175  0.03217  1.0000
  C   C1528     1.0  0.77416  0.10430  0.19810  1.0000
  C   C1529     1.0  0.98271  0.47078  0.01049  1.0000
  C   C1530     1.0  0.77549  0.46967  0.16729  1.0000
  H   H2609     1.0  0.66332  0.09943  0.14994  1.0000
  S   S451      1.0  0.86185  0.23669  0.98465  1.0000
  H   H2610     1.0  0.76058  0.46544  0.21497  1.0000
  H   H2611     1.0  0.95027  0.25340  0.00327  1.0000
  H   H2612     1.0  0.69426  0.19607  0.03432  1.0000
  C   C1531     1.0  0.79006  0.23890  0.22371  1.0000
  C   C1532     1.0  0.69317  0.11320  0.21214  1.0000
  C   C1533     1.0  0.65679  0.11474  0.09439  1.0000
  H   H2613     1.0  0.77203  0.07772  0.98602  1.0000
  H   H2614     1.0  0.75922  0.40290  0.99281  1.0000
  H   H2615     1.0  0.68688  0.09831  0.13614  1.0000
  C   C1534     1.0  0.66613  0.45993  0.08081  1.0000
  H   H2616     1.0  0.97580  0.37360  0.04332  1.0000
  H   H2617     1.0  0.92978  0.18517  0.08012  1.0000
  H   H2618     1.0  0.81668  0.32928  0.99276  1.0000
  H   H2619     1.0  0.76494  0.35632  0.99279  1.0000
  H   H2620     1.0  0.66390  0.00446  0.17178  1.0000
  H   H2621     1.0  0.66783  0.05365  0.19155  1.0000
  C   C1535     1.0  0.71336  0.46730  0.21802  1.0000
  C   C1536     1.0  0.65965  0.06510  0.17122  1.0000
  H   H2622     1.0  0.68081  0.04103  0.09659  1.0000
  C   C1537     1.0  0.66599  0.34732  0.12773  1.0000
  C   C1538     1.0  0.83171  0.37431  0.97819  1.0000
  H   H2623     1.0  0.97906  0.13076  0.00833  1.0000
  H   H2624     1.0  0.98598  0.22516  0.00574  1.0000
  C   C1539     1.0  0.66450  0.34036  0.14298  1.0000
  H   H2625     1.0  0.97591  0.29985  0.03740  1.0000
  H   H2626     1.0  0.78709  0.23553  0.21406  1.0000
  H   H2627     1.0  0.84975  0.36378  0.97895  1.0000
  H   H2628     1.0  0.68007  0.02616  0.14868  1.0000
  C   C1540     1.0  0.66656  0.03568  0.15587  1.0000
  C   C1541     1.0  0.98043  0.29884  0.02660  1.0000
  H   H2629     1.0  0.66197  0.32165  0.14671  1.0000
  H   H2630     1.0  0.94732  0.18654  0.97902  1.0000
  H   H2631     1.0  0.72537  0.09949  0.22043  1.0000
  H   H2632     1.0  0.97210  0.45871  0.01783  1.0000
  H   H2633     1.0  0.66575  0.08191  0.17159  1.0000
  H   H2634     1.0  0.79594  0.43421  0.21812  1.0000
  C   C1542     1.0  0.65778  0.29926  0.12449  1.0000
  H   H2635     1.0  0.98562  0.46510  0.00064  1.0000
  C   C1543     1.0  0.71746  0.46894  0.03456  1.0000
  H   H2636     1.0  0.71247  0.45705  0.02891  1.0000
  H   H2637     1.0  0.66340  0.29878  0.11369  1.0000
  S   S452      1.0  0.66338  0.16122  0.08330  1.0000
  H   H2638     1.0  0.66111  0.11745  0.05433  1.0000
  H   H2639     1.0  0.74333  0.48139  0.18029  1.0000
  H   H2640     1.0  0.65784  0.09437  0.02414  1.0000
  C   C1544     1.0  0.74938  0.42270  0.22599  1.0000
  H   H2641     1.0  0.72831  0.48055  0.00832  1.0000
  C   C1545     1.0  0.80196  0.22831  0.25283  1.0000
  H   H2642     1.0  0.84651  0.47924  0.23516  1.0000
  S   S453      1.0  0.69400  0.46017  0.45398  1.0000
  S   S454      1.0  0.91968  0.45332  0.36008  1.0000
  H   H2643     1.0  0.72888  0.40417  0.24341  1.0000
  C   C1546     1.0  0.68397  0.17921  0.43883  1.0000
  C   C1547     1.0  0.67903  0.45336  0.41803  1.0000
  C   C1548     1.0  0.68974  0.39290  0.37793  1.0000
  Fe  Fe228     1.0  0.75045  0.00569  0.44911  1.0000
  S   S455      1.0  0.76443  0.03723  0.45189  1.0000
  C   C1549     1.0  0.98877  0.03051  0.34739  1.0000
  H   H2644     1.0  0.73738  0.38628  0.37637  1.0000
  Fe  Fe229     1.0  0.72573  0.05476  0.45450  1.0000
  S   S456      1.0  0.71698  0.09033  0.44094  1.0000
  C   C1550     1.0  0.79871  0.25569  0.25103  1.0000
  S   S457      1.0  0.71208  0.02368  0.45076  1.0000
  N   N112      1.0  0.66650  0.25283  0.34479  1.0000
  Fe  Fe230     1.0  0.86662  0.00477  0.36729  1.0000
  S   S458      1.0  0.89454  0.02575  0.35477  1.0000
  S   S459      1.0  0.84548  0.00923  0.35080  1.0000
  Fe  Fe231     1.0  0.87467  0.02768  0.33799  1.0000
  S   S460      1.0  0.86777  0.06069  0.32257  1.0000
  H   H2645     1.0  0.82082  0.44323  0.46108  1.0000
  C   C1551     1.0  0.65734  0.17966  0.32631  1.0000
  H   H2646     1.0  0.80932  0.20593  0.23181  1.0000
  C   C1552     1.0  0.68615  0.25843  0.33314  1.0000
  H   H2647     1.0  0.68321  0.27771  0.32870  1.0000
  S   S461      1.0  0.71066  0.06234  0.24409  1.0000
  Fe  Fe232     1.0  0.75224  0.14961  0.31146  1.0000
  S   S462      1.0  0.72360  0.14121  0.30225  1.0000
  S   S463      1.0  0.76419  0.12240  0.32862  1.0000
  Fe  Fe233     1.0  0.75369  0.19825  0.29364  1.0000
  S   S464      1.0  0.72577  0.19295  0.28277  1.0000
  S   S465      1.0  0.76942  0.23253  0.28631  1.0000
  Fe  Fe234     1.0  0.70713  0.17935  0.30324  1.0000
  C   C1553     1.0  0.71922  0.43323  0.34746  1.0000
  Fe  Fe235     1.0  0.74491  0.15516  0.28269  1.0000
  S   S466      1.0  0.75779  0.13640  0.26444  1.0000
  S   S467      1.0  0.73392  0.18669  0.31405  1.0000
  S   S468      1.0  0.77466  0.16153  0.29195  1.0000
  Fe  Fe236     1.0  0.72707  0.40514  0.31273  1.0000
  S   S469      1.0  0.74576  0.37872  0.32754  1.0000
  S   S470      1.0  0.69008  0.42372  0.31957  1.0000
  Fe  Fe237     1.0  0.77028  0.40176  0.29130  1.0000
  S   S471      1.0  0.79271  0.37479  0.30468  1.0000
  S   S472      1.0  0.78709  0.41473  0.27009  1.0000
  Fe  Fe238     1.0  0.75991  0.35717  0.31111  1.0000
  S   S473      1.0  0.75839  0.31766  0.31879  1.0000
  Fe  Fe239     1.0  0.77667  0.39840  0.32008  1.0000
  S   S474      1.0  0.79084  0.40687  0.33723  1.0000
  S   S475      1.0  0.73860  0.38249  0.29667  1.0000
  S   S476      1.0  0.75690  0.42648  0.30622  1.0000
  H   H2648     1.0  0.80239  0.22205  0.26366  1.0000
  C   C1554     1.0  0.67461  0.40550  0.33262  1.0000
  H   H2649     1.0  0.78297  0.26276  0.25802  1.0000
  H   H2650     1.0  0.68392  0.46063  0.40762  1.0000
  H   H2651     1.0  0.68924  0.19536  0.36006  1.0000
  H   H2652     1.0  0.71381  0.35903  0.38298  1.0000
  C   C1555     1.0  0.68197  0.38084  0.33468  1.0000
  H   H2653     1.0  0.69424  0.09105  0.38995  1.0000
  H   H2654     1.0  0.77590  0.19394  0.26697  1.0000
  H   H2655     1.0  0.86335  0.43632  0.31136  1.0000
  C   C1556     1.0  0.77222  0.43961  0.26042  1.0000
  C   C1557     1.0  0.78387  0.44822  0.24770  1.0000
  C   C1558     1.0  0.81531  0.99090  0.39780  1.0000
  C   C1559     1.0  0.66180  0.13091  0.42383  1.0000
  C   C1560     1.0  0.72139  0.14480  0.22751  1.0000
  C   C1561     1.0  0.74932  0.45101  0.26507  1.0000
  H   H2656     1.0  0.80161  0.43951  0.24406  1.0000
  H   H2657     1.0  0.79975  0.46128  0.27682  1.0000
  H   H2658     1.0  0.72704  0.44480  0.35201  1.0000
  H   H2659     1.0  0.74013  0.44448  0.27488  1.0000
  H   H2660     1.0  0.76207  0.06421  0.27278  1.0000
  C   C1562     1.0  0.70014  0.36674  0.37654  1.0000
  H   H2661     1.0  0.70329  0.44931  0.37056  1.0000
  C   C1563     1.0  0.80454  0.00927  0.42172  1.0000
  C   C1564     1.0  0.81247  0.47396  0.27250  1.0000
  H   H2662     1.0  0.68642  0.15020  0.32700  1.0000
  H   H2663     1.0  0.70630  0.09921  0.40254  1.0000
  S   S477      1.0  0.72432  0.00087  0.22967  1.0000
  H   H2664     1.0  0.71541  0.02997  0.40287  1.0000
  C   C1565     1.0  0.76504  0.25636  0.29541  1.0000
  C   C1566     1.0  0.77097  0.27854  0.28873  1.0000
  C   C1567     1.0  0.76844  0.29769  0.29565  1.0000
  C   C1568     1.0  0.76031  0.29473  0.30940  1.0000
  C   C1569     1.0  0.75439  0.27255  0.31609  1.0000
  C   C1570     1.0  0.75659  0.25351  0.30914  1.0000
  H   H2665     1.0  0.77765  0.28097  0.27816  1.0000
  H   H2666     1.0  0.77317  0.31460  0.29039  1.0000
  H   H2667     1.0  0.74824  0.27002  0.32673  1.0000
  H   H2668     1.0  0.75223  0.23649  0.31444  1.0000
  C   C1571     1.0  0.72468  0.08198  0.24997  1.0000
  C   C1572     1.0  0.71192  0.09389  0.26042  1.0000
  C   C1573     1.0  0.72189  0.11025  0.26513  1.0000
  C   C1574     1.0  0.74477  0.11504  0.25938  1.0000
  C   C1575     1.0  0.75770  0.10290  0.24904  1.0000
  C   C1576     1.0  0.74778  0.08642  0.24439  1.0000
  H   H2669     1.0  0.69406  0.09059  0.26484  1.0000
  H   H2670     1.0  0.71167  0.11939  0.27308  1.0000
  H   H2671     1.0  0.77548  0.10632  0.24457  1.0000
  C   C1577     1.0  0.80741  0.17595  0.25598  1.0000
  C   C1578     1.0  0.83945  0.07871  0.32478  1.0000
  C   C1579     1.0  0.82171  0.07249  0.33550  1.0000
  C   C1580     1.0  0.79884  0.08629  0.33665  1.0000
  C   C1581     1.0  0.79349  0.10642  0.32710  1.0000
  C   C1582     1.0  0.81132  0.11300  0.31649  1.0000
  C   C1583     1.0  0.83427  0.09919  0.31536  1.0000
  H   H2672     1.0  0.82557  0.05710  0.34294  1.0000
  H   H2673     1.0  0.78519  0.08125  0.34494  1.0000
  H   H2674     1.0  0.80748  0.12872  0.30921  1.0000
  H   H2675     1.0  0.84801  0.10424  0.30713  1.0000
  C   C1584     1.0  0.68767  0.10307  0.43799  1.0000
  C   C1585     1.0  0.68471  0.11958  0.42629  1.0000
  C   C1586     1.0  0.78321  0.19292  0.25631  1.0000
  H   H2676     1.0  0.80444  0.15867  0.26240  1.0000
  Fe  Fe240     1.0  0.75791  0.02276  0.47393  1.0000
  H   H2677     1.0  0.66179  0.42762  0.45530  1.0000
  H   H2678     1.0  0.70027  0.12384  0.41918  1.0000
  C   C1587     1.0  0.82377  0.01562  0.41184  1.0000
  H   H2679     1.0  0.80500  0.47284  0.46033  1.0000
  C   C1588     1.0  0.66002  0.14689  0.34485  1.0000
  H   H2680     1.0  0.69101  0.28998  0.34742  1.0000
  H   H2681     1.0  0.66867  0.20164  0.34875  1.0000
  C   C1589     1.0  0.79058  0.99365  0.41971  1.0000
  C   C1590     1.0  0.66665  0.43493  0.44489  1.0000
  C   C1591     1.0  0.79071  0.21551  0.23382  1.0000
  C   C1592     1.0  0.85832  0.44048  0.33193  1.0000
  C   C1593     1.0  0.85197  0.43388  0.32099  1.0000
  C   C1594     1.0  0.83111  0.42400  0.32240  1.0000
  C   C1595     1.0  0.81652  0.42042  0.33485  1.0000
  C   C1596     1.0  0.82274  0.42715  0.34580  1.0000
  C   C1597     1.0  0.84351  0.43723  0.34435  1.0000
  H   H2682     1.0  0.90717  0.04298  0.40873  1.0000
  H   H2683     1.0  0.82652  0.41887  0.31391  1.0000
  H   H2684     1.0  0.81160  0.42433  0.35547  1.0000
  H   H2685     1.0  0.84835  0.44206  0.35286  1.0000
  C   C1598     1.0  0.67630  0.28546  0.35563  1.0000
  C   C1599     1.0  0.68259  0.45147  0.44124  1.0000
  H   H2686     1.0  0.67144  0.22836  0.42655  1.0000
  C   C1600     1.0  0.66969  0.15827  0.33224  1.0000
  H   H2687     1.0  0.98511  0.03956  0.37526  1.0000
  N   N113      1.0  0.70587  0.41104  0.37152  1.0000
  H   H2688     1.0  0.98303  0.00920  0.37616  1.0000
  H   H2689     1.0  0.74724  0.43609  0.23262  1.0000
  H   H2690     1.0  0.68556  0.35591  0.37996  1.0000
  H   H2691     1.0  0.76967  0.06282  0.42394  1.0000
  N   N114      1.0  0.78369  0.21767  0.24835  1.0000
  H   H2692     1.0  0.66444  0.21791  0.45002  1.0000
  H   H2693     1.0  0.81448  0.26078  0.25365  1.0000
  H   H2694     1.0  0.68392  0.39364  0.38877  1.0000
  C   C1601     1.0  0.77289  0.46818  0.23973  1.0000
  H   H2695     1.0  0.79170  0.06637  0.40892  1.0000
  H   H2696     1.0  0.66228  0.46236  0.37070  1.0000
  H   H2697     1.0  0.67304  0.39688  0.37361  1.0000
  H   H2698     1.0  0.80064  0.01634  0.43091  1.0000
  C   C1602     1.0  0.67074  0.36649  0.34570  1.0000
  H   H2699     1.0  0.73596  0.20518  0.25200  1.0000
  H   H2700     1.0  0.95329  0.02660  0.34550  1.0000
  H   H2701     1.0  0.82055  0.18269  0.26007  1.0000
  H   H2702     1.0  0.67235  0.19852  0.41179  1.0000
  H   H2703     1.0  0.69084  0.22588  0.32393  1.0000
  H   H2704     1.0  0.66946  0.08569  0.45639  1.0000
  H   H2705     1.0  0.75548  0.41929  0.36249  1.0000
  H   H2706     1.0  0.81936  0.98374  0.38862  1.0000
  H   H2707     1.0  0.66907  0.44109  0.35961  1.0000
  H   H2708     1.0  0.77117  0.18355  0.25291  1.0000
  H   H2709     1.0  0.73958  0.14160  0.23003  1.0000
  H   H2710     1.0  0.82813  0.46241  0.47049  1.0000
  H   H2711     1.0  0.82032  0.22208  0.24775  1.0000
  H   H2712     1.0  0.67646  0.34741  0.34720  1.0000
  C   C1603     1.0  0.68872  0.46066  0.42771  1.0000
  C   C1604     1.0  0.90859  0.02455  0.39178  1.0000
  S   S478      1.0  0.88502  0.45233  0.32964  1.0000
  C   C1605     1.0  0.94933  0.03202  0.38337  1.0000
  H   H2713     1.0  0.70100  0.47329  0.42470  1.0000
  H   H2714     1.0  0.97247  0.98699  0.41274  1.0000
  H   H2715     1.0  0.73919  0.06873  0.28714  1.0000
  H   H2716     1.0  0.70737  0.36456  0.36606  1.0000
  Fe  Fe241     1.0  0.72389  0.04061  0.22711  1.0000
  H   H2717     1.0  0.74181  0.22416  0.23592  1.0000
  C   C1606     1.0  0.66829  0.44321  0.37004  1.0000
  H   H2718     1.0  0.77298  0.06582  0.37452  1.0000
  C   C1607     1.0  0.73817  0.47083  0.25696  1.0000
  H   H2719     1.0  0.74846  0.03780  0.42071  1.0000
  H   H2720     1.0  0.78232  0.47461  0.23010  1.0000
  C   C1608     1.0  0.77470  0.07467  0.41444  1.0000
  S   S479      1.0  0.75897  0.47873  0.45094  1.0000
  H   H2721     1.0  0.79839  0.04514  0.37907  1.0000
  H   H2722     1.0  0.68696  0.17624  0.44931  1.0000
  H   H2723     1.0  0.73946  0.38702  0.23010  1.0000
  C   C1609     1.0  0.72792  0.40432  0.37795  1.0000
  H   H2724     1.0  0.81599  0.48180  0.24164  1.0000
  H   H2725     1.0  0.66255  0.23157  0.36454  1.0000
  C   C1610     1.0  0.67597  0.23316  0.35523  1.0000
  H   H2726     1.0  0.82699  0.46475  0.26570  1.0000
  H   H2727     1.0  0.85846  0.45673  0.45026  1.0000
  S   S480      1.0  0.87694  0.46328  0.39439  1.0000
  H   H2728     1.0  0.72142  0.05719  0.42043  1.0000
  H   H2729     1.0  0.73287  0.42793  0.33894  1.0000
  Fe  Fe242     1.0  0.91432  0.99084  0.34938  1.0000
  H   H2730     1.0  0.73864  0.00961  0.41039  1.0000
  H   H2731     1.0  0.66755  0.30233  0.35928  1.0000
  H   H2732     1.0  0.69618  0.37279  0.32769  1.0000
  Fe  Fe243     1.0  0.89371  0.47689  0.37327  1.0000
  H   H2733     1.0  0.71074  0.02062  0.42026  1.0000
  H   H2734     1.0  0.76162  0.41412  0.37900  1.0000
  H   H2735     1.0  0.83632  0.46550  0.43984  1.0000
  H   H2736     1.0  0.98501  0.04977  0.34560  1.0000
  N   N115      1.0  0.81293  0.31939  0.34597  1.0000
  C   C1611     1.0  0.79563  0.30345  0.34534  1.0000
  C   C1612     1.0  0.80270  0.33212  0.35769  1.0000
  C   C1613     1.0  0.83655  0.30384  0.34804  1.0000
  C   C1614     1.0  0.81554  0.33646  0.33297  1.0000
  C   C1615     1.0  0.80433  0.28571  0.33541  1.0000
  C   C1616     1.0  0.77775  0.34740  0.35739  1.0000
  C   C1617     1.0  0.85325  0.31359  0.35473  1.0000
  C   C1618     1.0  0.83193  0.35507  0.33143  1.0000
  H   H2737     1.0  0.79055  0.29272  0.35533  1.0000
  H   H2738     1.0  0.77869  0.31419  0.34252  1.0000
  H   H2739     1.0  0.81447  0.34415  0.35890  1.0000
  H   H2740     1.0  0.80150  0.31897  0.36712  1.0000
  H   H2741     1.0  0.83360  0.28653  0.35452  1.0000
  H   H2742     1.0  0.84694  0.29924  0.33838  1.0000
  H   H2743     1.0  0.82300  0.32662  0.32453  1.0000
  H   H2744     1.0  0.79790  0.34581  0.33049  1.0000
  H   H2745     1.0  0.80785  0.29484  0.32494  1.0000
  H   H2746     1.0  0.82026  0.27268  0.33782  1.0000
  H   H2747     1.0  0.78991  0.27531  0.33594  1.0000
  H   H2748     1.0  0.77729  0.36092  0.34826  1.0000
  H   H2749     1.0  0.76364  0.33640  0.35849  1.0000
  H   H2750     1.0  0.77315  0.35726  0.36592  1.0000
  H   H2751     1.0  0.84594  0.31406  0.36542  1.0000
  H   H2752     1.0  0.85709  0.33140  0.34974  1.0000
  H   H2753     1.0  0.87066  0.30138  0.35437  1.0000
  H   H2754     1.0  0.85090  0.34753  0.32824  1.0000
  H   H2755     1.0  0.83009  0.36309  0.34043  1.0000
  H   H2756     1.0  0.82670  0.37040  0.32371  1.0000
  H   H2757     1.0  0.75795  0.07723  0.23646  1.0000
  H   H2758     1.0  0.69330  0.16340  0.43428  1.0000
  C   C1619     1.0  0.75898  0.23177  0.25144  1.0000
  S   S481      1.0  0.89706  0.99447  0.33136  1.0000
  H   H2759     1.0  0.94442  0.03937  0.37331  1.0000
  H   H2760     1.0  0.94289  0.01809  0.40908  1.0000
  H   H2761     1.0  0.68942  0.43460  0.38569  1.0000
  C   C1620     1.0  0.74994  0.47956  0.24425  1.0000
  H   H2762     1.0  0.69278  0.19420  0.43310  1.0000
  H   H2763     1.0  0.69664  0.40675  0.35317  1.0000
  C   C1621     1.0  0.78316  0.05839  0.38280  1.0000
  H   H2764     1.0  0.72683  0.39542  0.35470  1.0000
  C   C1622     1.0  0.70499  0.08392  0.39804  1.0000
  C   C1623     1.0  0.84982  0.48034  0.40065  1.0000
  H   H2765     1.0  0.90307  0.03022  0.38179  1.0000
  C   C1624     1.0  0.68930  0.24543  0.32113  1.0000
  H   H2766     1.0  0.95673  0.98565  0.37974  1.0000
  C   C1625     1.0  0.73196  0.40512  0.23242  1.0000
  H   H2767     1.0  0.79721  0.26456  0.24072  1.0000
  H   H2768     1.0  0.90737  0.06245  0.39262  1.0000
  C   C1626     1.0  0.65705  0.42754  0.43520  1.0000
  H   H2769     1.0  0.72713  0.05789  0.38668  1.0000
  C   C1627     1.0  0.82923  0.00653  0.39984  1.0000
  C   C1628     1.0  0.94030  0.00342  0.40434  1.0000
  H   H2770     1.0  0.73745  0.08521  0.38405  1.0000
  H   H2771     1.0  0.74743  0.04038  0.28199  1.0000
  C   C1629     1.0  0.83437  0.47006  0.41155  1.0000
  C   C1630     1.0  0.72980  0.07162  0.39207  1.0000
  H   H2772     1.0  0.83445  0.02769  0.41352  1.0000
  H   H2773     1.0  0.75810  0.25085  0.24702  1.0000
  H   H2774     1.0  0.72176  0.23535  0.24953  1.0000
  H   H2775     1.0  0.94577  0.04732  0.38879  1.0000
  H   H2776     1.0  0.70383  0.44368  0.34284  1.0000
  C   C1631     1.0  0.66319  0.43670  0.42167  1.0000
  C   C1632     1.0  0.72462  0.02546  0.41160  1.0000
  H   H2777     1.0  0.81507  0.17197  0.24586  1.0000
  C   C1633     1.0  0.90114  0.04634  0.39896  1.0000
  H   H2778     1.0  0.70586  0.24918  0.31416  1.0000
  C   C1634     1.0  0.76783  0.04572  0.39506  1.0000
  C   C1635     1.0  0.93789  0.99418  0.38200  1.0000
  H   H2779     1.0  0.77984  0.03641  0.40220  1.0000
  S   S482      1.0  0.85341  0.01556  0.38773  1.0000
  H   H2780     1.0  0.76189  0.03117  0.39168  1.0000
  H   H2781     1.0  0.72290  0.40349  0.38896  1.0000
  H   H2782     1.0  0.83889  0.45147  0.41576  1.0000
  H   H2783     1.0  0.69489  0.07144  0.40552  1.0000
  H   H2784     1.0  0.79100  0.07255  0.38526  1.0000
  H   H2785     1.0  0.69190  0.23734  0.35815  1.0000
  H   H2786     1.0  0.74021  0.43924  0.37419  1.0000
  H   H2787     1.0  0.88587  0.46442  0.43228  1.0000
  N   N116      1.0  0.74682  0.06129  0.40179  1.0000
  H   H2788     1.0  0.78005  0.20394  0.23096  1.0000
  H   H2789     1.0  0.67435  0.25209  0.31543  1.0000
  S   S483      1.0  0.66860  0.19368  0.31030  1.0000
  H   H2790     1.0  0.76019  0.09493  0.39726  1.0000
  C   C1636     1.0  0.75448  0.08157  0.40603  1.0000
  C   C1637     1.0  0.73525  0.04627  0.41403  1.0000
  C   C1638     1.0  0.73879  0.22331  0.24687  1.0000
  C   C1639     1.0  0.74708  0.42049  0.37297  1.0000
  H   H2791     1.0  0.69903  0.20757  0.34317  1.0000
  H   H2792     1.0  0.71349  0.46109  0.22882  1.0000
  C   C1640     1.0  0.66744  0.09821  0.44730  1.0000
  C   C1641     1.0  0.69268  0.43487  0.37472  1.0000
  H   H2793     1.0  0.77820  0.09105  0.41715  1.0000
  H   H2794     1.0  0.66477  0.22856  0.40379  1.0000
  C   C1642     1.0  0.96225  0.98344  0.40558  1.0000
  H   H2795     1.0  0.75387  0.23176  0.26236  1.0000
  H   H2796     1.0  0.89695  0.01153  0.39743  1.0000
  C   C1643     1.0  0.97076  0.01741  0.34737  1.0000
  H   H2797     1.0  0.70378  0.25518  0.33648  1.0000
  C   C1644     1.0  0.97551  0.99253  0.34962  1.0000
  H   H2798     1.0  0.73915  0.09150  0.41210  1.0000
  N   N117      1.0  0.78470  0.06767  0.29492  1.0000
  C   C1645     1.0  0.79789  0.07946  0.28204  1.0000
  C   C1646     1.0  0.77387  0.04812  0.29203  1.0000
  C   C1647     1.0  0.80125  0.05688  0.30485  1.0000
  C   C1648     1.0  0.76573  0.08624  0.30080  1.0000
  C   C1649     1.0  0.81258  0.09810  0.28330  1.0000
  C   C1650     1.0  0.75459  0.05619  0.28299  1.0000
  C   C1651     1.0  0.82389  0.03988  0.29991  1.0000
  C   C1652     1.0  0.74836  0.07686  0.31321  1.0000
  H   H2799     1.0  0.81004  0.06601  0.27650  1.0000
  H   H2800     1.0  0.78519  0.08899  0.27524  1.0000
  H   H2801     1.0  0.76601  0.03738  0.30143  1.0000
  H   H2802     1.0  0.78787  0.03529  0.28698  1.0000
  H   H2803     1.0  0.80705  0.07095  0.30862  1.0000
  H   H2804     1.0  0.79187  0.04647  0.31386  1.0000
  H   H2805     1.0  0.77395  0.09954  0.30390  1.0000
  H   H2806     1.0  0.75492  0.09672  0.29321  1.0000
  H   H2807     1.0  0.82683  0.09044  0.28935  1.0000
  H   H2808     1.0  0.82146  0.10532  0.27320  1.0000
  H   H2809     1.0  0.80109  0.11341  0.28743  1.0000
  H   H2810     1.0  0.98324  0.02087  0.39111  1.0000
  C   C1653     1.0  0.79613  0.98443  0.40774  1.0000
  Fe  Fe244     1.0  0.89549  0.46947  0.34498  1.0000
  H   H2811     1.0  0.83557  0.04871  0.29134  1.0000
  H   H2812     1.0  0.81955  0.02375  0.29741  1.0000
  H   H2813     1.0  0.83462  0.03379  0.30809  1.0000
  H   H2814     1.0  0.73719  0.06528  0.31093  1.0000
  H   H2815     1.0  0.73597  0.09220  0.31691  1.0000
  H   H2816     1.0  0.75775  0.06744  0.32155  1.0000
  H   H2817     1.0  0.92482  0.99595  0.41087  1.0000
  H   H2818     1.0  0.71219  0.12959  0.23253  1.0000
  C   C1654     1.0  0.71213  0.41043  0.35674  1.0000
  H   H2819     1.0  0.68368  0.27345  0.36409  1.0000
  N   N118      1.0  0.93457  0.01314  0.39053  1.0000
  S   S484      1.0  0.76578  0.98577  0.43172  1.0000
  H   H2820     1.0  0.93319  0.00232  0.37201  1.0000
  H   H2821     1.0  0.88130  0.05052  0.40091  1.0000
  H   H2822     1.0  0.71139  0.16058  0.23187  1.0000
  H   H2823     1.0  0.71398  0.41081  0.22970  1.0000
  C   C1655     1.0  0.68354  0.20820  0.35136  1.0000
  H   H2824     1.0  0.98274  0.47467  0.37232  1.0000
  H   H2825     1.0  0.65689  0.48158  0.47425  1.0000
  C   C1656     1.0  0.97664  0.02454  0.38148  1.0000
  S   S485      1.0  0.74636  0.98962  0.47090  1.0000
  C   C1657     1.0  0.84173  0.46938  0.44878  1.0000
  C   C1658     1.0  0.82283  0.46192  0.46089  1.0000
  H   H2826     1.0  0.66929  0.12997  0.34922  1.0000
  Fe  Fe245     1.0  0.70943  0.01077  0.47283  1.0000
  H   H2827     1.0  0.81953  0.47742  0.28095  1.0000
  H   H2828     1.0  0.80123  0.47561  0.42535  1.0000
  H   H2829     1.0  0.65987  0.14356  0.41479  1.0000
  H   H2830     1.0  0.79668  0.47505  0.37432  1.0000
  C   C1659     1.0  0.65581  0.41575  0.34157  1.0000
  C   C1660     1.0  0.65739  0.27492  0.35109  1.0000
  H   H2831     1.0  0.72039  0.47945  0.26059  1.0000
  C   C1661     1.0  0.65705  0.18273  0.43825  1.0000
  C   C1662     1.0  0.65844  0.21463  0.41202  1.0000
  H   H2832     1.0  0.77512  0.25300  0.22651  1.0000
  H   H2833     1.0  0.76742  0.41234  0.22701  1.0000
  Fe  Fe246     1.0  0.70752  0.04850  0.70366  1.0000
  S   S486      1.0  0.73931  0.05158  0.71209  1.0000
  H   H2834     1.0  0.75023  0.99163  0.55296  1.0000
  Fe  Fe247     1.0  0.73243  0.00332  0.69247  1.0000
  S   S487      1.0  0.76581  0.00291  0.70058  1.0000
  Fe  Fe248     1.0  0.74165  0.01201  0.71928  1.0000
  Fe  Fe249     1.0  0.76101  0.04237  0.69275  1.0000
  S   S488      1.0  0.79566  0.05577  0.68235  1.0000
  S   S489      1.0  0.70850  0.00955  0.71195  1.0000
  S   S490      1.0  0.72900  0.04223  0.68355  1.0000
  H   H2835     1.0  0.74833  0.16029  0.69530  1.0000
  C   C1663     1.0  0.66615  0.99023  0.69586  1.0000
  C   C1664     1.0  0.75073  0.01048  0.55347  1.0000
  H   H2836     1.0  0.77974  0.42140  0.67834  1.0000
  Fe  Fe250     1.0  0.85800  0.16659  0.64682  1.0000
  S   S491      1.0  0.89076  0.13858  0.64522  1.0000
  S   S492      1.0  0.82045  0.15889  0.65602  1.0000
  Fe  Fe251     1.0  0.88502  0.20670  0.63109  1.0000
  S   S493      1.0  0.91929  0.18115  0.62777  1.0000
  S   S494      1.0  0.88893  0.24504  0.62174  1.0000
  Fe  Fe252     1.0  0.89784  0.15615  0.62385  1.0000
  S   S495      1.0  0.91504  0.13246  0.60856  1.0000
  Fe  Fe253     1.0  0.90975  0.16590  0.64923  1.0000
  S   S496      1.0  0.93942  0.15624  0.66145  1.0000
  S   S497      1.0  0.86406  0.18291  0.62500  1.0000
  S   S498      1.0  0.87640  0.19265  0.65299  1.0000
  Fe  Fe254     1.0  0.87547  0.41678  0.65076  1.0000
  S   S499      1.0  0.87065  0.39575  0.63575  1.0000
  S   S500      1.0  0.84685  0.44813  0.65568  1.0000
  Fe  Fe255     1.0  0.92609  0.39029  0.65250  1.0000
  S   S501      1.0  0.92547  0.36720  0.63767  1.0000
  S   S502      1.0  0.95706  0.38362  0.66376  1.0000
  Fe  Fe256     1.0  0.90795  0.40104  0.62618  1.0000
  S   S503      1.0  0.91970  0.41112  0.60404  1.0000
  Fe  Fe257     1.0  0.88840  0.36364  0.64841  1.0000
  S   S504      1.0  0.87422  0.32859  0.65539  1.0000
  S   S505      1.0  0.91173  0.42433  0.64009  1.0000
  S   S506      1.0  0.89008  0.38432  0.66427  1.0000
  H   H2837     1.0  0.91203  0.09935  0.53175  1.0000
  Fe  Fe258     1.0  0.89199  0.03729  0.55190  1.0000
  S   S507      1.0  0.87157  0.07194  0.54281  1.0000
  S   S508      1.0  0.93156  0.02706  0.54394  1.0000
  Fe  Fe259     1.0  0.84937  0.02507  0.57260  1.0000
  S   S509      1.0  0.82652  0.05890  0.56523  1.0000
  H   H2838     1.0  0.97075  0.11821  0.62249  1.0000
  Fe  Fe260     1.0  0.84163  0.05121  0.54463  1.0000
  S   S510      1.0  0.81208  0.06115  0.53185  1.0000
  Fe  Fe261     1.0  0.85788  0.07646  0.56407  1.0000
  S   S511      1.0  0.85043  0.11166  0.57138  1.0000
  S   S512      1.0  0.86300  0.01586  0.55210  1.0000
  S   S513      1.0  0.87988  0.04325  0.57306  1.0000
  C   C1665     1.0  0.95308  0.03936  0.54911  1.0000
  N   N119      1.0  0.76565  0.01183  0.56352  1.0000
  H   H2839     1.0  0.71309  0.00007  0.52958  1.0000
  C   C1666     1.0  0.94832  0.04814  0.56112  1.0000
  C   C1667     1.0  0.70098  0.43354  0.71002  1.0000
  H   H2840     1.0  0.72049  0.00697  0.65890  1.0000
  H   H2841     1.0  0.93110  0.04768  0.56742  1.0000
  C   C1668     1.0  0.79339  0.02717  0.49956  1.0000
  C   C1669     1.0  0.81252  0.01589  0.50628  1.0000
  C   C1670     1.0  0.81880  0.02616  0.51602  1.0000
  C   C1671     1.0  0.80594  0.04790  0.51918  1.0000
  C   C1672     1.0  0.78673  0.05912  0.51252  1.0000
  C   C1673     1.0  0.78045  0.04883  0.50278  1.0000
  C   C1674     1.0  0.92293  0.42622  0.68984  1.0000
  H   H2842     1.0  0.83353  0.01726  0.52108  1.0000
  H   H2843     1.0  0.77663  0.07591  0.51491  1.0000
  H   H2844     1.0  0.76573  0.05773  0.49771  1.0000
  C   C1675     1.0  0.67780  0.05655  0.66376  1.0000
  H   H2845     1.0  0.96165  0.42953  0.64653  1.0000
  C   C1676     1.0  0.89609  0.12581  0.59907  1.0000
  C   C1677     1.0  0.87494  0.14123  0.59687  1.0000
  C   C1678     1.0  0.86069  0.13629  0.58865  1.0000
  C   C1679     1.0  0.86741  0.11585  0.58268  1.0000
  C   C1680     1.0  0.88823  0.10006  0.58516  1.0000
  C   C1681     1.0  0.90266  0.10517  0.59325  1.0000
  H   H2846     1.0  0.86985  0.15725  0.60125  1.0000
  H   H2847     1.0  0.84466  0.14861  0.58670  1.0000
  H   H2848     1.0  0.89366  0.08439  0.58050  1.0000
  H   H2849     1.0  0.91905  0.09322  0.59491  1.0000
  C   C1682     1.0  0.88512  0.26785  0.63134  1.0000
  C   C1683     1.0  0.86988  0.26722  0.64363  1.0000
  C   C1684     1.0  0.86637  0.28620  0.65073  1.0000
  C   C1685     1.0  0.87838  0.30574  0.64576  1.0000
  C   C1686     1.0  0.89395  0.30620  0.63358  1.0000
  C   C1687     1.0  0.89702  0.28749  0.62631  1.0000
  H   H2850     1.0  0.86044  0.25232  0.64753  1.0000
  H   H2851     1.0  0.85428  0.28569  0.66015  1.0000
  H   H2852     1.0  0.90371  0.32088  0.62983  1.0000
  H   H2853     1.0  0.90887  0.28805  0.61681  1.0000
  C   C1688     1.0  0.96271  0.17297  0.65539  1.0000
  H   H2854     1.0  0.95905  0.16810  0.55076  1.0000
  H   H2855     1.0  0.79678  0.47554  0.50934  1.0000
  H   H2856     1.0  0.89932  0.11400  0.55387  1.0000
  C   C1689     1.0  0.95944  0.19395  0.64618  1.0000
  H   H2857     1.0  0.95316  0.44999  0.67076  1.0000
  H   H2858     1.0  0.94245  0.20024  0.64290  1.0000
  H   H2859     1.0  0.70364  0.42548  0.70094  1.0000
  C   C1690     1.0  0.89038  0.16825  0.55452  1.0000
  H   H2860     1.0  0.73182  0.01850  0.55652  1.0000
  C   C1691     1.0  0.90202  0.43632  0.59626  1.0000
  C   C1692     1.0  0.88070  0.44687  0.60330  1.0000
  H   H2861     1.0  0.74764  0.12738  0.72162  1.0000
  C   C1693     1.0  0.90856  0.44823  0.66973  1.0000
  H   H2862     1.0  0.93743  0.41513  0.68386  1.0000
  H   H2863     1.0  0.87557  0.44046  0.61380  1.0000
  C   C1694     1.0  0.86060  0.32982  0.59262  1.0000
  C   C1695     1.0  0.75561  0.11893  0.71274  1.0000
  C   C1696     1.0  0.91121  0.15118  0.56028  1.0000
  C   C1697     1.0  0.91088  0.35565  0.59471  1.0000
  H   H2864     1.0  0.75887  0.47010  0.70216  1.0000
  C   C1698     1.0  0.83462  0.45645  0.67142  1.0000
  H   H2865     1.0  0.71776  0.43676  0.72565  1.0000
  C   C1699     1.0  0.90354  0.47128  0.65960  1.0000
  H   H2866     1.0  0.93451  0.18631  0.54336  1.0000
  H   H2867     1.0  0.87514  0.35955  0.57991  1.0000
  N   N120      1.0  0.92723  0.13552  0.55103  1.0000
  H   H2868     1.0  0.89025  0.36692  0.61273  1.0000
  C   C1700     1.0  0.70242  0.13119  0.69368  1.0000
  C   C1701     1.0  0.89833  0.46724  0.68965  1.0000
  H   H2869     1.0  0.93903  0.11136  0.52893  1.0000
  H   H2870     1.0  0.72809  0.99221  0.59304  1.0000
  C   C1702     1.0  0.94009  0.46128  0.67732  1.0000
  H   H2871     1.0  0.78973  0.03156  0.57856  1.0000
  C   C1703     1.0  0.77749  0.42872  0.68768  1.0000
  H   H2872     1.0  0.96703  0.10860  0.57328  1.0000
  C   C1704     1.0  0.80193  0.08470  0.67514  1.0000
  C   C1705     1.0  0.82583  0.08833  0.67218  1.0000
  C   C1706     1.0  0.83181  0.11090  0.66633  1.0000
  C   C1707     1.0  0.81391  0.13007  0.66323  1.0000
  C   C1708     1.0  0.79005  0.12632  0.66587  1.0000
  C   C1709     1.0  0.78404  0.10377  0.67184  1.0000
  H   H2873     1.0  0.83983  0.07364  0.67458  1.0000
  H   H2874     1.0  0.85025  0.11349  0.66433  1.0000
  H   H2875     1.0  0.77627  0.14092  0.66309  1.0000
  H   H2876     1.0  0.76573  0.10096  0.67362  1.0000
  H   H2877     1.0  0.82680  0.34952  0.62943  1.0000
  C   C1710     1.0  0.75753  0.99623  0.57646  1.0000
  H   H2878     1.0  0.97936  0.03350  0.53172  1.0000
  H   H2879     1.0  0.88239  0.39545  0.58523  1.0000
  H   H2880     1.0  0.77609  0.01506  0.53453  1.0000
  H   H2881     1.0  0.75240  0.99097  0.51229  1.0000
  H   H2882     1.0  0.72008  0.46169  0.68843  1.0000
  H   H2883     1.0  0.97490  0.22401  0.63471  1.0000
  C   C1711     1.0  0.75383  0.42333  0.69667  1.0000
  S   S514      1.0  0.72051  0.04340  0.47689  1.0000
  H   H2884     1.0  0.76991  0.41007  0.71919  1.0000
  H   H2885     1.0  0.68641  0.42572  0.71718  1.0000
  C   C1712     1.0  0.83038  0.45012  0.69558  1.0000
  C   C1713     1.0  0.94896  0.25310  0.67725  1.0000
  N   N121      1.0  0.93049  0.26253  0.66830  1.0000
  C   C1714     1.0  0.90838  0.27431  0.67648  1.0000
  C   C1715     1.0  0.92328  0.24308  0.66305  1.0000
  C   C1716     1.0  0.93914  0.28116  0.65688  1.0000
  H   H2886     1.0  0.89367  0.46781  0.65226  1.0000
  C   C1717     1.0  0.91075  0.29709  0.68130  1.0000
  C   C1718     1.0  0.91458  0.22248  0.67359  1.0000
  C   C1719     1.0  0.95441  0.27234  0.64429  1.0000
  C   C1720     1.0  0.84453  0.34850  0.62288  1.0000
  H   H2887     1.0  0.89330  0.27924  0.67076  1.0000
  H   H2888     1.0  0.90217  0.26187  0.68558  1.0000
  H   H2889     1.0  0.93801  0.23467  0.65610  1.0000
  H   H2890     1.0  0.90898  0.25068  0.65694  1.0000
  H   H2891     1.0  0.92374  0.29375  0.65327  1.0000
  H   H2892     1.0  0.94954  0.29236  0.66024  1.0000
  H   H2893     1.0  0.83499  0.43930  0.70475  1.0000
  C   C1721     1.0  0.72340  0.42829  0.71661  1.0000
  H   H2894     1.0  0.91515  0.31154  0.67291  1.0000
  H   H2895     1.0  0.89321  0.30408  0.68694  1.0000
  H   H2896     1.0  0.92390  0.29356  0.68815  1.0000
  H   H2897     1.0  0.91130  0.20878  0.66838  1.0000
  H   H2898     1.0  0.73588  0.02045  0.51028  1.0000
  H   H2899     1.0  0.89741  0.22834  0.67988  1.0000
  H   H2900     1.0  0.74816  0.14473  0.68269  1.0000
  H   H2901     1.0  0.88464  0.45467  0.71071  1.0000
  H   H2902     1.0  0.93211  0.15573  0.53091  1.0000
  H   H2903     1.0  0.93020  0.42628  0.69888  1.0000
  C   C1722     1.0  0.72018  0.98943  0.65702  1.0000
  S   S515      1.0  0.80138  0.48028  0.71162  1.0000
  N   N122      1.0  0.72058  0.13845  0.69998  1.0000
  C   C1723     1.0  0.73668  0.11596  0.70491  1.0000
  H   H2904     1.0  0.85855  0.32307  0.58371  1.0000
  C   C1724     1.0  0.98462  0.16554  0.65996  1.0000
  H   H2905     1.0  0.92588  0.34633  0.59998  1.0000
  H   H2906     1.0  0.73466  0.18336  0.67334  1.0000
  S   S516      1.0  0.78640  0.01319  0.48743  1.0000
  H   H2907     1.0  0.72583  0.10295  0.71145  1.0000
  H   H2908     1.0  0.69388  0.04442  0.66666  1.0000
  C   C1725     1.0  0.72296  0.17764  0.68287  1.0000
  C   C1726     1.0  0.74158  0.46335  0.70403  1.0000
  H   H2909     1.0  0.87153  0.40321  0.60130  1.0000
  H   H2910     1.0  0.79311  0.41997  0.69254  1.0000
  H   H2911     1.0  0.94798  0.13634  0.57405  1.0000
  H   H2912     1.0  0.82899  0.41057  0.59606  1.0000
  H   H2913     1.0  0.77262  0.04799  0.55654  1.0000
  H   H2914     1.0  0.97693  0.34020  0.65338  1.0000
  N   N123      1.0  0.91734  0.45090  0.68201  1.0000
  H   H2915     1.0  0.98724  0.14932  0.66711  1.0000
  H   H2916     1.0  0.73021  0.47216  0.71224  1.0000
  H   H2917     1.0  0.96198  0.06446  0.57429  1.0000
  H   H2918     1.0  0.90666  0.39653  0.70193  1.0000
  C   C1727     1.0  0.95846  0.12458  0.56703  1.0000
  C   C1728     1.0  0.90851  0.44493  0.58264  1.0000
  C   C1729     1.0  0.68393  0.16616  0.71097  1.0000
  H   H2919     1.0  0.73353  0.00069  0.49978  1.0000
  H   H2920     1.0  0.85272  0.42589  0.68305  1.0000
  H   H2921     1.0  0.68906  0.14651  0.69031  1.0000
  C   C1730     1.0  0.84362  0.36904  0.61087  1.0000
  H   H2922     1.0  0.77223  0.06069  0.57681  1.0000
  H   H2923     1.0  0.76905  0.99585  0.58388  1.0000
  H   H2924     1.0  0.74031  0.42646  0.69009  1.0000
  H   H2925     1.0  0.72213  0.10011  0.68467  1.0000
  C   C1731     1.0  0.84053  0.44254  0.68331  1.0000
  C   C1732     1.0  0.87182  0.47372  0.58299  1.0000
  H   H2926     1.0  0.88538  0.42312  0.69895  1.0000
  H   H2927     1.0  0.67177  0.99639  0.53694  1.0000
  H   H2928     1.0  0.84510  0.32597  0.60038  1.0000
  H   H2929     1.0  0.72012  0.16098  0.71444  1.0000
  H   H2930     1.0  0.85748  0.35031  0.62902  1.0000
  C   C1733     1.0  0.97627  0.12422  0.63067  1.0000
  H   H2931     1.0  0.74546  0.02237  0.53287  1.0000
  H   H2932     1.0  0.84199  0.40431  0.57946  1.0000
  H   H2933     1.0  0.87563  0.15852  0.55459  1.0000
  H   H2934     1.0  0.84392  0.36486  0.58542  1.0000
  H   H2935     1.0  0.95581  0.10515  0.55225  1.0000
  C   C1734     1.0  0.73515  0.00155  0.51013  1.0000
  H   H2936     1.0  0.97800  0.16177  0.62645  1.0000
  H   H2937     1.0  0.76518  0.10098  0.71639  1.0000
  C   C1735     1.0  0.73038  0.47336  0.69127  1.0000
  C   C1736     1.0  0.67152  0.01257  0.68557  1.0000
  H   H2938     1.0  0.77801  0.44804  0.68483  1.0000
  H   H2939     1.0  0.79929  0.01616  0.55028  1.0000
  C   C1737     1.0  0.76277  0.03743  0.56535  1.0000
  H   H2940     1.0  0.70497  0.13642  0.72095  1.0000
  C   C1738     1.0  0.97200  0.23746  0.67162  1.0000
  C   C1739     1.0  0.77160  0.04146  0.57767  1.0000
  H   H2941     1.0  0.93270  0.08799  0.54291  1.0000
  H   H2942     1.0  0.71915  0.19206  0.68894  1.0000
  C   C1740     1.0  0.97564  0.04002  0.54110  1.0000
  H   H2943     1.0  0.74381  0.04627  0.56589  1.0000
  S   S517      1.0  0.67166  0.07330  0.70522  1.0000
  H   H2944     1.0  0.95962  0.47718  0.57768  1.0000
  H   H2945     1.0  0.94258  0.47847  0.69392  1.0000
  H   H2946     1.0  0.93209  0.10406  0.56605  1.0000
  H   H2947     1.0  0.94128  0.24311  0.68697  1.0000
  H   H2948     1.0  0.94347  0.26531  0.63881  1.0000
  C   C1741     1.0  0.73588  0.15446  0.69020  1.0000
  C   C1742     1.0  0.95315  0.46469  0.68815  1.0000
  S   S518      1.0  0.67684  0.99890  0.48692  1.0000
  H   H2949     1.0  0.82265  0.99912  0.50385  1.0000
  H   H2950     1.0  0.84075  0.38543  0.61541  1.0000
  N   N124      1.0  0.82723  0.08060  0.62735  1.0000
  C   C1743     1.0  0.82621  0.10399  0.63186  1.0000
  C   C1744     1.0  0.80179  0.07718  0.62820  1.0000
  C   C1745     1.0  0.83947  0.08298  0.61299  1.0000
  C   C1746     1.0  0.84110  0.06104  0.63610  1.0000
  C   C1747     1.0  0.85043  0.11143  0.63164  1.0000
  C   C1748     1.0  0.78622  0.07653  0.64217  1.0000
  C   C1749     1.0  0.84116  0.06186  0.60577  1.0000
  C   C1750     1.0  0.83660  0.03533  0.63696  1.0000
  H   H2951     1.0  0.81569  0.11886  0.62577  1.0000
  H   H2952     1.0  0.81690  0.10362  0.64231  1.0000
  H   H2953     1.0  0.80076  0.06062  0.62480  1.0000
  H   H2954     1.0  0.79258  0.09166  0.62128  1.0000
  H   H2955     1.0  0.83047  0.09905  0.60692  1.0000
  H   H2956     1.0  0.85823  0.08567  0.61205  1.0000
  H   H2957     1.0  0.86064  0.06106  0.63292  1.0000
  H   H2958     1.0  0.83697  0.06454  0.64656  1.0000
  H   H2959     1.0  0.86047  0.11522  0.62145  1.0000
  H   H2960     1.0  0.84705  0.12831  0.63566  1.0000
  H   H2961     1.0  0.86168  0.09813  0.63801  1.0000
  H   H2962     1.0  0.76988  0.06917  0.64228  1.0000
  H   H2963     1.0  0.79549  0.06516  0.65013  1.0000
  H   H2964     1.0  0.78019  0.09472  0.64463  1.0000
  H   H2965     1.0  0.85354  0.04612  0.60973  1.0000
  H   H2966     1.0  0.84890  0.06707  0.59514  1.0000
  H   H2967     1.0  0.82362  0.05708  0.60572  1.0000
  H   H2968     1.0  0.85369  0.02286  0.63761  1.0000
  H   H2969     1.0  0.82982  0.03197  0.62844  1.0000
  H   H2970     1.0  0.82443  0.02993  0.64635  1.0000
  C   C1751     1.0  0.94304  0.11638  0.55891  1.0000
  H   H2971     1.0  0.89156  0.44094  0.67244  1.0000
  H   H2972     1.0  0.92129  0.16210  0.56399  1.0000
  H   H2973     1.0  0.90325  0.14011  0.56942  1.0000
  H   H2974     1.0  0.95844  0.13764  0.53555  1.0000
  C   C1752     1.0  0.96591  0.05757  0.56502  1.0000
  C   C1753     1.0  0.79176  0.00331  0.55882  1.0000
  C   C1754     1.0  0.91161  0.12312  0.54560  1.0000
  H   H2975     1.0  0.75844  0.04257  0.53890  1.0000
  C   C1755     1.0  0.88762  0.35728  0.60501  1.0000
  C   C1756     1.0  0.71238  0.11824  0.68165  1.0000
  C   C1757     1.0  0.75836  0.02341  0.53921  1.0000
  H   H2976     1.0  0.87735  0.31956  0.59581  1.0000
  H   H2977     1.0  0.98607  0.10886  0.63673  1.0000
  C   C1758     1.0  0.81832  0.47777  0.67192  1.0000
  N   N125      1.0  0.86493  0.36876  0.59967  1.0000
  C   C1759     1.0  0.97776  0.20762  0.64169  1.0000
  C   C1760     1.0  0.70837  0.15011  0.71191  1.0000
  H   H2978     1.0  0.96882  0.22496  0.66573  1.0000
  H   H2979     1.0  0.91038  0.34512  0.58701  1.0000
  H   H2980     1.0  0.96256  0.17836  0.53324  1.0000
  H   H2981     1.0  0.91549  0.37335  0.58993  1.0000
  C   C1761     1.0  0.94195  0.14937  0.53948  1.0000
  H   H2982     1.0  0.98534  0.24840  0.66562  1.0000
  H   H2983     1.0  0.78172  0.43633  0.71127  1.0000
  C   C1762     1.0  0.98843  0.05830  0.55698  1.0000
  H   H2984     1.0  0.69717  0.11575  0.67734  1.0000
  H   H2985     1.0  0.92819  0.21346  0.67987  1.0000
  H   H2986     1.0  0.88665  0.33876  0.61009  1.0000
  H   H2987     1.0  0.75618  0.40375  0.70030  1.0000
  H   H2988     1.0  0.71012  0.00222  0.63756  1.0000
  H   H2989     1.0  0.89606  0.17739  0.54426  1.0000
  H   H2990     1.0  0.92033  0.47700  0.65382  1.0000
  H   H2991     1.0  0.84907  0.33058  0.62008  1.0000
  H   H2992     1.0  0.72686  0.02202  0.58442  1.0000
  H   H2993     1.0  0.84891  0.42855  0.58522  1.0000
  H   H2994     1.0  0.89985  0.13613  0.53932  1.0000
  H   H2995     1.0  0.75944  0.03634  0.58706  1.0000
  C   C1763     1.0  0.97785  0.42289  0.65068  1.0000
  H   H2996     1.0  0.95498  0.26804  0.68017  1.0000
  S   S519      1.0  0.83107  0.00446  0.59135  1.0000
  H   H2997     1.0  0.66991  0.15547  0.71115  1.0000
  H   H2998     1.0  0.74690  0.10699  0.69652  1.0000
  C   C1764     1.0  0.86735  0.39428  0.59373  1.0000
  H   H2999     1.0  0.88291  0.18200  0.56096  1.0000
  H   H3000     1.0  0.92495  0.43680  0.57713  1.0000
  C   C1765     1.0  0.66149  0.09161  0.71771  1.0000
  C   C1766     1.0  0.94983  0.17167  0.54207  1.0000
  C   C1767     1.0  0.84533  0.40996  0.58840  1.0000
  C   C1768     1.0  0.89357  0.46378  0.57604  1.0000
  H   H3001     1.0  0.67323  0.01660  0.65848  1.0000
  C   C1769     1.0  0.86551  0.46527  0.59664  1.0000
  H   H3002     1.0  0.69172  0.11929  0.70121  1.0000
  H   H3003     1.0  0.91590  0.45743  0.70797  1.0000
  N   N126      1.0  0.74563  0.43664  0.70827  1.0000
  H   H3004     1.0  0.97332  0.13269  0.56046  1.0000
  H   H3005     1.0  0.82685  0.36979  0.60701  1.0000
  H   H3006     1.0  0.68857  0.00726  0.67900  1.0000
  C   C1770     1.0  0.92492  0.10450  0.53681  1.0000
  H   H3007     1.0  0.72381  0.12862  0.67366  1.0000
  H   H3008     1.0  0.76935  0.12890  0.70630  1.0000
  C   C1771     1.0  0.81409  0.47149  0.69605  1.0000
  C   C1772     1.0  0.86114  0.35675  0.58887  1.0000
  C   C1773     1.0  0.73130  0.00321  0.58299  1.0000
  H   H3009     1.0  0.95918  0.13051  0.63698  1.0000
  H   H3010     1.0  0.67823  0.17502  0.71989  1.0000
  H   H3011     1.0  0.97671  0.18123  0.59739  1.0000
  H   H3012     1.0  0.97001  0.25874  0.64646  1.0000
  H   H3013     1.0  0.70637  0.17564  0.67984  1.0000
  H   H3014     1.0  0.68013  0.07500  0.66395  1.0000
  C   C1774     1.0  0.97276  0.16281  0.59990  1.0000
  H   H3015     1.0  0.80241  0.00253  0.56672  1.0000
  H   H3016     1.0  0.71868  0.99987  0.57710  1.0000
  H   H3017     1.0  0.97998  0.22571  0.67999  1.0000
  C   C1775     1.0  0.89855  0.46497  0.70474  1.0000
  C   C1776     1.0  0.71327  0.99389  0.52009  1.0000
  C   C1777     1.0  0.71445  0.98666  0.64488  1.0000
  H   H3018     1.0  0.96505  0.15977  0.59153  1.0000
  H   H3019     1.0  0.69770  0.00524  0.51589  1.0000
  H   H3020     1.0  0.95876  0.16105  0.60885  1.0000
  C   C1778     1.0  0.98035  0.40077  0.65905  1.0000
  H   H3021     1.0  0.98553  0.00611  0.56897  1.0000
  H   H3022     1.0  0.67670  0.05569  0.65333  1.0000
  H   H3023     1.0  0.74423  0.47877  0.68272  1.0000
  H   H3024     1.0  0.92159  0.43513  0.66430  1.0000
  H   H3025     1.0  0.72696  0.40875  0.72027  1.0000
  H   H3026     1.0  0.67583  0.02492  0.69134  1.0000
  C   C1779     1.0  0.90180  0.41233  0.69439  1.0000
  H   H3027     1.0  0.95845  0.44785  0.69481  1.0000
  H   H3028     1.0  0.93672  0.47921  0.67117  1.0000
  H   H3029     1.0  0.96127  0.28761  0.63735  1.0000
  H   H3030     1.0  0.88025  0.46421  0.68892  1.0000
  H   H3031     1.0  0.89797  0.40548  0.68597  1.0000
  C   C1780     1.0  0.76506  0.42981  0.71677  1.0000
  H   H3032     1.0  0.69433  0.45295  0.70792  1.0000
  H   H3033     1.0  0.80719  0.99231  0.72087  1.0000
  H   H3034     1.0  0.84874  0.47292  0.60206  1.0000
  H   H3035     1.0  0.97001  0.47132  0.68318  1.0000
  H   H3036     1.0  0.68439  0.18029  0.70209  1.0000
  H   H3037     1.0  0.89851  0.47014  0.56551  1.0000
  H   H3038     1.0  0.98006  0.31916  0.64226  1.0000
  H   H3039     1.0  0.69384  0.08316  0.72606  1.0000
  C   C1781     1.0  0.67630  0.09390  0.72633  1.0000
  H   H3040     1.0  0.70748  0.01363  0.84588  1.0000
  S   S520      1.0  0.71627  0.06704  0.95666  1.0000
  C   C1782     1.0  0.66874  0.11073  0.73500  1.0000
  Fe  Fe262     1.0  0.76867  0.01457  0.95056  1.0000
  S   S521      1.0  0.76609  0.05021  0.93723  1.0000
  C   C1783     1.0  0.69192  0.02140  0.85268  1.0000
  Fe  Fe263     1.0  0.75567  0.06584  0.95623  1.0000
  H   H3041     1.0  0.82432  0.44019  0.96042  1.0000
  Fe  Fe264     1.0  0.72704  0.04792  0.93890  1.0000
  S   S522      1.0  0.70736  0.05969  0.92097  1.0000
  C   C1784     1.0  0.68209  0.45457  0.74749  1.0000
  S   S523      1.0  0.73046  0.01118  0.95102  1.0000
  S   S524      1.0  0.74935  0.99979  0.74053  1.0000
  C   C1785     1.0  0.81617  0.44687  0.96956  1.0000
  H   H3042     1.0  0.82608  0.05450  0.93058  1.0000
  H   H3043     1.0  0.66098  0.99899  0.95050  1.0000
  H   H3044     1.0  0.87661  0.03136  0.95403  1.0000
  H   H3045     1.0  0.67060  0.07979  0.94239  1.0000
  H   H3046     1.0  0.66177  0.99594  0.92105  1.0000
  C   C1786     1.0  0.66573  0.01342  0.91636  1.0000
  H   H3047     1.0  0.69088  0.01334  0.92928  1.0000
  H   H3048     1.0  0.84286  0.00164  0.95543  1.0000
  H   H3049     1.0  0.93305  0.21358  0.96947  1.0000
  H   H3050     1.0  0.81469  0.03439  0.94451  1.0000
  H   H3051     1.0  0.80035  0.13383  0.95741  1.0000
  C   C1787     1.0  0.66033  0.44706  0.74789  1.0000
  H   H3052     1.0  0.72092  0.47230  0.78159  1.0000
  C   C1788     1.0  0.79499  0.46355  0.96984  1.0000
  H   H3053     1.0  0.66225  0.11594  0.78585  1.0000
  H   H3054     1.0  0.70628  0.47883  0.73753  1.0000
  H   H3055     1.0  0.86172  0.09090  0.95388  1.0000
  C   C1789     1.0  0.89809  0.98811  0.89601  1.0000
  H   H3056     1.0  0.81333  0.02355  0.96587  1.0000
  H   H3057     1.0  0.88910  0.00340  0.90109  1.0000
  H   H3058     1.0  0.87395  0.99228  0.95503  1.0000
  H   H3059     1.0  0.71086  0.01974  0.86840  1.0000
  H   H3060     1.0  0.67994  0.07595  0.89980  1.0000
  H   H3061     1.0  0.82944  0.07828  0.97119  1.0000
  H   H3062     1.0  0.66504  0.10211  0.76610  1.0000
  H   H3063     1.0  0.88311  0.06556  0.95991  1.0000
  N   N127      1.0  0.84079  0.04594  0.96263  1.0000
  H   H3064     1.0  0.75267  0.45866  0.72876  1.0000
  H   H3065     1.0  0.68099  0.00266  0.96087  1.0000
  N   N128      1.0  0.69572  0.98698  0.87274  1.0000
  H   H3066     1.0  0.77636  0.43665  0.73419  1.0000
  H   H3067     1.0  0.67954  0.02367  0.87355  1.0000
  C   C1790     1.0  0.71484  0.99662  0.89145  1.0000
  H   H3068     1.0  0.75842  0.98211  0.76705  1.0000
  C   C1791     1.0  0.83695  0.05803  0.94877  1.0000
  C   C1792     1.0  0.68728  0.04598  0.91525  1.0000
  C   C1793     1.0  0.68218  0.02327  0.92110  1.0000
  H   H3069     1.0  0.80270  0.05239  0.96944  1.0000
  H   H3070     1.0  0.67351  0.47579  0.78550  1.0000
  H   H3071     1.0  0.67072  0.07372  0.76052  1.0000
  H   H3072     1.0  0.80054  0.99924  0.92109  1.0000
  C   C1794     1.0  0.67609  0.05840  0.90444  1.0000
  H   H3073     1.0  0.66578  0.03920  0.94653  1.0000
  H   H3074     1.0  0.71800  0.98897  0.90177  1.0000
  H   H3075     1.0  0.74127  0.99621  0.85772  1.0000
  H   H3076     1.0  0.85484  0.98981  0.97063  1.0000
  C   C1795     1.0  0.86642  0.07783  0.96272  1.0000
  S   S525      1.0  0.76012  0.03024  0.96947  1.0000
  H   H3077     1.0  0.68224  0.98378  0.89403  1.0000
  C   C1796     1.0  0.75957  0.43935  0.73007  1.0000
  H   H3078     1.0  0.66431  0.29824  0.79793  1.0000
  C   C1797     1.0  0.86204  0.02613  0.96222  1.0000
  Fe  Fe265     1.0  0.72168  0.03025  0.96870  1.0000
  C   C1798     1.0  0.79792  0.12396  0.96746  1.0000
  H   H3079     1.0  0.92657  0.99037  0.90616  1.0000
  C   C1799     1.0  0.85761  0.00142  0.96074  1.0000
  H   H3080     1.0  0.70514  0.01505  0.89178  1.0000
  C   C1800     1.0  0.66344  0.99774  0.96089  1.0000
  C   C1801     1.0  0.83058  0.04278  0.93989  1.0000
  H   H3081     1.0  0.67245  0.04550  0.96118  1.0000
  S   S526      1.0  0.77383  0.09700  0.95738  1.0000
  H   H3082     1.0  0.79634  0.40060  0.96706  1.0000
  H   H3083     1.0  0.69339  0.44560  0.75472  1.0000
  H   H3084     1.0  0.76708  0.39171  0.97074  1.0000
  H   H3085     1.0  0.68813  0.07933  0.77135  1.0000
  H   H3086     1.0  0.84597  0.02918  0.93685  1.0000
  H   H3087     1.0  0.67541  0.01741  0.85048  1.0000
  C   C1802     1.0  0.65978  0.04848  0.89964  1.0000
  H   H3088     1.0  0.65715  0.99274  0.87761  1.0000
  C   C1803     1.0  0.81806  0.03755  0.97019  1.0000
  H   H3089     1.0  0.66242  0.06839  0.79022  1.0000
  C   C1804     1.0  0.78493  0.10492  0.97045  1.0000
  C   C1805     1.0  0.69460  0.01330  0.86747  1.0000
  H   H3090     1.0  0.83401  0.39217  0.97237  1.0000
  H   H3091     1.0  0.89613  0.99406  0.88539  1.0000
  H   H3092     1.0  0.96772  0.98315  0.90548  1.0000
  H   H3093     1.0  0.68070  0.11299  0.74124  1.0000
  H   H3094     1.0  0.85322  0.06491  0.94300  1.0000
  H   H3095     1.0  0.69079  0.04105  0.85021  1.0000
  H   H3096     1.0  0.74693  0.42957  0.73764  1.0000
  H   H3097     1.0  0.77010  0.42191  0.96957  1.0000
  H   H3098     1.0  0.95909  0.23828  0.97046  1.0000
  C   C1806     1.0  0.66965  0.08269  0.76917  1.0000
  H   H3099     1.0  0.93411  0.99340  0.88855  1.0000
  H   H3100     1.0  0.73243  0.99744  0.88506  1.0000
  H   H3101     1.0  0.82256  0.07387  0.94928  1.0000
  C   C1807     1.0  0.68943  0.47347  0.73776  1.0000
  H   H3102     1.0  0.82380  0.36480  0.97245  1.0000
  C   C1808     1.0  0.65801  0.04866  0.95507  1.0000
  C   C1809     1.0  0.77830  0.40327  0.97303  1.0000
  H   H3103     1.0  0.93074  0.26992  0.96433  1.0000
  H   H3104     1.0  0.66834  0.98336  0.86208  1.0000
  S   S527      1.0  0.80074  0.98457  0.94974  1.0000
  C   C1810     1.0  0.81244  0.98243  0.92266  1.0000
  C   C1811     1.0  0.92766  0.26395  0.97530  1.0000
  S   S528      1.0  0.78252  0.47335  0.95514  1.0000
  C   C1812     1.0  0.92480  0.98267  0.89749  1.0000
  C   C1813     1.0  0.84554  0.06449  0.96966  1.0000
  H   H3105     1.0  0.86952  0.02305  0.97162  1.0000
  H   H3106     1.0  0.81782  0.14506  0.97481  1.0000
  H   H3107     1.0  0.87003  0.08834  0.96972  1.0000
  H   H3108     1.0  0.95637  0.58803  0.21680  1.0000
  N   N129      1.0  0.72984  0.53931  0.14776  1.0000
  H   H3109     1.0  0.71653  0.52188  0.01606  1.0000
  Fe  Fe266     1.0  0.79840  0.54470  0.20319  1.0000
  C   C1814     1.0  0.93515  0.63153  0.18195  1.0000
  C   C1815     1.0  0.93741  0.61533  0.19558  1.0000
  Fe  Fe267     1.0  0.78221  0.51144  0.18747  1.0000
  S   S529      1.0  0.74355  0.52402  0.19452  1.0000
  C   C1816     1.0  0.65762  0.55543  0.11765  1.0000
  Fe  Fe268     1.0  0.75386  0.56053  0.18981  1.0000
  S   S530      1.0  0.73972  0.59089  0.17443  1.0000
  H   H3110     1.0  0.73332  0.52188  0.12287  1.0000
  S   S531      1.0  0.79254  0.54790  0.18209  1.0000
  S   S532      1.0  0.79274  0.50653  0.20764  1.0000
  H   H3111     1.0  0.72420  0.91330  0.20167  1.0000
  S   S533      1.0  0.66512  0.93240  0.16496  1.0000
  H   H3112     1.0  0.68299  0.94138  0.13174  1.0000
  H   H3113     1.0  0.72691  0.96009  0.21020  1.0000
  C   C1817     1.0  0.81709  0.59933  0.21358  1.0000
  H   H3114     1.0  0.69362  0.52826  0.00613  1.0000
  H   H3115     1.0  0.69642  0.54191  0.14062  1.0000
  N   N130      1.0  0.68652  0.50321  0.02442  1.0000
  H   H3116     1.0  0.68333  0.70474  0.13928  1.0000
  H   H3117     1.0  0.80497  0.60056  0.20671  1.0000
  H   H3118     1.0  0.81008  0.63705  0.21418  1.0000
  C   C1818     1.0  0.66725  0.60651  0.18282  1.0000
  C   C1819     1.0  0.67575  0.97514  0.11827  1.0000
  H   H3119     1.0  0.68581  0.52948  0.16184  1.0000
  H   H3120     1.0  0.97151  0.48871  0.00952  1.0000
  C   C1820     1.0  0.69105  0.59606  0.18380  1.0000
  C   C1821     1.0  0.70950  0.60255  0.17360  1.0000
  C   C1822     1.0  0.70399  0.61907  0.16234  1.0000
  H   H3121     1.0  0.76316  0.52196  0.12581  1.0000
  H   H3122     1.0  0.69513  0.58340  0.19254  1.0000
  H   H3123     1.0  0.71822  0.62413  0.15442  1.0000
  H   H3124     1.0  0.70997  0.58929  0.14358  1.0000
  H   H3125     1.0  0.67428  0.97881  0.09280  1.0000
  C   C1823     1.0  0.67473  0.94825  0.12264  1.0000
  C   C1824     1.0  0.74735  0.90115  0.22303  1.0000
  C   C1825     1.0  0.69742  0.57659  0.14486  1.0000
  H   H3126     1.0  0.76852  0.48534  0.98189  1.0000
  C   C1826     1.0  0.70355  0.51361  0.01266  1.0000
  H   H3127     1.0  0.65641  0.94416  0.12543  1.0000
  S   S534      1.0  0.76045  0.55970  0.21060  1.0000
  H   H3128     1.0  0.90112  0.59614  0.22463  1.0000
  H   H3129     1.0  0.68429  0.93806  0.11463  1.0000
  C   C1827     1.0  0.69949  0.52491  0.16837  1.0000
  H   H3130     1.0  0.67187  0.50883  0.08160  1.0000
  H   H3131     1.0  0.69046  0.89442  0.20922  1.0000
  H   H3132     1.0  0.70483  0.70315  0.14925  1.0000
  H   H3133     1.0  0.72130  0.50506  0.14684  1.0000
  H   H3134     1.0  0.89019  0.63910  0.19463  1.0000
  H   H3135     1.0  0.90245  0.59636  0.18820  1.0000
  C   C1828     1.0  0.77387  0.53990  0.14912  1.0000
  C   C1829     1.0  0.68019  0.74324  0.16558  1.0000
  H   H3136     1.0  0.68344  0.90398  0.22493  1.0000
  C   C1830     1.0  0.82002  0.62000  0.21784  1.0000
  C   C1831     1.0  0.68940  0.69515  0.14871  1.0000
  C   C1832     1.0  0.93928  0.58839  0.22389  1.0000
  H   H3137     1.0  0.68361  0.58515  0.13858  1.0000
  C   C1833     1.0  0.69858  0.89833  0.21721  1.0000
  N   N131      1.0  0.91637  0.61813  0.20670  1.0000
  H   H3138     1.0  0.93458  0.63492  0.21768  1.0000
  H   H3139     1.0  0.68517  0.53343  0.07171  1.0000
  C   C1834     1.0  0.67444  0.97483  0.19633  1.0000
  C   C1835     1.0  0.71021  0.55297  0.14029  1.0000
  H   H3140     1.0  0.94107  0.59672  0.19353  1.0000
  H   H3141     1.0  0.72325  0.67826  0.17887  1.0000
  H   H3142     1.0  0.65922  0.68207  0.16139  1.0000
  H   H3143     1.0  0.92269  0.64849  0.18232  1.0000
  H   H3144     1.0  0.69204  0.71964  0.18273  1.0000
  H   H3145     1.0  0.89866  0.66903  0.20169  1.0000
  S   S535      1.0  0.79294  0.97217  0.21645  1.0000
  H   H3146     1.0  0.95388  0.61804  0.19868  1.0000
  C   C1836     1.0  0.72187  0.53674  0.16262  1.0000
  H   H3147     1.0  0.69560  0.67619  0.14766  1.0000
  H   H3148     1.0  0.69056  0.53150  0.17776  1.0000
  C   C1837     1.0  0.67675  0.54472  0.03177  1.0000
  H   H3149     1.0  0.75297  0.89182  0.21425  1.0000
  H   H3150     1.0  0.77140  0.53569  0.16013  1.0000
  H   H3151     1.0  0.75193  0.95012  0.21805  1.0000
  C   C1838     1.0  0.89263  0.62259  0.20200  1.0000
  H   H3152     1.0  0.68804  0.57394  0.15533  1.0000
  H   H3153     1.0  0.71716  0.64886  0.18071  1.0000
  C   C1839     1.0  0.83056  0.57731  0.21781  1.0000
  H   H3154     1.0  0.70659  0.49158  0.99725  1.0000
  C   C1840     1.0  0.69911  0.49179  0.03605  1.0000
  C   C1841     1.0  0.66834  0.69764  0.16038  1.0000
  S   S536      1.0  0.67022  0.51896  0.97964  1.0000
  H   H3155     1.0  0.73621  0.52550  0.16781  1.0000
  H   H3156     1.0  0.71672  0.66755  0.16497  1.0000
  H   H3157     1.0  0.83663  0.94008  0.21918  1.0000
  H   H3158     1.0  0.65639  0.53071  0.02103  1.0000
  H   H3159     1.0  0.71932  0.55400  0.16623  1.0000
  H   H3160     1.0  0.68634  0.53962  0.04039  1.0000
  H   H3161     1.0  0.95294  0.63629  0.17722  1.0000
  H   H3162     1.0  0.78745  0.55189  0.14601  1.0000
  C   C1842     1.0  0.68526  0.67569  0.18046  1.0000
  N   N132      1.0  0.72943  0.92329  0.21983  1.0000
  Fe  Fe269     1.0  0.75469  0.52145  0.21445  1.0000
  H   H3163     1.0  0.91517  0.67582  0.21272  1.0000
  C   C1843     1.0  0.75673  0.94057  0.19871  1.0000
  H   H3164     1.0  0.68795  0.55357  0.02296  1.0000
  C   C1844     1.0  0.91543  0.66331  0.20586  1.0000
  H   H3165     1.0  0.67255  0.56158  0.11014  1.0000
  H   H3166     1.0  0.66412  0.54006  0.12498  1.0000
  C   C1845     1.0  0.74089  0.94426  0.21221  1.0000
  H   H3167     1.0  0.70777  0.71295  0.16733  1.0000
  H   H3168     1.0  0.74573  0.94215  0.19088  1.0000
  H   H3169     1.0  0.82159  0.51943  0.97781  1.0000
  H   H3170     1.0  0.75204  0.49467  0.12809  1.0000
  H   H3171     1.0  0.75515  0.55801  0.13304  1.0000
  H   H3172     1.0  0.78162  0.52346  0.14488  1.0000
  H   H3173     1.0  0.67615  0.64148  0.15245  1.0000
  H   H3174     1.0  0.66102  0.55834  0.03446  1.0000
  H   H3175     1.0  0.90303  0.63832  0.22278  1.0000
  H   H3176     1.0  0.76802  0.95476  0.19540  1.0000
  H   H3177     1.0  0.91720  0.57986  0.21200  1.0000
  H   H3178     1.0  0.70075  0.93463  0.20826  1.0000
  H   H3179     1.0  0.78616  0.54256  0.98010  1.0000
  C   C1846     1.0  0.67389  0.48630  0.02022  1.0000
  C   C1847     1.0  0.68995  0.95622  0.17661  1.0000
  C   C1848     1.0  0.69314  0.96930  0.18602  1.0000
  C   C1849     1.0  0.91731  0.59535  0.21676  1.0000
  C   C1850     1.0  0.71210  0.66754  0.17579  1.0000
  H   H3180     1.0  0.88304  0.58712  0.20359  1.0000
  S   S537      1.0  0.82956  0.55122  0.21168  1.0000
  C   C1851     1.0  0.68020  0.62902  0.16122  1.0000
  C   C1852     1.0  0.74687  0.51368  0.12933  1.0000
  H   H3181     1.0  0.93037  0.62166  0.17502  1.0000
  H   H3182     1.0  0.69318  0.97606  0.11153  1.0000
  H   H3183     1.0  0.68900  0.51583  0.11270  1.0000
  C   C1853     1.0  0.91743  0.63791  0.21389  1.0000
  H   H3184     1.0  0.93130  0.66541  0.19803  1.0000
  H   H3185     1.0  0.75028  0.50370  0.15002  1.0000
  H   H3186     1.0  0.70439  0.50524  0.17053  1.0000
  H   H3187     1.0  0.70452  0.95206  0.16868  1.0000
  C   C1854     1.0  0.75061  0.55280  0.14404  1.0000
  H   H3188     1.0  0.71736  0.55762  0.12949  1.0000
  H   H3189     1.0  0.67595  0.66129  0.17947  1.0000
  C   C1855     1.0  0.73683  0.51475  0.14414  1.0000
  H   H3190     1.0  0.74583  0.56989  0.14799  1.0000
  C   C1856     1.0  0.71817  0.49669  0.00317  1.0000
  H   H3191     1.0  0.76897  0.92332  0.19927  1.0000
  H   H3192     1.0  0.67254  0.56688  0.98405  1.0000
  C   C1857     1.0  0.65760  0.56037  0.99087  1.0000
  S   S538      1.0  0.79417  0.48495  0.17298  1.0000
  H   H3193     1.0  0.70911  0.50447  0.03838  1.0000
  H   H3194     1.0  0.69382  0.75480  0.16451  1.0000
  H   H3195     1.0  0.87141  0.60913  0.19097  1.0000
  H   H3196     1.0  0.73131  0.50628  0.99586  1.0000
  H   H3197     1.0  0.68619  0.48809  0.04542  1.0000
  C   C1858     1.0  0.71355  0.91832  0.21116  1.0000
  C   C1859     1.0  0.66242  0.54222  0.09012  1.0000
  H   H3198     1.0  0.66482  0.49555  0.01166  1.0000
  C   C1860     1.0  0.88745  0.60250  0.19583  1.0000
  N   N133      1.0  0.67391  0.69954  0.17367  1.0000
  C   C1861     1.0  0.66771  0.52341  0.02877  1.0000
  C   C1862     1.0  0.66874  0.52837  0.07834  1.0000
  H   H3199     1.0  0.87788  0.62574  0.21042  1.0000
  C   C1863     1.0  0.66809  0.94843  0.17734  1.0000
  H   H3200     1.0  0.67953  0.54324  0.09302  1.0000
  H   H3201     1.0  0.69279  0.50020  0.09890  1.0000
  C   C1864     1.0  0.68945  0.71805  0.17262  1.0000
  H   H3202     1.0  0.68648  0.48505  0.11551  1.0000
  C   C1865     1.0  0.66177  0.62310  0.17156  1.0000
  H   H3203     1.0  0.68322  0.67544  0.19139  1.0000
  H   H3204     1.0  0.78579  0.90342  0.21840  1.0000
  H   H3205     1.0  0.70947  0.88153  0.22126  1.0000
  H   H3206     1.0  0.71005  0.97504  0.18532  1.0000
  C   C1866     1.0  0.68238  0.50239  0.10889  1.0000
  H   H3207     1.0  0.67710  0.74320  0.15539  1.0000
  H   H3208     1.0  0.66373  0.75176  0.17145  1.0000
  H   H3209     1.0  0.72262  0.48292  0.21448  1.0000
  C   C1867     1.0  0.65612  0.98034  0.09892  1.0000
  Fe  Fe270     1.0  0.75795  0.51489  0.43808  1.0000
  S   S539      1.0  0.78136  0.52595  0.41838  1.0000
  S   S540      1.0  0.71802  0.52227  0.43934  1.0000
  S   S541      1.0  0.75713  0.53402  0.45497  1.0000
  H   H3210     1.0  0.80543  0.70390  0.23744  1.0000
  H   H3211     1.0  0.95104  0.88622  0.27825  1.0000
  Fe  Fe271     1.0  0.89108  0.51945  0.35129  1.0000
  H   H3212     1.0  0.81570  0.55731  0.36745  1.0000
  S   S542      1.0  0.87605  0.55805  0.34522  1.0000
  H   H3213     1.0  0.87751  0.51965  0.46403  1.0000
  H   H3214     1.0  0.70326  0.91598  0.23763  1.0000
  C   C1868     1.0  0.96634  0.55989  0.33829  1.0000
  S   S543      1.0  0.91410  0.50768  0.36713  1.0000
  Fe  Fe272     1.0  0.89655  0.86216  0.28906  1.0000
  S   S544      1.0  0.89153  0.89662  0.27499  1.0000
  S   S545      1.0  0.89993  0.86082  0.31056  1.0000
  Fe  Fe273     1.0  0.89966  0.83168  0.26739  1.0000
  S   S546      1.0  0.89495  0.86451  0.25169  1.0000
  S   S547      1.0  0.91006  0.79577  0.26007  1.0000
  Fe  Fe274     1.0  0.92051  0.87790  0.26105  1.0000
  S   S548      1.0  0.95276  0.89379  0.24966  1.0000
  Fe  Fe275     1.0  0.86630  0.88009  0.26713  1.0000
  C   C1869     1.0  0.86248  0.49915  0.43345  1.0000
  S   S549      1.0  0.92712  0.84434  0.27560  1.0000
  S   S550      1.0  0.86935  0.84632  0.28236  1.0000
  Fe  Fe276     1.0  0.87882  0.61629  0.27192  1.0000
  S   S551      1.0  0.89362  0.61455  0.25044  1.0000
  S   S552      1.0  0.87440  0.57985  0.28344  1.0000
  Fe  Fe277     1.0  0.87295  0.67046  0.26734  1.0000
  C   C1870     1.0  0.83054  0.92250  0.29570  1.0000
  S   S553      1.0  0.86120  0.70267  0.27780  1.0000
  Fe  Fe278     1.0  0.86398  0.64443  0.24621  1.0000
  C   C1871     1.0  0.97105  0.93884  0.32207  1.0000
  Fe  Fe279     1.0  0.91447  0.64243  0.25161  1.0000
  S   S554      1.0  0.95211  0.64266  0.24047  1.0000
  S   S555      1.0  0.84789  0.64500  0.26770  1.0000
  S   S556      1.0  0.90251  0.64151  0.27361  1.0000
  H   H3215     1.0  0.84657  0.76786  0.23071  1.0000
  H   H3216     1.0  0.81162  0.51223  0.45590  1.0000
  H   H3217     1.0  0.67068  0.51043  0.43059  1.0000
  C   C1872     1.0  0.93490  0.91403  0.34541  1.0000
  C   C1873     1.0  0.81311  0.48371  0.41702  1.0000
  C   C1874     1.0  0.79415  0.90501  0.29934  1.0000
  C   C1875     1.0  0.84872  0.59658  0.23125  1.0000
  H   H3218     1.0  0.96713  0.68720  0.25624  1.0000
  S   S557      1.0  0.91614  0.49944  0.33658  1.0000
  H   H3219     1.0  0.82085  0.70335  0.26447  1.0000
  H   H3220     1.0  0.82658  0.50493  0.22872  1.0000
  C   C1876     1.0  0.96932  0.63570  0.26407  1.0000
  S   S558      1.0  0.82821  0.89933  0.26591  1.0000
  H   H3221     1.0  0.95229  0.63096  0.26898  1.0000
  H   H3222     1.0  0.97987  0.80998  0.26417  1.0000
  C   C1877     1.0  0.81928  0.92045  0.25223  1.0000
  C   C1878     1.0  0.77990  0.53089  0.24365  1.0000
  H   H3223     1.0  0.81675  0.76856  0.25950  1.0000
  H   H3224     1.0  0.81066  0.50317  0.44079  1.0000
  S   S559      1.0  0.86872  0.49068  0.35857  1.0000
  H   H3225     1.0  0.93013  0.71466  0.28236  1.0000
  C   C1879     1.0  0.88908  0.88627  0.31819  1.0000
  C   C1880     1.0  0.88269  0.88316  0.33208  1.0000
  C   C1881     1.0  0.87257  0.90274  0.33850  1.0000
  C   C1882     1.0  0.86936  0.92576  0.33115  1.0000
  C   C1883     1.0  0.87646  0.92906  0.31726  1.0000
  C   C1884     1.0  0.88632  0.90934  0.31079  1.0000
  H   H3226     1.0  0.88478  0.86541  0.33788  1.0000
  H   H3227     1.0  0.86661  0.89995  0.34918  1.0000
  H   H3228     1.0  0.78870  0.73307  0.27900  1.0000
  H   H3229     1.0  0.89152  0.91197  0.30009  1.0000
  C   C1885     1.0  0.89576  0.77036  0.26513  1.0000
  C   C1886     1.0  0.90340  0.75139  0.25792  1.0000
  C   C1887     1.0  0.89341  0.73035  0.26188  1.0000
  C   C1888     1.0  0.87535  0.72821  0.27299  1.0000
  C   C1889     1.0  0.86749  0.74727  0.28012  1.0000
  C   C1890     1.0  0.87766  0.76825  0.27623  1.0000
  H   H3230     1.0  0.91716  0.75301  0.24922  1.0000
  H   H3231     1.0  0.89950  0.71590  0.25624  1.0000
  H   H3232     1.0  0.85351  0.74577  0.28874  1.0000
  H   H3233     1.0  0.87167  0.78269  0.28189  1.0000
  C   C1891     1.0  0.87323  0.56460  0.32832  1.0000
  C   C1892     1.0  0.87146  0.58818  0.32159  1.0000
  C   C1893     1.0  0.87141  0.59323  0.30779  1.0000
  C   C1894     1.0  0.87290  0.57467  0.30078  1.0000
  C   C1895     1.0  0.87370  0.55125  0.30762  1.0000
  C   C1896     1.0  0.87384  0.54622  0.32136  1.0000
  H   H3234     1.0  0.87080  0.60246  0.32699  1.0000
  H   H3235     1.0  0.87055  0.61138  0.30255  1.0000
  H   H3236     1.0  0.87467  0.53686  0.30224  1.0000
  H   H3237     1.0  0.87476  0.52805  0.32651  1.0000
  H   H3238     1.0  0.73676  0.91916  0.24758  1.0000
  H   H3239     1.0  0.78741  0.51832  0.23663  1.0000
  C   C1897     1.0  0.80733  0.50779  0.41167  1.0000
  H   H3240     1.0  0.78425  0.50445  0.27244  1.0000
  H   H3241     1.0  0.94494  0.59478  0.32372  1.0000
  H   H3242     1.0  0.96583  0.86031  0.32102  1.0000
  H   H3243     1.0  0.79600  0.52726  0.37690  1.0000
  H   H3244     1.0  0.77413  0.75445  0.26668  1.0000
  N   N134      1.0  0.95514  0.92219  0.32053  1.0000
  C   C1898     1.0  0.94818  0.92998  0.30686  1.0000
  C   C1899     1.0  0.79903  0.49676  0.26507  1.0000
  H   H3245     1.0  0.95952  0.51155  0.31554  1.0000
  H   H3246     1.0  0.84471  0.72551  0.23539  1.0000
  H   H3247     1.0  0.94746  0.71467  0.25398  1.0000
  C   C1900     1.0  0.98806  0.92960  0.33233  1.0000
  H   H3248     1.0  0.94861  0.89804  0.34686  1.0000
  S   S560      1.0  0.95354  0.97529  0.34962  1.0000
  H   H3249     1.0  0.94570  0.60958  0.29936  1.0000
  H   H3250     1.0  0.93585  0.91883  0.30523  1.0000
  H   H3251     1.0  0.79726  0.96350  0.32286  1.0000
  C   C1901     1.0  0.79877  0.53638  0.25064  1.0000
  H   H3252     1.0  0.79128  0.71346  0.26119  1.0000
  H   H3253     1.0  0.67320  0.61869  0.46905  1.0000
  H   H3254     1.0  0.77137  0.96259  0.24462  1.0000
  H   H3255     1.0  0.92502  0.96586  0.39803  1.0000
  C   C1902     1.0  0.93262  0.92380  0.33072  1.0000
  H   H3256     1.0  0.78533  0.93321  0.26356  1.0000
  H   H3257     1.0  0.82491  0.95443  0.31265  1.0000
  H   H3258     1.0  0.77197  0.54771  0.23781  1.0000
  H   H3259     1.0  0.96970  0.70629  0.23288  1.0000
  H   H3260     1.0  0.78493  0.78414  0.23083  1.0000
  H   H3261     1.0  0.97405  0.54630  0.34615  1.0000
  H   H3262     1.0  0.84834  0.53526  0.46134  1.0000
  C   C1903     1.0  0.79074  0.49134  0.37890  1.0000
  S   S561      1.0  0.84107  0.64546  0.23064  1.0000
  C   C1904     1.0  0.80910  0.49835  0.34982  1.0000
  C   C1905     1.0  0.94190  0.69732  0.28151  1.0000
  N   N135      1.0  0.95416  0.56219  0.31509  1.0000
  C   C1906     1.0  0.82330  0.52429  0.26817  1.0000
  H   H3263     1.0  0.98080  0.88871  0.29179  1.0000
  C   C1907     1.0  0.76860  0.54052  0.34221  1.0000
  H   H3264     1.0  0.85570  0.51246  0.38688  1.0000
  C   C1908     1.0  0.93551  0.95598  0.30375  1.0000
  H   H3265     1.0  0.81834  0.53661  0.39654  1.0000
  H   H3266     1.0  0.91910  0.91519  0.32815  1.0000
  H   H3267     1.0  0.83371  0.54626  0.44157  1.0000
  C   C1909     1.0  0.97422  0.64119  0.25017  1.0000
  C   C1910     1.0  0.95360  0.52331  0.30659  1.0000
  H   H3268     1.0  0.76036  0.56638  0.47253  1.0000
  H   H3269     1.0  0.76495  0.52414  0.25097  1.0000
  H   H3270     1.0  0.97762  0.53371  0.32543  1.0000
  H   H3271     1.0  0.97894  0.68129  0.27814  1.0000
  C   C1911     1.0  0.81036  0.71257  0.25646  1.0000
  C   C1912     1.0  0.81081  0.56126  0.35735  1.0000
  H   H3272     1.0  0.96421  0.92769  0.29895  1.0000
  S   S562      1.0  0.73539  0.50437  0.23423  1.0000
  C   C1913     1.0  0.83524  0.50569  0.24826  1.0000
  S   S563      1.0  0.69658  0.57454  0.46077  1.0000
  H   H3273     1.0  0.82254  0.48519  0.35492  1.0000
  C   C1914     1.0  0.83696  0.54558  0.26306  1.0000
  H   H3274     1.0  0.86591  0.51774  0.43080  1.0000
  C   C1915     1.0  0.85604  0.49805  0.45819  1.0000
  H   H3275     1.0  0.87239  0.52983  0.44762  1.0000
  H   H3276     1.0  0.80469  0.89271  0.29257  1.0000
  Fe  Fe280     1.0  0.75532  0.49867  0.46805  1.0000
  C   C1916     1.0  0.94047  0.54810  0.30942  1.0000
  C   C1917     1.0  0.96138  0.54705  0.32776  1.0000
  C   C1918     1.0  0.84381  0.50432  0.39520  1.0000
  N   N136      1.0  0.97612  0.71494  0.26456  1.0000
  H   H3277     1.0  0.93890  0.68588  0.29144  1.0000
  H   H3278     1.0  0.93519  0.55786  0.29983  1.0000
  C   C1919     1.0  0.97982  0.71162  0.23951  1.0000
  H   H3279     1.0  0.78271  0.87575  0.31511  1.0000
  C   C1920     1.0  0.80018  0.74984  0.24118  1.0000
  C   C1921     1.0  0.82194  0.51090  0.44576  1.0000
  H   H3280     1.0  0.94721  0.53647  0.33317  1.0000
  H   H3281     1.0  0.82341  0.48579  0.33094  1.0000
  H   H3282     1.0  0.78855  0.54836  0.25771  1.0000
  H   H3283     1.0  0.82245  0.50741  0.37222  1.0000
  C   C1922     1.0  0.97130  0.75965  0.25355  1.0000
  N   N137      1.0  0.81642  0.73721  0.25104  1.0000
  C   C1923     1.0  0.71355  0.93029  0.23231  1.0000
  H   H3284     1.0  0.91767  0.95902  0.31003  1.0000
  C   C1924     1.0  0.95419  0.87800  0.32009  1.0000
  C   C1925     1.0  0.80293  0.95326  0.23057  1.0000
  H   H3285     1.0  0.76205  0.90363  0.31497  1.0000
  H   H3286     1.0  0.81012  0.54753  0.24294  1.0000
  H   H3287     1.0  0.69990  0.95585  0.47588  1.0000
  H   H3288     1.0  0.89830  0.48939  0.42284  1.0000
  H   H3289     1.0  0.84275  0.49584  0.46752  1.0000
  C   C1926     1.0  0.77487  0.89187  0.30871  1.0000
  C   C1927     1.0  0.98653  0.63639  0.27169  1.0000
  H   H3290     1.0  0.85112  0.91163  0.23826  1.0000
  C   C1928     1.0  0.65643  0.52286  0.43575  1.0000
  H   H3291     1.0  0.83578  0.50995  0.27328  1.0000
  H   H3292     1.0  0.81553  0.54523  0.34000  1.0000
  H   H3293     1.0  0.76443  0.88576  0.30255  1.0000
  H   H3294     1.0  0.85356  0.72183  0.25112  1.0000
  H   H3295     1.0  0.76379  0.51513  0.36002  1.0000
  C   C1929     1.0  0.96797  0.89154  0.27341  1.0000
  C   C1930     1.0  0.82267  0.51797  0.40071  1.0000
  H   H3296     1.0  0.97928  0.57222  0.33421  1.0000
  C   C1931     1.0  0.83374  0.92265  0.23970  1.0000
  H   H3297     1.0  0.94804  0.88081  0.31038  1.0000
  Fe  Fe281     1.0  0.71870  0.48706  0.45316  1.0000
  H   H3298     1.0  0.84457  0.92644  0.30039  1.0000
  C   C1932     1.0  0.93741  0.58459  0.31810  1.0000
  C   C1933     1.0  0.81368  0.74987  0.26273  1.0000
  C   C1934     1.0  0.85369  0.75675  0.23947  1.0000
  H   H3299     1.0  0.96969  0.74578  0.27463  1.0000
  C   C1935     1.0  0.81429  0.69577  0.24617  1.0000
  C   C1936     1.0  0.96554  0.74046  0.26575  1.0000
  H   H3300     1.0  0.84242  0.55059  0.27165  1.0000
  H   H3301     1.0  0.81011  0.94203  0.27985  1.0000
  C   C1937     1.0  0.96867  0.69968  0.27779  1.0000
  C   C1938     1.0  0.78866  0.95145  0.24318  1.0000
  H   H3302     1.0  0.92053  0.59506  0.29993  1.0000
  N   N138      1.0  0.81018  0.91452  0.30606  1.0000
  H   H3303     1.0  0.78246  0.74382  0.24393  1.0000
  H   H3304     1.0  0.95915  0.76126  0.24629  1.0000
  H   H3305     1.0  0.78459  0.91962  0.29269  1.0000
  C   C1939     1.0  0.82051  0.89570  0.31656  1.0000
  H   H3306     1.0  0.79545  0.53072  0.47502  1.0000
  H   H3307     1.0  0.82208  0.57434  0.35134  1.0000
  C   C1940     1.0  0.96865  0.89708  0.32104  1.0000
  C   C1941     1.0  0.83436  0.87251  0.31184  1.0000
  C   C1942     1.0  0.81626  0.53883  0.35074  1.0000
  H   H3308     1.0  0.73711  0.94962  0.23901  1.0000
  H   H3309     1.0  0.80388  0.54677  0.43940  1.0000
  H   H3310     1.0  0.79201  0.57016  0.35770  1.0000
  C   C1943     1.0  0.86372  0.52221  0.45759  1.0000
  H   H3311     1.0  0.93831  0.92803  0.35033  1.0000
  H   H3312     1.0  0.83358  0.90255  0.32072  1.0000
  H   H3313     1.0  0.80688  0.89119  0.32547  1.0000
  H   H3314     1.0  0.92378  0.94264  0.33057  1.0000
  H   H3315     1.0  0.83975  0.90784  0.29014  1.0000
  C   C1944     1.0  0.82228  0.53654  0.43807  1.0000
  C   C1945     1.0  0.80328  0.51238  0.37119  1.0000
  N   N139      1.0  0.84578  0.49489  0.44654  1.0000
  H   H3316     1.0  0.77104  0.49617  0.38015  1.0000
  H   H3317     1.0  0.65690  0.55126  0.45968  1.0000
  H   H3318     1.0  0.94104  0.51429  0.30337  1.0000
  C   C1946     1.0  0.78941  0.75036  0.27215  1.0000
  H   H3319     1.0  0.85209  0.87524  0.30599  1.0000
  H   H3320     1.0  0.82478  0.86523  0.30580  1.0000
  H   H3321     1.0  0.83675  0.85840  0.32066  1.0000
  C   C1947     1.0  0.79668  0.93486  0.25391  1.0000
  H   H3322     1.0  0.92081  0.57999  0.32484  1.0000
  S   S564      1.0  0.88612  0.67274  0.24537  1.0000
  H   H3323     1.0  0.78111  0.92864  0.32045  1.0000
  S   S565      1.0  0.85201  0.94913  0.33900  1.0000
  C   C1948     1.0  0.79559  0.93491  0.31255  1.0000
  C   C1949     1.0  0.98893  0.82479  0.25824  1.0000
  S   S566      1.0  0.71508  0.50365  0.47158  1.0000
  H   H3324     1.0  0.94576  0.74268  0.26782  1.0000
  H   H3325     1.0  0.92924  0.95971  0.38143  1.0000
  H   H3326     1.0  0.96015  0.95582  0.32472  1.0000
  C   C1950     1.0  0.77477  0.52949  0.35609  1.0000
  Fe  Fe282     1.0  0.86922  0.97580  0.34531  1.0000
  C   C1951     1.0  0.96660  0.70683  0.25400  1.0000
  H   H3327     1.0  0.78280  0.78351  0.24823  1.0000
  H   H3328     1.0  0.85698  0.55919  0.22994  1.0000
  H   H3329     1.0  0.80662  0.67942  0.25095  1.0000
  H   H3330     1.0  0.81095  0.51667  0.32867  1.0000
  C   C1952     1.0  0.80935  0.94779  0.31937  1.0000
  Fe  Fe283     1.0  0.71725  0.53810  0.45753  1.0000
  H   H3331     1.0  0.82579  0.56165  0.25840  1.0000
  H   H3332     1.0  0.97892  0.92241  0.34228  1.0000
  C   C1953     1.0  0.82392  0.94445  0.28520  1.0000
  H   H3333     1.0  0.84003  0.94715  0.27757  1.0000
  H   H3334     1.0  0.91763  0.61799  0.30942  1.0000
  H   H3335     1.0  0.79534  0.48666  0.38910  1.0000
  C   C1954     1.0  0.97314  0.89674  0.25950  1.0000
  H   H3336     1.0  0.93869  0.87675  0.32828  1.0000
  H   H3337     1.0  0.93609  0.68850  0.27446  1.0000
  C   C1955     1.0  0.72600  0.93553  0.24292  1.0000
  H   H3338     1.0  0.98058  0.59833  0.31315  1.0000
  H   H3339     1.0  0.81521  0.93614  0.32837  1.0000
  H   H3340     1.0  0.85248  0.76725  0.24745  1.0000
  H   H3341     1.0  0.87359  0.94675  0.31147  1.0000
  H   H3342     1.0  0.82779  0.53666  0.42719  1.0000
  H   H3343     1.0  0.92346  0.54532  0.31628  1.0000
  H   H3344     1.0  0.76989  0.92111  0.23077  1.0000
  H   H3345     1.0  0.91785  0.90818  0.35073  1.0000
  H   H3346     1.0  0.83532  0.53122  0.35110  1.0000
  H   H3347     1.0  0.84462  0.52032  0.24232  1.0000
  H   H3348     1.0  0.78632  0.94846  0.30526  1.0000
  H   H3349     1.0  0.98140  0.73053  0.23589  1.0000
  C   C1956     1.0  0.92307  0.97397  0.38763  1.0000
  H   H3350     1.0  0.82756  0.74145  0.26896  1.0000
  N   N140      1.0  0.81401  0.51543  0.25778  1.0000
  H   H3351     1.0  0.79415  0.48849  0.35048  1.0000
  C   C1957     1.0  0.84223  0.73411  0.24433  1.0000
  H   H3352     1.0  0.94636  0.96909  0.30468  1.0000
  H   H3353     1.0  0.77276  0.52717  0.33549  1.0000
  H   H3354     1.0  0.85360  0.54102  0.25603  1.0000
  H   H3355     1.0  0.77750  0.55613  0.33761  1.0000
  S   S567      1.0  0.88785  0.96947  0.36302  1.0000
  H   H3356     1.0  0.94951  0.56944  0.34335  1.0000
  H   H3357     1.0  0.78731  0.76417  0.27849  1.0000
  H   H3358     1.0  0.80836  0.52971  0.27614  1.0000
  H   H3359     1.0  0.96862  0.77708  0.25692  1.0000
  H   H3360     1.0  0.97297  0.70655  0.28614  1.0000
  H   H3361     1.0  0.86082  0.59526  0.23812  1.0000
  C   C1958     1.0  0.82122  0.50247  0.33505  1.0000
  H   H3362     1.0  0.78979  0.49066  0.25834  1.0000
  H   H3363     1.0  0.70004  0.94631  0.22970  1.0000
  H   H3364     1.0  0.81808  0.96092  0.28963  1.0000
  H   H3365     1.0  0.83945  0.50660  0.33414  1.0000
  C   C1959     1.0  0.93013  0.60254  0.30588  1.0000
  H   H3366     1.0  0.76774  0.54309  0.36269  1.0000
  H   H3367     1.0  0.71214  0.94208  0.25101  1.0000
  H   H3368     1.0  0.83353  0.68976  0.24279  1.0000
  N   N141      1.0  0.80075  0.51998  0.35669  1.0000
  C   C1960     1.0  0.83044  0.49241  0.23789  1.0000
  H   H3369     1.0  0.93247  0.95968  0.29325  1.0000
  H   H3370     1.0  0.93874  0.60023  0.23112  1.0000
  H   H3371     1.0  0.74907  0.54703  0.34321  1.0000
  C   C1961     1.0  0.67572  0.58067  0.47510  1.0000
  H   H3372     1.0  0.85406  0.49682  0.42517  1.0000
  H   H3373     1.0  0.98452  0.89650  0.31293  1.0000
  H   H3374     1.0  0.84913  0.49388  0.25366  1.0000
  C   C1962     1.0  0.79465  0.77731  0.23937  1.0000
  H   H3375     1.0  0.96900  0.52463  0.29836  1.0000
  H   H3376     1.0  0.67054  0.51279  0.45418  1.0000
  H   H3377     1.0  0.87308  0.75132  0.23601  1.0000
  H   H3378     1.0  0.97625  0.89060  0.33032  1.0000
  Fe  Fe284     1.0  0.93826  0.48547  0.35279  1.0000
  H   H3379     1.0  0.98242  0.63259  0.28245  1.0000
  H   H3380     1.0  0.97492  0.83991  0.25526  1.0000
  H   H3381     1.0  0.75860  0.59774  0.46992  1.0000
  H   H3382     1.0  0.93919  0.57019  0.22979  1.0000
  H   H3383     1.0  0.95643  0.96602  0.40995  1.0000
  H   H3384     1.0  0.78547  0.97228  0.40611  1.0000
  H   H3385     1.0  0.90387  0.98024  0.38707  1.0000
  H   H3386     1.0  0.77604  0.88972  0.23487  1.0000
  C   C1963     1.0  0.98479  0.89310  0.28109  1.0000
  H   H3387     1.0  0.97105  0.57440  0.29481  1.0000
  C   C1964     1.0  0.97581  0.56730  0.30490  1.0000
  H   H3388     1.0  0.66245  0.54042  0.43321  1.0000
  H   H3389     1.0  0.97504  0.98153  0.39629  1.0000
  S   S568      1.0  0.97725  0.48862  0.34424  1.0000
  H   H3390     1.0  0.73895  0.88833  0.23123  1.0000
  H   H3391     1.0  0.98283  0.94397  0.31243  1.0000
  C   C1965     1.0  0.82547  0.93880  0.22890  1.0000
  H   H3392     1.0  0.81078  0.78576  0.23721  1.0000
  H   H3393     1.0  0.80754  0.74504  0.23113  1.0000
  H   H3394     1.0  0.98830  0.55047  0.30348  1.0000
  H   H3395     1.0  0.87126  0.48368  0.46036  1.0000
  H   H3396     1.0  0.89676  0.48400  0.44052  1.0000
  C   C1966     1.0  0.88717  0.48313  0.43246  1.0000
  C   C1967     1.0  0.83594  0.61877  0.22663  1.0000
  C   C1968     1.0  0.77078  0.90458  0.22690  1.0000
  C   C1969     1.0  0.84635  0.57607  0.22668  1.0000
  C   C1970     1.0  0.67954  0.92837  0.48664  1.0000
  Fe  Fe285     1.0  0.71490  0.93033  0.61554  1.0000
  S   S569      1.0  0.74403  0.89895  0.61880  1.0000
  S   S570      1.0  0.70490  0.96160  0.62716  1.0000
  Fe  Fe286     1.0  0.70835  0.91712  0.58912  1.0000
  S   S571      1.0  0.73732  0.88529  0.59053  1.0000
  Fe  Fe287     1.0  0.72103  0.87798  0.61204  1.0000
  S   S572      1.0  0.71652  0.84031  0.62256  1.0000
  Fe  Fe288     1.0  0.75768  0.90875  0.59698  1.0000
  S   S573      1.0  0.79608  0.90980  0.58764  1.0000
  S   S574      1.0  0.69032  0.90869  0.61046  1.0000
  S   S575      1.0  0.73019  0.94113  0.59391  1.0000
  Fe  Fe289     1.0  0.71877  0.66595  0.61977  1.0000
  S   S576      1.0  0.75130  0.68305  0.61744  1.0000
  S   S577      1.0  0.69978  0.64802  0.63941  1.0000
  Fe  Fe290     1.0  0.72053  0.67092  0.58969  1.0000
  S   S578      1.0  0.75346  0.68777  0.58531  1.0000
  C   C1971     1.0  0.71894  0.93071  0.51100  1.0000
  Fe  Fe291     1.0  0.76644  0.66010  0.60170  1.0000
  S   S579      1.0  0.80149  0.63479  0.60145  1.0000
  Fe  Fe292     1.0  0.73513  0.70968  0.60122  1.0000
  S   S580      1.0  0.73718  0.74924  0.59384  1.0000
  S   S581      1.0  0.73494  0.64160  0.60494  1.0000
  S   S582      1.0  0.70115  0.69424  0.60465  1.0000
  H   H3397     1.0  0.68378  0.78929  0.59616  1.0000
  Fe  Fe293     1.0  0.74862  0.56140  0.70105  1.0000
  S   S583      1.0  0.77458  0.54894  0.71556  1.0000
  S   S584      1.0  0.75877  0.59213  0.68489  1.0000
  Fe  Fe294     1.0  0.77149  0.51210  0.71303  1.0000
  H   H3398     1.0  0.96890  0.96760  0.54968  1.0000
  H   H3399     1.0  0.74071  0.95779  0.50725  1.0000
  S   S585      1.0  0.74767  0.52467  0.69761  1.0000
  S   S586      1.0  0.71613  0.56182  0.71706  1.0000
  C   C1972     1.0  0.96898  0.49285  0.57527  1.0000
  C   C1973     1.0  0.79165  0.59333  0.53686  1.0000
  Fe  Fe295     1.0  0.86312  0.56989  0.54366  1.0000
  S   S587      1.0  0.88430  0.56167  0.52417  1.0000
  S   S588      1.0  0.84952  0.60870  0.54478  1.0000
  Fe  Fe296     1.0  0.86537  0.51778  0.55538  1.0000
  S   S589      1.0  0.88641  0.50552  0.53653  1.0000
  Fe  Fe297     1.0  0.90786  0.53422  0.53640  1.0000
  S   S590      1.0  0.94851  0.52962  0.53054  1.0000
  Fe  Fe298     1.0  0.86080  0.53421  0.52588  1.0000
  S   S591      1.0  0.84464  0.53864  0.50682  1.0000
  S   S592      1.0  0.88825  0.54458  0.55583  1.0000
  S   S593      1.0  0.83832  0.54426  0.54485  1.0000
  H   H3400     1.0  0.66253  0.84762  0.56321  1.0000
  C   C1974     1.0  0.96864  0.54016  0.53790  1.0000
  C   C1975     1.0  0.96132  0.54997  0.54959  1.0000
  H   H3401     1.0  0.94296  0.55080  0.55455  1.0000
  C   C1976     1.0  0.79427  0.50165  0.49151  1.0000
  H   H3402     1.0  0.71787  0.54620  0.48688  1.0000
  C   C1977     1.0  0.81735  0.50309  0.50867  1.0000
  C   C1978     1.0  0.82494  0.52405  0.50140  1.0000
  C   C1979     1.0  0.81686  0.53385  0.48923  1.0000
  H   H3403     1.0  0.79632  0.61612  0.54978  1.0000
  H   H3404     1.0  0.77252  0.58396  0.65423  1.0000
  H   H3405     1.0  0.92252  0.67135  0.51298  1.0000
  C   C1980     1.0  0.80596  0.93594  0.58878  1.0000
  H   H3406     1.0  0.82319  0.61391  0.63290  1.0000
  C   C1981     1.0  0.68302  0.79335  0.58533  1.0000
  H   H3407     1.0  0.77347  0.60280  0.59022  1.0000
  C   C1982     1.0  0.80224  0.97049  0.59930  1.0000
  H   H3408     1.0  0.69295  0.65446  0.54914  1.0000
  H   H3409     1.0  0.97186  0.56678  0.56376  1.0000
  C   C1983     1.0  0.73119  0.54255  0.49373  1.0000
  H   H3410     1.0  0.75883  0.65510  0.55267  1.0000
  H   H3411     1.0  0.71306  0.96745  0.50164  1.0000
  H   H3412     1.0  0.92469  0.65567  0.53507  1.0000
  H   H3413     1.0  0.78377  0.55952  0.61698  1.0000
  H   H3414     1.0  0.72908  0.93120  0.67131  1.0000
  C   C1984     1.0  0.97713  0.96846  0.55832  1.0000
  C   C1985     1.0  0.78797  0.60007  0.55085  1.0000
  H   H3415     1.0  0.67492  0.96714  0.54729  1.0000
  H   H3416     1.0  0.70486  0.73128  0.56904  1.0000
  H   H3417     1.0  0.97923  0.95034  0.56429  1.0000
  C   C1986     1.0  0.97776  0.55889  0.55483  1.0000
  C   C1987     1.0  0.81547  0.62790  0.58571  1.0000
  C   C1988     1.0  0.81208  0.64417  0.57409  1.0000
  C   C1989     1.0  0.82316  0.63831  0.56161  1.0000
  C   C1990     1.0  0.83709  0.61589  0.56064  1.0000
  C   C1991     1.0  0.84046  0.59954  0.57224  1.0000
  C   C1992     1.0  0.82997  0.60570  0.58477  1.0000
  H   H3418     1.0  0.80119  0.66143  0.57474  1.0000
  H   H3419     1.0  0.82059  0.65106  0.55266  1.0000
  H   H3420     1.0  0.85120  0.58220  0.57157  1.0000
  H   H3421     1.0  0.83271  0.59306  0.59373  1.0000
  H   H3422     1.0  0.73267  0.60203  0.49058  1.0000
  S   S594      1.0  0.85144  0.49559  0.57483  1.0000
  C   C1993     1.0  0.82182  0.97797  0.59023  1.0000
  H   H3423     1.0  0.72907  0.62715  0.55547  1.0000
  H   H3424     1.0  0.81086  0.59250  0.53241  1.0000
  C   C1994     1.0  0.71613  0.63270  0.65211  1.0000
  C   C1995     1.0  0.73821  0.63821  0.65281  1.0000
  C   C1996     1.0  0.75081  0.62583  0.66304  1.0000
  C   C1997     1.0  0.74162  0.60764  0.67259  1.0000
  C   C1998     1.0  0.71952  0.60212  0.67195  1.0000
  C   C1999     1.0  0.70675  0.61476  0.66179  1.0000
  H   H3425     1.0  0.74550  0.65214  0.64551  1.0000
  H   H3426     1.0  0.76786  0.63027  0.66349  1.0000
  H   H3427     1.0  0.71223  0.58818  0.67926  1.0000
  H   H3428     1.0  0.68960  0.61050  0.66136  1.0000
  H   H3429     1.0  0.77868  0.94435  0.60535  1.0000
  H   H3430     1.0  0.74287  0.65934  0.53922  1.0000
  C   C2000     1.0  0.75639  0.64671  0.54447  1.0000
  S   S595      1.0  0.73014  0.97185  0.68280  1.0000
  C   C2001     1.0  0.72173  0.81522  0.61442  1.0000
  C   C2002     1.0  0.71730  0.79302  0.62187  1.0000
  C   C2003     1.0  0.72214  0.77250  0.61582  1.0000
  C   C2004     1.0  0.73157  0.77402  0.60225  1.0000
  C   C2005     1.0  0.73605  0.79622  0.59483  1.0000
  C   C2006     1.0  0.73101  0.81672  0.60083  1.0000
  H   H3431     1.0  0.71016  0.79164  0.63240  1.0000
  H   H3432     1.0  0.71850  0.75557  0.62165  1.0000
  H   H3433     1.0  0.74336  0.79757  0.58432  1.0000
  H   H3434     1.0  0.73467  0.83358  0.59497  1.0000
  H   H3435     1.0  0.79206  0.58632  0.57819  1.0000
  C   C2007     1.0  0.80154  0.52284  0.48434  1.0000
  H   H3436     1.0  0.78022  0.52272  0.64300  1.0000
  C   C2008     1.0  0.71434  0.96394  0.64210  1.0000
  H   H3437     1.0  0.74373  0.61950  0.57537  1.0000
  C   C2009     1.0  0.76224  0.61253  0.57085  1.0000
  C   C2010     1.0  0.81019  0.97273  0.72433  1.0000
  H   H3438     1.0  0.82255  0.55011  0.48354  1.0000
  C   C2011     1.0  0.74718  0.62279  0.54966  1.0000
  H   H3439     1.0  0.77196  0.62788  0.56899  1.0000
  H   H3440     1.0  0.77324  0.64487  0.53721  1.0000
  N   N142      1.0  0.93399  0.61755  0.53454  1.0000
  C   C2012     1.0  0.92819  0.61300  0.54959  1.0000
  H   H3441     1.0  0.69897  0.80075  0.57979  1.0000
  H   H3442     1.0  0.66696  0.65936  0.59041  1.0000
  C   C2013     1.0  0.67870  0.65396  0.55763  1.0000
  H   H3443     1.0  0.74865  0.53679  0.48761  1.0000
  H   H3444     1.0  0.67954  0.91556  0.54701  1.0000
  S   S596      1.0  0.77562  0.48649  0.48565  1.0000
  C   C2014     1.0  0.75185  0.55944  0.50696  1.0000
  H   H3445     1.0  0.93937  0.59639  0.55373  1.0000
  H   H3446     1.0  0.93241  0.62748  0.55384  1.0000
  C   C2015     1.0  0.76056  0.62804  0.71133  1.0000
  H   H3447     1.0  0.94482  0.64702  0.50987  1.0000
  H   H3448     1.0  0.75501  0.59756  0.50538  1.0000
  C   C2016     1.0  0.66343  0.86182  0.59994  1.0000
  C   C2017     1.0  0.92608  0.65157  0.51464  1.0000
  C   C2018     1.0  0.69553  0.84638  0.56963  1.0000
  C   C2019     1.0  0.97264  0.63204  0.53615  1.0000
  C   C2020     1.0  0.93783  0.59293  0.51558  1.0000
  H   H3449     1.0  0.71247  0.60382  0.51370  1.0000
  H   H3450     1.0  0.71379  0.59345  0.56301  1.0000
  H   H3451     1.0  0.70792  0.55904  0.51830  1.0000
  H   H3452     1.0  0.71997  0.66878  0.69547  1.0000
  H   H3453     1.0  0.75946  0.97742  0.57510  1.0000
  C   C2021     1.0  0.72184  0.95443  0.53453  1.0000
  H   H3454     1.0  0.80216  0.60529  0.64729  1.0000
  H   H3455     1.0  0.69319  0.56544  0.50434  1.0000
  H   H3456     1.0  0.67418  0.54407  0.48387  1.0000
  H   H3457     1.0  0.67462  0.74180  0.57487  1.0000
  H   H3458     1.0  0.67778  0.69888  0.53700  1.0000
  C   C2022     1.0  0.72136  0.95694  0.51025  1.0000
  H   H3459     1.0  0.71051  0.66702  0.72077  1.0000
  C   C2023     1.0  0.74915  0.95154  0.53299  1.0000
  C   C2024     1.0  0.68495  0.95165  0.48354  1.0000
  H   H3460     1.0  0.97149  0.49772  0.58456  1.0000
  H   H3461     1.0  0.65777  0.80868  0.57218  1.0000
  H   H3462     1.0  0.74030  0.64503  0.68813  1.0000
  C   C2025     1.0  0.68268  0.65732  0.56997  1.0000
  H   H3463     1.0  0.68335  0.82775  0.59724  1.0000
  C   C2026     1.0  0.66800  0.85021  0.57242  1.0000
  H   H3464     1.0  0.89637  0.59553  0.55295  1.0000
  H   H3465     1.0  0.75929  0.60842  0.63522  1.0000
  C   C2027     1.0  0.67086  0.96944  0.49027  1.0000
  H   H3466     1.0  0.80995  0.54011  0.64934  1.0000
  C   C2028     1.0  0.75744  0.58038  0.51219  1.0000
  N   N143      1.0  0.78307  0.57470  0.63454  1.0000
  C   C2029     1.0  0.69914  0.59622  0.51034  1.0000
  H   H3467     1.0  0.77669  0.57692  0.51306  1.0000
  H   H3468     1.0  0.88947  0.62729  0.55312  1.0000
  H   H3469     1.0  0.90170  0.64288  0.53231  1.0000
  H   H3470     1.0  0.79023  0.53935  0.66485  1.0000
  H   H3471     1.0  0.70918  0.64808  0.68852  1.0000
  H   H3472     1.0  0.72551  0.60103  0.62822  1.0000
  C   C2030     1.0  0.72513  0.96949  0.66675  1.0000
  C   C2031     1.0  0.78728  0.55357  0.62740  1.0000
  H   H3473     1.0  0.71769  0.49000  0.69279  1.0000
  N   N144      1.0  0.79723  0.83005  0.61683  1.0000
  C   C2032     1.0  0.79328  0.84948  0.60505  1.0000
  C   C2033     1.0  0.78495  0.84009  0.62925  1.0000
  C   C2034     1.0  0.78618  0.80927  0.61550  1.0000
  C   C2035     1.0  0.82376  0.82295  0.61650  1.0000
  C   C2036     1.0  0.80197  0.84228  0.59112  1.0000
  C   C2037     1.0  0.79463  0.86128  0.63196  1.0000
  C   C2038     1.0  0.77577  0.79373  0.62843  1.0000
  C   C2039     1.0  0.83162  0.80458  0.62834  1.0000
  H   H3474     1.0  0.77394  0.85698  0.60566  1.0000
  H   H3475     1.0  0.80245  0.86458  0.60499  1.0000
  H   H3476     1.0  0.78589  0.82644  0.63835  1.0000
  H   H3477     1.0  0.76549  0.84587  0.62894  1.0000
  H   H3478     1.0  0.77087  0.81567  0.61007  1.0000
  H   H3479     1.0  0.79903  0.79721  0.60933  1.0000
  H   H3480     1.0  0.83235  0.81514  0.60743  1.0000
  H   H3481     1.0  0.83220  0.83890  0.61578  1.0000
  H   H3482     1.0  0.79364  0.82756  0.58970  1.0000
  H   H3483     1.0  0.79679  0.85785  0.58349  1.0000
  H   H3484     1.0  0.82168  0.83771  0.58891  1.0000
  H   H3485     1.0  0.81341  0.85631  0.63360  1.0000
  H   H3486     1.0  0.79292  0.87707  0.62400  1.0000
  H   H3487     1.0  0.78387  0.86703  0.64124  1.0000
  H   H3488     1.0  0.75916  0.80363  0.63351  1.0000
  H   H3489     1.0  0.78840  0.78705  0.63553  1.0000
  H   H3490     1.0  0.77065  0.77801  0.62582  1.0000
  H   H3491     1.0  0.82457  0.81075  0.63801  1.0000
  H   H3492     1.0  0.85141  0.80170  0.62716  1.0000
  H   H3493     1.0  0.82655  0.78711  0.62853  1.0000
  C   C2040     1.0  0.83360  0.96429  0.58048  1.0000
  H   H3494     1.0  0.76360  0.60995  0.70860  1.0000
  H   H3495     1.0  0.79914  0.58562  0.55674  1.0000
  H   H3496     1.0  0.76487  0.56628  0.56569  1.0000
  H   H3497     1.0  0.78727  0.57543  0.53733  1.0000
  C   C2041     1.0  0.72572  0.52044  0.50416  1.0000
  C   C2042     1.0  0.72522  0.94678  0.66391  1.0000
  C   C2043     1.0  0.70784  0.57017  0.50824  1.0000
  S   S597      1.0  0.69503  0.92630  0.56929  1.0000
  C   C2044     1.0  0.79402  0.94979  0.59842  1.0000
  H   H3498     1.0  0.79234  0.62351  0.63238  1.0000
  C   C2045     1.0  0.77333  0.59393  0.58172  1.0000
  H   H3499     1.0  0.70020  0.63703  0.71204  1.0000
  C   C2046     1.0  0.75280  0.58110  0.56057  1.0000
  H   H3500     1.0  0.74412  0.61605  0.54096  1.0000
  S   S598      1.0  0.71071  0.66367  0.57098  1.0000
  C   C2047     1.0  0.66406  0.65684  0.58085  1.0000
  H   H3501     1.0  0.80994  0.59022  0.61952  1.0000
  H   H3502     1.0  0.68285  0.59696  0.51812  1.0000
  N   N145      1.0  0.76254  0.60409  0.55798  1.0000
  H   H3503     1.0  0.92823  0.58074  0.51252  1.0000
  H   H3504     1.0  0.75844  0.94167  0.52483  1.0000
  H   H3505     1.0  0.75215  0.57556  0.55103  1.0000
  H   H3506     1.0  0.66043  0.97674  0.69164  1.0000
  C   C2048     1.0  0.72726  0.58167  0.56864  1.0000
  C   C2049     1.0  0.79789  0.55158  0.65607  1.0000
  H   H3507     1.0  0.93833  0.60870  0.50765  1.0000
  H   H3508     1.0  0.73968  0.67156  0.71250  1.0000
  H   H3509     1.0  0.95623  0.58313  0.51607  1.0000
  H   H3510     1.0  0.81768  0.97426  0.55167  1.0000
  C   C2050     1.0  0.80223  0.49193  0.50371  1.0000
  H   H3511     1.0  0.83524  0.93239  0.57247  1.0000
  H   H3512     1.0  0.79314  0.98095  0.60690  1.0000
  H   H3513     1.0  0.74000  0.51365  0.51030  1.0000
  C   C2051     1.0  0.80540  0.60830  0.63626  1.0000
  H   H3514     1.0  0.78048  0.64656  0.72083  1.0000
  H   H3515     1.0  0.78161  0.60670  0.52994  1.0000
  H   H3516     1.0  0.84883  0.96986  0.57352  1.0000
  H   H3517     1.0  0.96409  0.98086  0.56414  1.0000
  H   H3518     1.0  0.89209  0.48600  0.66433  1.0000
  H   H3519     1.0  0.70810  0.52362  0.51061  1.0000
  C   C2052     1.0  0.80560  0.58562  0.63059  1.0000
  C   C2053     1.0  0.76315  0.59328  0.62967  1.0000
  H   H3520     1.0  0.76277  0.57935  0.58571  1.0000
  H   H3521     1.0  0.96676  0.61791  0.51985  1.0000
  C   C2054     1.0  0.66754  0.56246  0.48489  1.0000
  C   C2055     1.0  0.96080  0.61522  0.53078  1.0000
  C   C2056     1.0  0.92510  0.59897  0.52934  1.0000
  H   H3522     1.0  0.79751  0.62143  0.71408  1.0000
  H   H3523     1.0  0.68403  0.77599  0.58218  1.0000
  C   C2057     1.0  0.73901  0.58516  0.63084  1.0000
  S   S599      1.0  0.68430  0.50828  0.71556  1.0000
  H   H3524     1.0  0.67479  0.87237  0.59197  1.0000
  H   H3525     1.0  0.82343  0.49528  0.51802  1.0000
  C   C2058     1.0  0.75830  0.58164  0.47776  1.0000
  H   H3526     1.0  0.79372  0.96645  0.72352  1.0000
  C   C2059     1.0  0.90203  0.61072  0.55573  1.0000
  H   H3527     1.0  0.76852  0.60105  0.61901  1.0000
  H   H3528     1.0  0.74848  0.54561  0.51591  1.0000
  H   H3529     1.0  0.70390  0.84102  0.57865  1.0000
  H   H3530     1.0  0.67048  0.86041  0.60930  1.0000
  H   H3531     1.0  0.90025  0.60721  0.56677  1.0000
  C   C2060     1.0  0.92140  0.64215  0.52972  1.0000
  H   H3532     1.0  0.95619  0.50770  0.57078  1.0000
  Fe  Fe299     1.0  0.71759  0.52365  0.71516  1.0000
  H   H3533     1.0  0.67031  0.97683  0.66996  1.0000
  H   H3534     1.0  0.96930  0.59670  0.53429  1.0000
  H   H3535     1.0  0.72265  0.56348  0.57060  1.0000
  H   H3536     1.0  0.80863  0.56234  0.65947  1.0000
  H   H3537     1.0  0.69366  0.60763  0.50116  1.0000
  H   H3538     1.0  0.71462  0.96331  0.54338  1.0000
  H   H3539     1.0  0.79567  0.50176  0.68438  1.0000
  H   H3540     1.0  0.91412  0.64529  0.50944  1.0000
  H   H3541     1.0  0.76862  0.55097  0.50124  1.0000
  H   H3542     1.0  0.75387  0.53889  0.63668  1.0000
  C   C2061     1.0  0.68131  0.72727  0.55592  1.0000
  H   H3543     1.0  0.68141  0.94760  0.52771  1.0000
  H   H3544     1.0  0.82132  0.57261  0.63347  1.0000
  N   N146      1.0  0.73149  0.56467  0.49922  1.0000
  H   H3545     1.0  0.72543  0.58716  0.57845  1.0000
  H   H3546     1.0  0.82562  0.96484  0.71750  1.0000
  H   H3547     1.0  0.73221  0.57699  0.64114  1.0000
  H   H3548     1.0  0.76122  0.55950  0.65275  1.0000
  H   H3549     1.0  0.75520  0.96891  0.53157  1.0000
  H   H3550     1.0  0.66660  0.74408  0.53297  1.0000
  C   C2062     1.0  0.72983  0.65970  0.72062  1.0000
  C   C2063     1.0  0.80807  0.48525  0.68416  1.0000
  C   C2064     1.0  0.82594  0.94307  0.57993  1.0000
  C   C2065     1.0  0.77752  0.56787  0.64946  1.0000
  N   N147      1.0  0.71084  0.96779  0.52262  1.0000
  C   C2066     1.0  0.66462  0.83651  0.59711  1.0000
  H   H3551     1.0  0.90564  0.60405  0.52893  1.0000
  H   H3552     1.0  0.92683  0.58163  0.53626  1.0000
  H   H3553     1.0  0.71689  0.93631  0.53754  1.0000
  H   H3554     1.0  0.70018  0.92854  0.51150  1.0000
  H   H3555     1.0  0.72518  0.50581  0.49886  1.0000
  H   H3556     1.0  0.72898  0.92458  0.50167  1.0000
  H   H3557     1.0  0.71992  0.92640  0.64972  1.0000
  H   H3558     1.0  0.73987  0.57314  0.62366  1.0000
  H   H3559     1.0  0.70148  0.86358  0.56475  1.0000
  H   H3560     1.0  0.75479  0.94094  0.54233  1.0000
  H   H3561     1.0  0.80642  0.54503  0.62616  1.0000
  H   H3562     1.0  0.74662  0.58223  0.52215  1.0000
  C   C2067     1.0  0.71948  0.63294  0.70785  1.0000
  H   H3563     1.0  0.72660  0.91878  0.51938  1.0000
  H   H3564     1.0  0.77574  0.52037  0.62688  1.0000
  H   H3565     1.0  0.70278  0.83318  0.56285  1.0000
  C   C2068     1.0  0.77326  0.53299  0.63397  1.0000
  C   C2069     1.0  0.72009  0.94397  0.65164  1.0000
  H   H3566     1.0  0.81362  0.48859  0.66276  1.0000
  H   H3567     1.0  0.77388  0.58000  0.48277  1.0000
  C   C2070     1.0  0.77977  0.62822  0.71958  1.0000
  H   H3568     1.0  0.76507  0.64037  0.70190  1.0000
  C   C2071     1.0  0.66488  0.91484  0.55527  1.0000
  H   H3569     1.0  0.97167  0.62745  0.54712  1.0000
  C   C2072     1.0  0.65946  0.80952  0.58255  1.0000
  C   C2073     1.0  0.68453  0.96634  0.52567  1.0000
  C   C2074     1.0  0.67004  0.97749  0.53774  1.0000
  C   C2075     1.0  0.72272  0.64984  0.69432  1.0000
  H   H3570     1.0  0.66162  0.86944  0.57266  1.0000
  H   H3571     1.0  0.69028  0.91473  0.48126  1.0000
  C   C2076     1.0  0.73442  0.58454  0.48748  1.0000
  H   H3572     1.0  0.96506  0.65101  0.53324  1.0000
  H   H3573     1.0  0.71978  0.58685  0.48159  1.0000
  H   H3574     1.0  0.67598  0.97523  0.51688  1.0000
  H   H3575     1.0  0.72243  0.61443  0.70572  1.0000
  N   N148      1.0  0.73488  0.63460  0.71768  1.0000
  H   H3576     1.0  0.79261  0.96423  0.56273  1.0000
  C   C2077     1.0  0.66778  0.91890  0.56768  1.0000
  N   N149      1.0  0.65611  0.83511  0.58452  1.0000
  H   H3577     1.0  0.68268  0.98139  0.69984  1.0000
  H   H3578     1.0  0.68885  0.70893  0.55395  1.0000
  H   H3579     1.0  0.67581  0.77591  0.55402  1.0000
  H   H3580     1.0  0.69273  0.73850  0.54834  1.0000
  H   H3581     1.0  0.89904  0.48619  0.68508  1.0000
  H   H3582     1.0  0.68475  0.71030  0.57652  1.0000
  C   C2078     1.0  0.68643  0.72765  0.56990  1.0000
  C   C2079     1.0  0.65602  0.65095  0.55604  1.0000
  C   C2080     1.0  0.66026  0.92268  0.49662  1.0000
  H   H3583     1.0  0.79021  0.97801  0.54572  1.0000
  C   C2081     1.0  0.79798  0.97855  0.55454  1.0000
  H   H3584     1.0  0.89332  0.48298  0.70756  1.0000
  C   C2082     1.0  0.66700  0.60449  0.47661  1.0000
  H   H3585     1.0  0.98870  0.98030  0.58134  1.0000
  H   H3586     1.0  0.65917  0.71094  0.52467  1.0000
  C   C2083     1.0  0.65868  0.77803  0.55036  1.0000
  H   H3587     1.0  0.66194  0.77950  0.53937  1.0000
  C   C2084     1.0  0.65976  0.70844  0.53550  1.0000
  H   H3588     1.0  0.82482  0.97584  0.76241  1.0000
  H   H3589     1.0  0.82474  0.67816  0.81221  1.0000
  Fe  Fe300     1.0  0.75088  0.50303  0.95233  1.0000
  S   S600      1.0  0.73611  0.53217  0.96447  1.0000
  H   H3590     1.0  0.78685  0.65417  0.86648  1.0000
  Fe  Fe301     1.0  0.71580  0.52258  0.93231  1.0000
  S   S601      1.0  0.69830  0.55329  0.94303  1.0000
  S   S602      1.0  0.71076  0.51438  0.91247  1.0000
  Fe  Fe302     1.0  0.73584  0.55661  0.94459  1.0000
  S   S603      1.0  0.74763  0.59289  0.94091  1.0000
  Fe  Fe303     1.0  0.69997  0.52657  0.96205  1.0000
  S   S604      1.0  0.75317  0.52791  0.93267  1.0000
  S   S605      1.0  0.71497  0.49550  0.95113  1.0000
  Fe  Fe304     1.0  0.88967  0.86437  0.88031  1.0000
  S   S606      1.0  0.86533  0.86789  0.89973  1.0000
  S   S607      1.0  0.87785  0.84631  0.86598  1.0000
  Fe  Fe305     1.0  0.93129  0.87857  0.88984  1.0000
  S   S608      1.0  0.91003  0.88242  0.91012  1.0000
  S   S609      1.0  0.97001  0.88271  0.88204  1.0000
  Fe  Fe306     1.0  0.89716  0.84865  0.90892  1.0000
  S   S610      1.0  0.89770  0.81357  0.92303  1.0000
  Fe  Fe307     1.0  0.88002  0.90126  0.89892  1.0000
  S   S611      1.0  0.85638  0.93758  0.89938  1.0000
  S   S612      1.0  0.92075  0.84375  0.88958  1.0000
  S   S613      1.0  0.90222  0.89909  0.87856  1.0000
  Fe  Fe308     1.0  0.86176  0.65225  0.90230  1.0000
  S   S614      1.0  0.88874  0.65060  0.88349  1.0000
  S   S615      1.0  0.84893  0.61658  0.91025  1.0000
  Fe  Fe309     1.0  0.86344  0.70520  0.90072  1.0000
  S   S616      1.0  0.89030  0.70675  0.88195  1.0000
  S   S617      1.0  0.84532  0.74115  0.90584  1.0000
  Fe  Fe310     1.0  0.86800  0.68532  0.87541  1.0000
  S   S618      1.0  0.85531  0.69771  0.85562  1.0000
  Fe  Fe311     1.0  0.90878  0.67201  0.89192  1.0000
  S   S619      1.0  0.94923  0.66069  0.88916  1.0000
  S   S620      1.0  0.83982  0.68582  0.89353  1.0000
  S   S621      1.0  0.88318  0.67152  0.91141  1.0000
  H   H3591     1.0  0.74697  0.56357  0.84809  1.0000
  C   C2085     1.0  0.66822  0.95487  0.87862  1.0000
  C   C2086     1.0  0.80575  0.92739  0.74231  1.0000
  H   H3592     1.0  0.70370  0.91591  0.81025  1.0000
  Fe  Fe312     1.0  0.73727  0.88554  0.82624  1.0000
  S   S622      1.0  0.75646  0.91213  0.81143  1.0000
  S   S623      1.0  0.70351  0.89351  0.84090  1.0000
  Fe  Fe313     1.0  0.77344  0.84265  0.81802  1.0000
  S   S624      1.0  0.79573  0.86597  0.80248  1.0000
  S   S625      1.0  0.78340  0.80270  0.82468  1.0000
  Fe  Fe314     1.0  0.78964  0.88947  0.81804  1.0000
  S   S626      1.0  0.81700  0.90765  0.82298  1.0000
  Fe  Fe315     1.0  0.76061  0.88666  0.79719  1.0000
  S   S627      1.0  0.75192  0.89695  0.77612  1.0000
  S   S628      1.0  0.77002  0.86488  0.83392  1.0000
  S   S629      1.0  0.73885  0.86137  0.81165  1.0000
  Fe  Fe316     1.0  0.72827  0.64708  0.81809  1.0000
  S   S630      1.0  0.76032  0.61896  0.81443  1.0000
  S   S631      1.0  0.69348  0.63774  0.83031  1.0000
  Fe  Fe317     1.0  0.75524  0.68792  0.80454  1.0000
  S   S632      1.0  0.78929  0.66273  0.79978  1.0000
  S   S633      1.0  0.75351  0.72763  0.79685  1.0000
  Fe  Fe318     1.0  0.76665  0.64051  0.79388  1.0000
  S   S634      1.0  0.78170  0.62543  0.77473  1.0000
  Fe  Fe319     1.0  0.77983  0.64361  0.82061  1.0000
  S   S635      1.0  0.80628  0.62803  0.83460  1.0000
  S   S636      1.0  0.73307  0.66716  0.79709  1.0000
  S   S637      1.0  0.74733  0.67024  0.82587  1.0000
  C   C2087     1.0  0.77341  0.78227  0.81738  1.0000
  C   C2088     1.0  0.76511  0.78926  0.80523  1.0000
  C   C2089     1.0  0.75877  0.77233  0.79919  1.0000
  C   C2090     1.0  0.76041  0.74833  0.80530  1.0000
  C   C2091     1.0  0.76830  0.74137  0.81759  1.0000
  C   C2092     1.0  0.77490  0.75828  0.82357  1.0000
  H   H3593     1.0  0.76396  0.80764  0.80035  1.0000
  H   H3594     1.0  0.75268  0.77784  0.78969  1.0000
  H   H3595     1.0  0.76948  0.72296  0.82242  1.0000
  H   H3596     1.0  0.78128  0.75272  0.83299  1.0000
  C   C2093     1.0  0.74566  0.57659  0.75813  1.0000
  C   C2094     1.0  0.76857  0.58115  0.75229  1.0000
  C   C2095     1.0  0.77939  0.59609  0.75752  1.0000
  C   C2096     1.0  0.76753  0.60641  0.76870  1.0000
  C   C2097     1.0  0.74467  0.60171  0.77459  1.0000
  C   C2098     1.0  0.73378  0.58692  0.76930  1.0000
  H   H3597     1.0  0.79712  0.59958  0.75295  1.0000
  H   H3598     1.0  0.73532  0.60960  0.78318  1.0000
  H   H3599     1.0  0.71597  0.58370  0.77384  1.0000
  C   C2099     1.0  0.70286  0.61874  0.73673  1.0000
  C   C2100     1.0  0.66269  0.96940  0.83915  1.0000
  C   C2101     1.0  0.74073  0.93063  0.75464  1.0000
  C   C2102     1.0  0.74824  0.92635  0.76709  1.0000
  C   C2103     1.0  0.75400  0.94519  0.77166  1.0000
  C   C2104     1.0  0.81539  0.97143  0.93562  1.0000
  C   C2105     1.0  0.73532  0.66317  0.73405  1.0000
  H   H3600     1.0  0.73624  0.91614  0.75102  1.0000
  H   H3601     1.0  0.75980  0.94214  0.78121  1.0000
  H   H3602     1.0  0.86795  0.70338  0.78463  1.0000
  C   C2106     1.0  0.84002  0.67807  0.85115  1.0000
  C   C2107     1.0  0.84816  0.65356  0.85326  1.0000
  C   C2108     1.0  0.83740  0.63835  0.84829  1.0000
  C   C2109     1.0  0.81842  0.64755  0.84125  1.0000
  C   C2110     1.0  0.80958  0.67198  0.83964  1.0000
  C   C2111     1.0  0.82040  0.68721  0.84459  1.0000
  H   H3603     1.0  0.86329  0.64640  0.85832  1.0000
  H   H3604     1.0  0.84419  0.61944  0.84964  1.0000
  H   H3605     1.0  0.79464  0.67914  0.83443  1.0000
  H   H3606     1.0  0.81376  0.70613  0.84322  1.0000
  H   H3607     1.0  0.95326  0.79759  0.88601  1.0000
  C   C2112     1.0  0.96494  0.69246  0.90086  1.0000
  H   H3608     1.0  0.94634  0.69888  0.90432  1.0000
  C   C2113     1.0  0.86248  0.86333  0.85336  1.0000
  C   C2114     1.0  0.86358  0.88757  0.84911  1.0000
  C   C2115     1.0  0.84991  0.90094  0.83956  1.0000
  C   C2116     1.0  0.83493  0.89023  0.83437  1.0000
  C   C2117     1.0  0.83409  0.86594  0.83853  1.0000
  C   C2118     1.0  0.84798  0.85251  0.84792  1.0000
  H   H3609     1.0  0.87486  0.89598  0.85321  1.0000
  H   H3610     1.0  0.85077  0.91968  0.83626  1.0000
  H   H3611     1.0  0.82286  0.85747  0.83444  1.0000
  H   H3612     1.0  0.84719  0.83375  0.85112  1.0000
  C   C2119     1.0  0.88381  0.79306  0.91805  1.0000
  C   C2120     1.0  0.86647  0.80116  0.90986  1.0000
  C   C2121     1.0  0.85503  0.78499  0.90617  1.0000
  C   C2122     1.0  0.86140  0.76044  0.91017  1.0000
  C   C2123     1.0  0.87928  0.75210  0.91804  1.0000
  C   C2124     1.0  0.89012  0.76843  0.92219  1.0000
  H   H3613     1.0  0.86125  0.81995  0.90669  1.0000
  H   H3614     1.0  0.84109  0.79160  0.90024  1.0000
  H   H3615     1.0  0.88408  0.73317  0.92134  1.0000
  H   H3616     1.0  0.90345  0.76198  0.92858  1.0000
  H   H3617     1.0  0.80816  0.89825  0.75978  1.0000
  C   C2125     1.0  0.86212  0.66895  0.81331  1.0000
  N   N150      1.0  0.84028  0.70893  0.80154  1.0000
  H   H3618     1.0  0.94961  0.81508  0.85006  1.0000
  H   H3619     1.0  0.96472  0.88806  0.90989  1.0000
  H   H3620     1.0  0.85537  0.92204  0.92814  1.0000
  H   H3621     1.0  0.95586  0.73594  0.85979  1.0000
  C   C2126     1.0  0.68461  0.50332  0.89593  1.0000
  H   H3622     1.0  0.85940  0.65012  0.81668  1.0000
  H   H3623     1.0  0.71053  0.91317  0.79321  1.0000
  H   H3624     1.0  0.68530  0.54707  0.76764  1.0000
  C   C2127     1.0  0.77517  0.59980  0.93148  1.0000
  C   C2128     1.0  0.78082  0.62252  0.93076  1.0000
  C   C2129     1.0  0.80301  0.62834  0.92387  1.0000
  C   C2130     1.0  0.81985  0.61132  0.91779  1.0000
  C   C2131     1.0  0.81399  0.58880  0.91826  1.0000
  C   C2132     1.0  0.79165  0.58314  0.92491  1.0000
  H   H3625     1.0  0.76811  0.63556  0.93576  1.0000
  H   H3626     1.0  0.80736  0.64571  0.92363  1.0000
  H   H3627     1.0  0.82693  0.57560  0.91351  1.0000
  H   H3628     1.0  0.78742  0.56571  0.92523  1.0000
  H   H3629     1.0  0.71402  0.59386  0.86263  1.0000
  C   C2133     1.0  0.81926  0.71743  0.79421  1.0000
  C   C2134     1.0  0.94947  0.76880  0.90205  1.0000
  C   C2135     1.0  0.68379  0.61324  0.82671  1.0000
  C   C2136     1.0  0.69765  0.59990  0.81727  1.0000
  C   C2137     1.0  0.69062  0.57917  0.81543  1.0000
  H   H3630     1.0  0.79817  0.67336  0.88450  1.0000
  H   H3631     1.0  0.68009  0.91740  0.77994  1.0000
  H   H3632     1.0  0.71399  0.60533  0.81151  1.0000
  H   H3633     1.0  0.70171  0.56871  0.80828  1.0000
  H   H3634     1.0  0.77795  0.57318  0.74375  1.0000
  C   C2138     1.0  0.68381  0.51511  0.90663  1.0000
  H   H3635     1.0  0.70951  0.97386  0.85415  1.0000
  H   H3636     1.0  0.82102  0.88505  0.86645  1.0000
  H   H3637     1.0  0.77445  0.94154  0.89673  1.0000
  H   H3638     1.0  0.68722  0.96051  0.80294  1.0000
  H   H3639     1.0  0.89604  0.96014  0.92117  1.0000
  C   C2139     1.0  0.68894  0.92305  0.84081  1.0000
  C   C2140     1.0  0.69860  0.94198  0.83234  1.0000
  C   C2141     1.0  0.68341  0.56680  0.87607  1.0000
  H   H3640     1.0  0.70065  0.52221  0.84241  1.0000
  H   H3641     1.0  0.71595  0.93877  0.82626  1.0000
  H   H3642     1.0  0.92375  0.73995  0.86516  1.0000
  C   C2142     1.0  0.84356  0.93889  0.92653  1.0000
  C   C2143     1.0  0.84072  0.94998  0.91357  1.0000
  N   N151      1.0  0.81244  0.76960  0.86754  1.0000
  C   C2144     1.0  0.83477  0.75644  0.86027  1.0000
  C   C2145     1.0  0.80024  0.75134  0.87764  1.0000
  C   C2146     1.0  0.82016  0.78603  0.87480  1.0000
  C   C2147     1.0  0.79708  0.78344  0.85746  1.0000
  C   C2148     1.0  0.85138  0.77202  0.85032  1.0000
  C   C2149     1.0  0.79490  0.73066  0.87201  1.0000
  C   C2150     1.0  0.80022  0.80083  0.88336  1.0000
  C   C2151     1.0  0.76982  0.78822  0.86227  1.0000
  H   H3643     1.0  0.84565  0.74447  0.86746  1.0000
  H   H3644     1.0  0.83010  0.74468  0.85429  1.0000
  H   H3645     1.0  0.78309  0.75956  0.88304  1.0000
  H   H3646     1.0  0.81132  0.74318  0.88555  1.0000
  H   H3647     1.0  0.83297  0.77570  0.88140  1.0000
  H   H3648     1.0  0.82988  0.79935  0.86772  1.0000
  H   H3649     1.0  0.80276  0.80100  0.85312  1.0000
  H   H3650     1.0  0.79952  0.77418  0.84876  1.0000
  H   H3651     1.0  0.86132  0.78071  0.85553  1.0000
  H   H3652     1.0  0.86498  0.76039  0.84427  1.0000
  H   H3653     1.0  0.84160  0.78560  0.84333  1.0000
  H   H3654     1.0  0.78103  0.72188  0.87921  1.0000
  H   H3655     1.0  0.78849  0.73663  0.86233  1.0000
  H   H3656     1.0  0.81105  0.71691  0.87074  1.0000
  H   H3657     1.0  0.78853  0.78985  0.89079  1.0000
  H   H3658     1.0  0.78970  0.81501  0.87703  1.0000
  H   H3659     1.0  0.80853  0.81008  0.88914  1.0000
  H   H3660     1.0  0.76191  0.77177  0.86396  1.0000
  H   H3661     1.0  0.76135  0.80077  0.85430  1.0000
  H   H3662     1.0  0.76463  0.79642  0.87135  1.0000
  H   H3663     1.0  0.97239  0.93757  0.89340  1.0000
  H   H3664     1.0  0.76357  0.91997  0.85873  1.0000
  C   C2152     1.0  0.83448  0.72070  0.81375  1.0000
  C   C2153     1.0  0.83494  0.74775  0.81130  1.0000
  C   C2154     1.0  0.88486  0.71398  0.79870  1.0000
  H   H3665     1.0  0.84647  0.71253  0.82106  1.0000
  H   H3666     1.0  0.83090  0.75395  0.82108  1.0000
  H   H3667     1.0  0.85265  0.75221  0.80637  1.0000
  H   H3668     1.0  0.82114  0.75830  0.80553  1.0000
  Fe  Fe320     1.0  0.74194  0.54702  0.73137  1.0000
  C   C2155     1.0  0.68536  0.96506  0.83140  1.0000
  H   H3669     1.0  0.88218  0.70924  0.80967  1.0000
  H   H3670     1.0  0.86245  0.67582  0.82245  1.0000
  N   N152      1.0  0.77224  0.62623  0.88100  1.0000
  C   C2156     1.0  0.75026  0.62791  0.87489  1.0000
  C   C2157     1.0  0.76537  0.61889  0.89585  1.0000
  C   C2158     1.0  0.79130  0.60739  0.87533  1.0000
  C   C2159     1.0  0.78017  0.65026  0.87735  1.0000
  C   C2160     1.0  0.75407  0.63127  0.85952  1.0000
  C   C2161     1.0  0.74606  0.63662  0.90297  1.0000
  C   C2162     1.0  0.81150  0.59593  0.88341  1.0000
  C   C2163     1.0  0.80018  0.65412  0.88408  1.0000
  H   H3671     1.0  0.74182  0.61166  0.87874  1.0000
  H   H3672     1.0  0.73643  0.64311  0.87769  1.0000
  H   H3673     1.0  0.78084  0.61577  0.90106  1.0000
  H   H3674     1.0  0.75901  0.60138  0.89811  1.0000
  H   H3675     1.0  0.78323  0.59221  0.87414  1.0000
  H   H3676     1.0  0.79994  0.61455  0.86513  1.0000
  H   H3677     1.0  0.76488  0.66496  0.87893  1.0000
  H   H3678     1.0  0.76183  0.64747  0.85470  1.0000
  H   H3679     1.0  0.76535  0.61554  0.85565  1.0000
  H   H3680     1.0  0.74315  0.62959  0.91383  1.0000
  H   H3681     1.0  0.75167  0.65421  0.90172  1.0000
  H   H3682     1.0  0.72857  0.63867  0.89974  1.0000
  H   H3683     1.0  0.82004  0.60901  0.88635  1.0000
  H   H3684     1.0  0.82572  0.58509  0.87722  1.0000
  H   H3685     1.0  0.80492  0.58357  0.89242  1.0000
  H   H3686     1.0  0.81806  0.64860  0.87833  1.0000
  H   H3687     1.0  0.79954  0.64522  0.89455  1.0000
  H   H3688     1.0  0.77912  0.88980  0.86217  1.0000
  H   H3689     1.0  0.81643  0.71792  0.81929  1.0000
  H   H3690     1.0  0.85883  0.73355  0.78660  1.0000
  H   H3691     1.0  0.87972  0.66838  0.80672  1.0000
  H   H3692     1.0  0.73653  0.63342  0.85625  1.0000
  H   H3693     1.0  0.89120  0.73144  0.79602  1.0000
  N   N153      1.0  0.70303  0.55923  0.86502  1.0000
  C   C2164     1.0  0.86257  0.71518  0.79231  1.0000
  H   H3694     1.0  0.83295  0.93197  0.87654  1.0000
  H   H3695     1.0  0.82748  0.97920  0.73928  1.0000
  C   C2165     1.0  0.85399  0.50196  0.96776  1.0000
  C   C2166     1.0  0.79265  0.93478  0.89905  1.0000
  C   C2167     1.0  0.92852  0.94328  0.89002  1.0000
  H   H3696     1.0  0.86294  0.50933  0.97416  1.0000
  C   C2168     1.0  0.78048  0.91251  0.87654  1.0000
  H   H3697     1.0  0.78851  0.53232  0.95763  1.0000
  H   H3698     1.0  0.82437  0.89029  0.74383  1.0000
  H   H3699     1.0  0.90194  0.78031  0.86434  1.0000
  H   H3700     1.0  0.69818  0.95570  0.78586  1.0000
  H   H3701     1.0  0.84382  0.67330  0.79707  1.0000
  C   C2169     1.0  0.66653  0.92752  0.84882  1.0000
  H   H3702     1.0  0.80287  0.71137  0.80047  1.0000
  H   H3703     1.0  0.70164  0.60815  0.74695  1.0000
  H   H3704     1.0  0.73465  0.59803  0.72746  1.0000
  H   H3705     1.0  0.76930  0.92984  0.87818  1.0000
  H   H3706     1.0  0.87040  0.92038  0.75259  1.0000
  H   H3707     1.0  0.81491  0.73714  0.79226  1.0000
  C   C2170     1.0  0.69990  0.94903  0.79646  1.0000
  C   C2171     1.0  0.78605  0.55652  0.97110  1.0000
  H   H3708     1.0  0.92566  0.81741  0.86367  1.0000
  H   H3709     1.0  0.93241  0.73653  0.88904  1.0000
  C   C2172     1.0  0.84174  0.68232  0.80578  1.0000
  C   C2173     1.0  0.94851  0.78201  0.86418  1.0000
  C   C2174     1.0  0.65942  0.57977  0.87187  1.0000
  H   H3710     1.0  0.65899  0.91292  0.85540  1.0000
  N   N154      1.0  0.80508  0.91030  0.87977  1.0000
  H   H3711     1.0  0.74130  0.59459  0.84326  1.0000
  H   H3712     1.0  0.90909  0.94302  0.89242  1.0000
  H   H3713     1.0  0.97169  0.64434  0.93099  1.0000
  H   H3714     1.0  0.74219  0.57024  0.87453  1.0000
  C   C2175     1.0  0.81877  0.92934  0.87138  1.0000
  H   H3715     1.0  0.67040  0.95028  0.88924  1.0000
  H   H3716     1.0  0.89973  0.70072  0.79466  1.0000
  H   H3717     1.0  0.68580  0.55545  0.79121  1.0000
  H   H3718     1.0  0.89022  0.75972  0.87858  1.0000
  H   H3719     1.0  0.79516  0.91408  0.85495  1.0000
  C   C2176     1.0  0.97106  0.67384  0.89349  1.0000
  H   H3720     1.0  0.68951  0.85529  0.80096  1.0000
  C   C2177     1.0  0.66175  0.51123  0.76624  1.0000
  C   C2178     1.0  0.67909  0.53560  0.77714  1.0000
  C   C2179     1.0  0.67516  0.48500  0.72825  1.0000
  C   C2180     1.0  0.95516  0.77798  0.88694  1.0000
  H   H3721     1.0  0.81670  0.96683  0.86271  1.0000
  H   H3722     1.0  0.72185  0.55903  0.88923  1.0000
  H   H3723     1.0  0.69623  0.59214  0.85139  1.0000
  H   H3724     1.0  0.82148  0.90559  0.89733  1.0000
  H   H3725     1.0  0.93970  0.77638  0.85709  1.0000
  H   H3726     1.0  0.67933  0.55116  0.88371  1.0000
  H   H3727     1.0  0.95607  0.81723  0.86573  1.0000
  C   C2181     1.0  0.73275  0.57843  0.84540  1.0000
  C   C2182     1.0  0.71089  0.58149  0.85650  1.0000
  H   H3728     1.0  0.93911  0.95360  0.91963  1.0000
  C   C2183     1.0  0.66593  0.52595  0.75206  1.0000
  H   H3729     1.0  0.83359  0.50888  0.92936  1.0000
  C   C2184     1.0  0.82523  0.97186  0.91170  1.0000
  C   C2185     1.0  0.69411  0.53896  0.78708  1.0000
  H   H3730     1.0  0.89746  0.93384  0.91386  1.0000
  H   H3731     1.0  0.74084  0.68087  0.73271  1.0000
  C   C2186     1.0  0.71056  0.52858  0.84876  1.0000
  C   C2187     1.0  0.83114  0.94971  0.93748  1.0000
  H   H3732     1.0  0.71553  0.95283  0.86844  1.0000
  H   H3733     1.0  0.74935  0.54118  0.88391  1.0000
  C   C2188     1.0  0.69285  0.54567  0.85709  1.0000
  C   C2189     1.0  0.80417  0.95397  0.86700  1.0000
  H   H3734     1.0  0.69450  0.52477  0.79592  1.0000
  H   H3735     1.0  0.73500  0.95617  0.73678  1.0000
  H   H3736     1.0  0.68035  0.53438  0.86383  1.0000
  C   C2190     1.0  0.74678  0.97187  0.75088  1.0000
  H   H3737     1.0  0.83355  0.94108  0.94747  1.0000
  H   H3738     1.0  0.96735  0.96654  0.88416  1.0000
  H   H3739     1.0  0.74739  0.97236  0.87144  1.0000
  C   C2191     1.0  0.83812  0.55508  0.95980  1.0000
  N   N155      1.0  0.93668  0.95691  0.89873  1.0000
  H   H3740     1.0  0.79428  0.95335  0.85902  1.0000
  H   H3741     1.0  0.79265  0.86303  0.88442  1.0000
  H   H3742     1.0  0.76703  0.56358  0.97029  1.0000
  C   C2192     1.0  0.86443  0.91425  0.74455  1.0000
  H   H3743     1.0  0.68907  0.57890  0.88145  1.0000
  H   H3744     1.0  0.82507  0.69036  0.78093  1.0000
  S   S638      1.0  0.73094  0.55863  0.75166  1.0000
  H   H3745     1.0  0.66504  0.93219  0.81947  1.0000
  S   S639      1.0  0.74132  0.50893  0.73035  1.0000
  N   N156      1.0  0.68004  0.51057  0.77489  1.0000
  H   H3746     1.0  0.67860  0.87596  0.78748  1.0000
  H   H3747     1.0  0.83855  0.88583  0.87830  1.0000
  C   C2193     1.0  0.98298  0.70277  0.90374  1.0000
  H   H3748     1.0  0.83209  0.49352  0.94610  1.0000
  H   H3749     1.0  0.95350  0.94636  0.87102  1.0000
  C   C2194     1.0  0.82187  0.70989  0.78048  1.0000
  C   C2195     1.0  0.73449  0.55447  0.88022  1.0000
  H   H3750     1.0  0.82888  0.92369  0.86192  1.0000
  C   C2196     1.0  0.94125  0.73317  0.86839  1.0000
  H   H3751     1.0  0.70649  0.87762  0.79209  1.0000
  H   H3752     1.0  0.85765  0.54817  0.95850  1.0000
  C   C2197     1.0  0.72287  0.54317  0.87146  1.0000
  H   H3753     1.0  0.83594  0.71789  0.77307  1.0000
  C   C2198     1.0  0.81106  0.86408  0.88543  1.0000
  H   H3754     1.0  0.93676  0.92414  0.89185  1.0000
  H   H3755     1.0  0.71843  0.51256  0.85525  1.0000
  H   H3756     1.0  0.73755  0.53580  0.86405  1.0000
  H   H3757     1.0  0.71622  0.52721  0.87779  1.0000
  H   H3758     1.0  0.81256  0.86226  0.89608  1.0000
  H   H3759     1.0  0.68348  0.51984  0.74619  1.0000
  C   C2199     1.0  0.70424  0.50122  0.76747  1.0000
  N   N157      1.0  0.67268  0.91674  0.80140  1.0000
  C   C2200     1.0  0.74001  0.95330  0.74654  1.0000
  H   H3760     1.0  0.79124  0.93226  0.91006  1.0000
  H   H3761     1.0  0.77033  0.89953  0.88365  1.0000
  H   H3762     1.0  0.66541  0.49673  0.88155  1.0000
  C   C2201     1.0  0.98224  0.89144  0.90485  1.0000
  H   H3763     1.0  0.79244  0.89772  0.90064  1.0000
  H   H3764     1.0  0.85368  0.48276  0.97175  1.0000
  H   H3765     1.0  0.80452  0.94823  0.89491  1.0000
  H   H3766     1.0  0.66136  0.53784  0.91974  1.0000
  C   C2202     1.0  0.94462  0.80947  0.86098  1.0000
  N   N158      1.0  0.82474  0.53715  0.95727  1.0000
  H   H3767     1.0  0.82295  0.84841  0.88176  1.0000
  H   H3768     1.0  0.91148  0.79950  0.88446  1.0000
  H   H3769     1.0  0.86505  0.50247  0.95776  1.0000
  C   C2203     1.0  0.67181  0.98069  0.87242  1.0000
  H   H3770     1.0  0.81622  0.58841  0.95123  1.0000
  H   H3771     1.0  0.84481  0.59162  0.95384  1.0000
  H   H3772     1.0  0.96792  0.77546  0.86123  1.0000
  C   C2204     1.0  0.72925  0.61635  0.72991  1.0000
  H   H3773     1.0  0.69214  0.61130  0.73133  1.0000
  C   C2205     1.0  0.66966  0.57172  0.82298  1.0000
  C   C2206     1.0  0.90652  0.94253  0.91950  1.0000
  H   H3774     1.0  0.80623  0.51335  0.94062  1.0000
  H   H3775     1.0  0.72489  0.53708  0.84198  1.0000
  C   C2207     1.0  0.82589  0.51062  0.93987  1.0000
  H   H3776     1.0  0.82868  0.54750  0.93585  1.0000
  C   C2208     1.0  0.80344  0.91085  0.89439  1.0000
  H   H3777     1.0  0.78730  0.93558  0.74600  1.0000
  H   H3778     1.0  0.80478  0.71666  0.77664  1.0000
  H   H3779     1.0  0.66441  0.97874  0.96565  1.0000
  H   H3780     1.0  0.70110  0.49249  0.89221  1.0000
  C   C2209     1.0  0.66441  0.50572  0.88984  1.0000
  H   H3781     1.0  0.82975  0.92206  0.76386  1.0000
  H   H3782     1.0  0.66405  0.54524  0.75226  1.0000
  H   H3783     1.0  0.68200  0.55817  0.85016  1.0000
  H   H3784     1.0  0.84303  0.57832  0.94014  1.0000
  H   H3785     1.0  0.73974  0.61644  0.73766  1.0000
  C   C2210     1.0  0.83416  0.53189  0.94336  1.0000
  H   H3786     1.0  0.90641  0.93124  0.92950  1.0000
  C   C2211     1.0  0.93254  0.94444  0.91300  1.0000
  H   H3787     1.0  0.96432  0.77062  0.90687  1.0000
  H   H3788     1.0  0.80645  0.92747  0.73152  1.0000
  H   H3789     1.0  0.79155  0.96127  0.87523  1.0000
  C   C2212     1.0  0.77964  0.90876  0.86232  1.0000
  S   S640      1.0  0.66190  0.54509  0.82086  1.0000
  C   C2213     1.0  0.79835  0.54652  0.95830  1.0000
  C   C2214     1.0  0.83511  0.57961  0.95067  1.0000
  H   H3790     1.0  0.66040  0.54442  0.78012  1.0000
  H   H3791     1.0  0.81677  0.50218  0.96702  1.0000
  C   C2215     1.0  0.94433  0.74428  0.88009  1.0000
  H   H3792     1.0  0.74977  0.65004  0.73809  1.0000
  C   C2216     1.0  0.81975  0.88675  0.87701  1.0000
  C   C2217     1.0  0.91430  0.78051  0.88327  1.0000
  N   N159      1.0  0.94012  0.77122  0.87843  1.0000
  H   H3793     1.0  0.94253  0.71357  0.87159  1.0000
  H   H3794     1.0  0.85400  0.52911  0.94118  1.0000
  H   H3795     1.0  0.79460  0.56076  0.94979  1.0000
  C   C2218     1.0  0.83562  0.95771  0.76307  1.0000
  C   C2219     1.0  0.89583  0.77745  0.87522  1.0000
  H   H3796     1.0  0.71127  0.51555  0.75977  1.0000
  C   C2220     1.0  0.66254  0.60611  0.83405  1.0000
  H   H3797     1.0  0.87985  0.79137  0.87680  1.0000
  H   H3798     1.0  0.90858  0.77140  0.89357  1.0000
  C   C2221     1.0  0.69731  0.92246  0.80053  1.0000
  H   H3799     1.0  0.72733  0.57647  0.83607  1.0000
  H   H3800     1.0  0.80357  0.94341  0.76439  1.0000
  C   C2222     1.0  0.82811  0.51510  0.96761  1.0000
  H   H3801     1.0  0.71813  0.95095  0.79744  1.0000
  H   H3802     1.0  0.94285  0.92604  0.91392  1.0000
  H   H3803     1.0  0.69477  0.63737  0.73768  1.0000
  H   H3804     1.0  0.68008  0.94168  0.87287  1.0000
  C   C2223     1.0  0.96332  0.95603  0.89431  1.0000
  H   H3805     1.0  0.88776  0.97353  0.90036  1.0000
  H   H3806     1.0  0.71261  0.54088  0.78209  1.0000
  H   H3807     1.0  0.70280  0.48717  0.76192  1.0000
  H   H3808     1.0  0.97818  0.71715  0.90944  1.0000
  H   H3809     1.0  0.71892  0.66385  0.74172  1.0000
  H   H3810     1.0  0.85338  0.95867  0.75677  1.0000
  H   H3811     1.0  0.68228  0.88482  0.81542  1.0000
  C   C2224     1.0  0.75326  0.96782  0.76359  1.0000
  H   H3812     1.0  0.66134  0.59653  0.86476  1.0000
  H   H3813     1.0  0.96287  0.73666  0.88188  1.0000
  H   H3814     1.0  0.83825  0.95183  0.77361  1.0000
  C   C2225     1.0  0.71447  0.97207  0.86417  1.0000
  C   C2226     1.0  0.82240  0.94022  0.75918  1.0000
  H   H3815     1.0  0.75160  0.96641  0.85486  1.0000
  H   H3816     1.0  0.77761  0.61637  0.72935  1.0000
  C   C2227     1.0  0.66226  0.52868  0.91152  1.0000
  H   H3817     1.0  0.79754  0.97467  0.74509  1.0000
  H   H3818     1.0  0.79282  0.89370  0.74767  1.0000
  H   H3819     1.0  0.97851  0.95255  0.91258  1.0000
  H   H3820     1.0  0.92969  0.97173  0.87226  1.0000
  C   C2228     1.0  0.66572  0.92430  0.78778  1.0000
  H   H3821     1.0  0.93322  0.77983  0.90662  1.0000
  H   H3822     1.0  0.92396  0.94404  0.86962  1.0000
  C   C2229     1.0  0.68806  0.87421  0.79599  1.0000
  C   C2230     1.0  0.93435  0.95214  0.87489  1.0000
  C   C2231     1.0  0.67417  0.89023  0.80616  1.0000
  C   C2232     1.0  0.80845  0.90100  0.74889  1.0000
  H   H3823     1.0  0.72656  0.50142  0.78250  1.0000
  H   H3824     1.0  0.66058  0.49283  0.76508  1.0000
  H   H3825     1.0  0.66408  0.94396  0.78475  1.0000
  H   H3826     1.0  0.85626  0.89818  0.74883  1.0000
  C   C2233     1.0  0.74004  0.97736  0.86205  1.0000
  N   N160      1.0  0.82313  0.94193  0.74443  1.0000
  C   C2234     1.0  0.67383  0.49374  0.78769  1.0000
  H   H3827     1.0  0.88078  0.90878  0.73747  1.0000
  C   C2235     1.0  0.84787  0.93435  0.73703  1.0000
  H   H3828     1.0  0.70756  0.96238  0.88980  1.0000
  H   H3829     1.0  0.83321  0.55796  0.97033  1.0000
  H   H3830     1.0  0.98638  0.66908  0.92958  1.0000
  H   H3831     1.0  0.79373  0.57172  0.97243  1.0000
  H   H3832     1.0  0.69262  0.97957  0.82457  1.0000
  H   H3833     1.0  0.94715  0.74988  0.90447  1.0000
  H   H3834     1.0  0.97449  0.77161  0.88358  1.0000
  C   C2236     1.0  0.65584  0.93062  0.81136  1.0000
  H   H3835     1.0  0.85790  0.94960  0.73382  1.0000
  C   C2237     1.0  0.81452  0.96764  0.73889  1.0000
  C   C2238     1.0  0.97651  0.96534  0.90322  1.0000
  H   H3836     1.0  0.84684  0.92865  0.72757  1.0000
  H   H3837     1.0  0.74138  0.48686  0.76887  1.0000
  H   H3838     1.0  0.82305  0.98069  0.90171  1.0000
  C   C2239     1.0  0.72416  0.48994  0.77577  1.0000
  H   H3839     1.0  0.68755  0.49061  0.79417  1.0000
  H   H3840     1.0  0.65635  0.88476  0.80908  1.0000
  C   C2240     1.0  0.69962  0.98142  0.88711  1.0000
