data_image0
_chemical_formula_structural       FeSHFeS2FeSFeS3FeS2FeS2FeSFeS3FeS2FeS2FeSFeS3C2H3C2H3C3H2C6H6C3H4CHCH2C6H6C2H4CH3NC8H25NC2NC7H7CHCH9CH2CH2CH2CH2SCHCHCH2C2HCH2NH4CH2CH3CH2CH4C3H9CH2C4H3CH3NCHC4HC2NCHC2H4CHFeS2FeS2FeSFeCS2FeS2FeS2FeSFeS3FeS2FeS2FeSFeS3CHCH2C6H4C6H6C2HC3H2C3H2C2H4CHC4H2CH3CH4CH4CNH2C2H5CH7SHNC5HCH4CH7CH3CH4C3H10CH4CH3C3H6C2HNHCH3C2H3CNCHCH5C3NH2CH2CH3NC2HCHCH3C2HCH2CH5C2HCH2CH2C2H6FeSCFeS2FeSFeS3FeS2FeS2FeSFeS3FeS2FeS2FeSFeS3HC2H2C3H2C3H2C3H2C6H4C3H2C2HCHC6H5CHCH8C2NC3HC2H4CH6NC8H25CH6NH2CH6CH6CHC2NH7C3HCH4CNH4CH3CH2C2HCHCHCSCH4CH3C2HCHC2HC3H2C2HCHCH2CH2NCH3C2H4CHCH2CH3CHFeS2FeSHFeSFeS3FeS2FeS2FeSFeS3FeS2FeS2FeSFeS3C3H2CH2CHC6H4C2H3C6H4C2HCH2CHCH5C3H2C3H3C2H2NH4NC3HC2H3NCH3NHC2H3SCH4C2H2C2H4C2H5C2H7CH3CH2CH3CH3C3H7CH2NH5CH4CH3CNC8H13NH2C2HCH8C3HCH2CHCHC2H2CH2CH4CH2C2HCH3CH4C2H5CH3CHC2H2FeS2FeS2FeSFeHS2FeS2FeSCFeSFeHS2CHCH8C6H5C2H2CH2CH2CHC3H2CH10SHCHCH4CHCHCHC2HCH7NCH5NHCHCHCHC2NHCHC2H4CH2CH3CH2C2HSC2H3CH2NCH3CH4CHSCH2C2HCH3CH2C3H4CH5CFeS2FeS2FeHFeS3FeSHFeS2FeSFeS3C2H5C3HC6H4CHC4HCH2C3H3NH3CHCHCH2CH4CH2C2HNH4C2HCH7C3H2CH3S2H2CH3CH2C2H2CH3CHFeS2FeS2FeSFeS3FeCSFeS2FeSFeHS2C3HSCH5C2HC7H5C2H2C3H2CNC8H29C3HC2HCH2CHC2H4CHCHN2H6CH2CH2SH2CH6CHCH2CH3C2FeSCFeS2FeSFeHS2FeS2FeSHFeSFeS3H3CHNCH3SC2SHC6H5CHCHC4HCH4CH2CH2C2H7C6H2CHNC2HC4SCH4CH3CHCH6CH5CH4C2HCH2CH3CHCH2CH7CH8NHCH6CHCHCHCHCHCH3CH2FeS2FeS2FeSFeS3FeS2FeS2FeSFeS3FeS2FeS2FeSFeS3CH2C2H2C2HCHCH2C6H4C7H2C2HCHC6H5CHCH2CH2C4HC2HCH7NH5CH4NC7H18NC8H21C2H3CH2CH2NHNCHC2H3C2H3CH2NHCHC2HC2HCH4CH4CH2CH5NC8H18CH3CHC3H3C2HCH5CHCH3CH5CH2NH2CH5CH3FeS2FeS2FeSFeS3FeS2FeS2FeSFeS3FeS2FeS2FeHFeS3C2H2C7H4C2HCH3NHC6H4C2HC2SC2H3CH3C2H2C4H2C3H2CH9CH3C3H6CH5CH2CNC8H13CH7NC6HCH11CH4CH5NH3CHNC4HC3H9CH14C2H4CHCH2C2HCH3C2HC2H2C3HCH3NH2CHC2H6CHC2HFeS2FeS2FeSFeS3FeS2FeS2FeSFeS3FeS2FeS2FeSFeHS2CHC2HC3H3CHC2HC6H4CH4C2H3C3H6C6H4C2H4CHCH4CH3CHNH7CH3CHNHCH4C4HCNCHC3H2CH4CH6C2H2CHC2H3C4H5NC8H20NCH5CSC3H2CHC2H8C3H6CH2CHFeS2FeSCFeSFeS3FeS2FeS2FeSFeS3FeS2FeS2FeSFeS3CH2CHC6H4C3H2C6H4C5H6C3HC2NHC4H2CH5CHC2H2C2H4CH6CH7NC8H20CH3CNH3C3HCH2CH2CH2CH2CHCH2CHCHCH6CH2CHCHCH7C2H2CH2CHC2H5CNCH2CSHCH2C2HNH2CHCH3CH2CH8CH3C2H2CH7NHCH3CHCNCH3CH3CNH
_chemical_formula_sum              "Fe128 S256 H1536 C896 N64"
_cell_length_a       60.405
_cell_length_b       60.2903
_cell_length_c       47.5107
_cell_angle_alpha    89.3887
_cell_angle_beta     89.3809
_cell_angle_gamma    86.9187

_space_group_name_H-M_alt    "P 1"
_space_group_IT_number       1

loop_
  _space_group_symop_operation_xyz
  'x, y, z'

loop_
  _atom_site_type_symbol
  _atom_site_label
  _atom_site_symmetry_multiplicity
  _atom_site_fract_x
  _atom_site_fract_y
  _atom_site_fract_z
  _atom_site_occupancy
  Fe  Fe1       1.0  0.27599  0.10009  0.31893  1.0000
  S   S1        1.0  0.24874  0.08039  0.30144  1.0000
  H   H1        1.0  0.19433  0.26403  0.16737  1.0000
  Fe  Fe2       1.0  0.26669  0.08240  0.38022  1.0000
  S   S2        1.0  0.23865  0.06227  0.36578  1.0000
  S   S3        1.0  0.27991  0.07654  0.42511  1.0000
  Fe  Fe3       1.0  0.26094  0.05183  0.32956  1.0000
  S   S4        1.0  0.26907  0.01617  0.31391  1.0000
  Fe  Fe4       1.0  0.22885  0.09254  0.33929  1.0000
  S   S5        1.0  0.19283  0.10500  0.33354  1.0000
  S   S6        1.0  0.28968  0.07084  0.34477  1.0000
  S   S7        1.0  0.25541  0.11333  0.35598  1.0000
  Fe  Fe5       1.0  0.06980  0.23200  0.33812  1.0000
  S   S8        1.0  0.07297  0.26891  0.33925  1.0000
  S   S9        1.0  0.03634  0.21541  0.34281  1.0000
  Fe  Fe6       1.0  0.12077  0.22308  0.34410  1.0000
  S   S10       1.0  0.12610  0.25976  0.34626  1.0000
  S   S11       1.0  0.15416  0.20437  0.35187  1.0000
  Fe  Fe7       1.0  0.09636  0.26165  0.37522  1.0000
  S   S12       1.0  0.09406  0.28210  0.41555  1.0000
  Fe  Fe8       1.0  0.10273  0.26345  0.30990  1.0000
  S   S13       1.0  0.10705  0.28674  0.27130  1.0000
  S   S14       1.0  0.09239  0.22505  0.37530  1.0000
  S   S15       1.0  0.09817  0.22655  0.30648  1.0000
  Fe  Fe9       1.0  0.18962  0.35207  0.08201  1.0000
  S   S16       1.0  0.21982  0.37194  0.08246  1.0000
  S   S17       1.0  0.17141  0.34713  0.04048  1.0000
  Fe  Fe10      1.0  0.19127  0.34317  0.14744  1.0000
  S   S18       1.0  0.22192  0.36320  0.15070  1.0000
  S   S19       1.0  0.18290  0.32311  0.18818  1.0000
  Fe  Fe11      1.0  0.20486  0.38855  0.12118  1.0000
  S   S20       1.0  0.19696  0.42674  0.12257  1.0000
  Fe  Fe12      1.0  0.23397  0.34495  0.11160  1.0000
  S   S21       1.0  0.26640  0.32593  0.09895  1.0000
  S   S22       1.0  0.17365  0.36929  0.11989  1.0000
  S   S23       1.0  0.20422  0.32436  0.10921  1.0000
  C   C1        1.0  0.18348  0.34397  0.00618  1.0000
  C   C2        1.0  0.20646  0.34237  0.00175  1.0000
  H   H2        1.0  0.30497  0.25414  0.04362  1.0000
  H   H3        1.0  0.21741  0.34297  0.01957  1.0000
  H   H4        1.0  0.09436  0.30101  0.47145  1.0000
  C   C3        1.0  0.00787  0.22435  0.33750  1.0000
  C   C4        1.0  0.00153  0.24387  0.32277  1.0000
  H   H5        1.0  0.02260  0.30238  0.36646  1.0000
  H   H6        1.0  0.01412  0.25398  0.31376  1.0000
  H   H7        1.0  0.30870  0.25510  0.11441  1.0000
  C   C5        1.0  0.09384  0.26975  0.44988  1.0000
  C   C6        1.0  0.22661  0.25314  0.18661  1.0000
  C   C7        1.0  0.09305  0.24679  0.45358  1.0000
  H   H8        1.0  0.26591  0.25133  0.16318  1.0000
  H   H9        1.0  0.09237  0.23636  0.43537  1.0000
  C   C8        1.0  0.12851  0.29631  0.24828  1.0000
  C   C9        1.0  0.12255  0.30972  0.22474  1.0000
  C   C10       1.0  0.13877  0.31803  0.20619  1.0000
  C   C11       1.0  0.16139  0.31336  0.21101  1.0000
  C   C12       1.0  0.16736  0.30031  0.23490  1.0000
  C   C13       1.0  0.15114  0.29166  0.25316  1.0000
  H   H10       1.0  0.10518  0.31356  0.22060  1.0000
  H   H11       1.0  0.13372  0.32803  0.18808  1.0000
  H   H12       1.0  0.18470  0.29678  0.23932  1.0000
  H   H13       1.0  0.15619  0.28145  0.27105  1.0000
  H   H14       1.0  0.13620  0.33305  0.38636  1.0000
  H   H15       1.0  0.03127  0.21155  0.40799  1.0000
  C   C14       1.0  0.28847  0.28564  0.10952  1.0000
  C   C15       1.0  0.28365  0.30735  0.11924  1.0000
  C   C16       1.0  0.23238  0.26974  0.12729  1.0000
  H   H16       1.0  0.13500  0.17180  0.39518  1.0000
  H   H17       1.0  0.27564  0.03263  0.39953  1.0000
  H   H18       1.0  0.27961  0.27979  0.09162  1.0000
  H   H19       1.0  0.99928  0.24788  0.38455  1.0000
  C   C17       1.0  0.26953  0.08543  0.45869  1.0000
  H   H20       1.0  0.14650  0.36003  0.38661  1.0000
  C   C18       1.0  0.14990  0.22402  0.44431  1.0000
  H   H21       1.0  0.17339  0.14874  0.40433  1.0000
  H   H22       1.0  0.04375  0.28368  0.45717  1.0000
  C   C19       1.0  0.18231  0.13272  0.33860  1.0000
  C   C20       1.0  0.19547  0.14899  0.34927  1.0000
  C   C21       1.0  0.18658  0.17087  0.35275  1.0000
  C   C22       1.0  0.16444  0.17673  0.34583  1.0000
  C   C23       1.0  0.15124  0.16048  0.33520  1.0000
  C   C24       1.0  0.16017  0.13858  0.33161  1.0000
  H   H23       1.0  0.21244  0.14466  0.35501  1.0000
  H   H24       1.0  0.19690  0.18331  0.36110  1.0000
  H   H25       1.0  0.13417  0.16475  0.32981  1.0000
  H   H26       1.0  0.14986  0.12609  0.32335  1.0000
  H   H27       1.0  0.27853  0.02976  0.43665  1.0000
  H   H28       1.0  0.14476  0.36098  0.33884  1.0000
  C   C25       1.0  0.22846  0.45735  0.13659  1.0000
  C   C26       1.0  0.20689  0.45393  0.12768  1.0000
  H   H29       1.0  0.19819  0.15743  0.41942  1.0000
  H   H30       1.0  0.23979  0.44317  0.14049  1.0000
  H   H31       1.0  0.29598  0.10299  0.23981  1.0000
  H   H32       1.0  0.23071  0.23982  0.17107  1.0000
  C   C27       1.0  0.25989  0.98938  0.32368  1.0000
  H   H33       1.0  0.13577  0.36830  0.29256  1.0000
  H   H34       1.0  0.14245  0.14048  0.46226  1.0000
  H   H35       1.0  0.23300  0.00110  0.35057  1.0000
  N   N1        1.0  0.23368  0.15699  0.26182  1.0000
  C   C28       1.0  0.24703  0.14980  0.23608  1.0000
  C   C29       1.0  0.22770  0.13612  0.27726  1.0000
  C   C30       1.0  0.24820  0.17054  0.27994  1.0000
  C   C31       1.0  0.21354  0.17071  0.25201  1.0000
  C   C32       1.0  0.25845  0.16831  0.21959  1.0000
  C   C33       1.0  0.21285  0.12069  0.26108  1.0000
  C   C34       1.0  0.24227  0.17221  0.31151  1.0000
  C   C35       1.0  0.19571  0.17735  0.27432  1.0000
  H   H36       1.0  0.26027  0.13707  0.24192  1.0000
  H   H37       1.0  0.23654  0.14160  0.22060  1.0000
  H   H38       1.0  0.21912  0.13964  0.29753  1.0000
  H   H39       1.0  0.24308  0.12629  0.28333  1.0000
  H   H40       1.0  0.26566  0.16356  0.27934  1.0000
  H   H41       1.0  0.24881  0.18783  0.27161  1.0000
  H   H42       1.0  0.21856  0.18660  0.24242  1.0000
  H   H43       1.0  0.20514  0.16257  0.23443  1.0000
  H   H44       1.0  0.26731  0.16080  0.20108  1.0000
  H   H45       1.0  0.24639  0.18124  0.21144  1.0000
  H   H46       1.0  0.27124  0.17605  0.23224  1.0000
  H   H47       1.0  0.20870  0.10658  0.27504  1.0000
  H   H48       1.0  0.19687  0.12922  0.25502  1.0000
  H   H49       1.0  0.22141  0.11326  0.24242  1.0000
  H   H50       1.0  0.24600  0.15613  0.32250  1.0000
  H   H51       1.0  0.22485  0.17783  0.31546  1.0000
  H   H52       1.0  0.25282  0.18444  0.32137  1.0000
  H   H53       1.0  0.19940  0.19312  0.28473  1.0000
  H   H54       1.0  0.19313  0.16440  0.29041  1.0000
  H   H55       1.0  0.17934  0.17976  0.26394  1.0000
  H   H56       1.0  0.25213  0.31743  0.22262  1.0000
  H   H57       1.0  0.27791  0.27393  0.21837  1.0000
  H   H58       1.0  0.99578  0.23379  0.41673  1.0000
  H   H59       1.0  0.23971  0.28167  0.22502  1.0000
  H   H60       1.0  0.11965  0.20836  0.43741  1.0000
  N   N2        1.0  0.01734  0.26133  0.41894  1.0000
  C   C36       1.0  0.23211  0.28466  0.15350  1.0000
  C   C37       1.0  0.27596  0.25932  0.20479  1.0000
  N   N3        1.0  0.12305  0.33446  0.33045  1.0000
  C   C38       1.0  0.11178  0.34295  0.30384  1.0000
  C   C39       1.0  0.10700  0.32002  0.34559  1.0000
  C   C40       1.0  0.14332  0.32026  0.32198  1.0000
  C   C41       1.0  0.12928  0.35416  0.34748  1.0000
  C   C42       1.0  0.12626  0.35536  0.28253  1.0000
  C   C43       1.0  0.08448  0.33155  0.35381  1.0000
  C   C44       1.0  0.15789  0.31046  0.34593  1.0000
  H   H61       1.0  0.10463  0.32916  0.29224  1.0000
  H   H62       1.0  0.09741  0.35460  0.30889  1.0000
  H   H63       1.0  0.11399  0.31228  0.36500  1.0000
  H   H64       1.0  0.10334  0.30563  0.33219  1.0000
  H   H65       1.0  0.13842  0.30615  0.30891  1.0000
  H   H66       1.0  0.15479  0.32977  0.30867  1.0000
  H   H67       1.0  0.11627  0.36790  0.34548  1.0000
  C   C45       1.0  0.09390  0.28319  0.47395  1.0000
  H   H68       1.0  0.17839  0.14500  0.44164  1.0000
  C   C46       1.0  0.26376  0.26588  0.17737  1.0000
  H   H69       1.0  0.07568  0.32056  0.36863  1.0000
  H   H70       1.0  0.08630  0.34757  0.36449  1.0000
  H   H71       1.0  0.07371  0.33415  0.33515  1.0000
  H   H72       1.0  0.17103  0.29907  0.33666  1.0000
  H   H73       1.0  0.14865  0.30043  0.36123  1.0000
  H   H74       1.0  0.16650  0.32363  0.35688  1.0000
  H   H75       1.0  0.11773  0.35721  0.39148  1.0000
  H   H76       1.0  0.20420  0.39839  0.99542  1.0000
  H   H77       1.0  0.24896  0.26164  0.12313  1.0000
  C   C47       1.0  0.27492  0.02043  0.41723  1.0000
  H   H78       1.0  0.00171  0.27724  0.45533  1.0000
  H   H79       1.0  0.24542  0.00434  0.40137  1.0000
  C   C48       1.0  0.13242  0.16726  0.41776  1.0000
  H   H80       1.0  0.27327  0.27888  0.16693  1.0000
  H   H81       1.0  0.24876  0.47045  0.05626  1.0000
  C   C49       1.0  0.18012  0.15629  0.42342  1.0000
  H   H82       1.0  0.13765  0.34363  0.27073  1.0000
  H   H83       1.0  0.05323  0.25477  0.41774  1.0000
  C   C50       1.0  0.19247  0.47277  0.12280  1.0000
  H   H84       1.0  0.17986  0.18742  0.44496  1.0000
  H   H85       1.0  0.11537  0.36373  0.26649  1.0000
  S   S24       1.0  0.29531  0.12656  0.29432  1.0000
  C   C51       1.0  0.14182  0.17741  0.46730  1.0000
  H   H86       1.0  0.13832  0.14959  0.41918  1.0000
  C   C52       1.0  0.25042  0.01445  0.41933  1.0000
  H   H87       1.0  0.12492  0.18344  0.47442  1.0000
  C   C53       1.0  0.30515  0.27172  0.12217  1.0000
  H   H88       1.0  0.17285  0.18939  0.40873  1.0000
  H   H89       1.0  0.03658  0.29013  0.41101  1.0000
  C   C54       1.0  0.16971  0.17988  0.42852  1.0000
  C   C55       1.0  0.03551  0.26930  0.46647  1.0000
  H   H90       1.0  0.24923  0.11329  0.44343  1.0000
  C   C56       1.0  0.01997  0.28406  0.40606  1.0000
  H   H91       1.0  0.29300  0.25268  0.19936  1.0000
  H   H92       1.0  0.09891  0.18399  0.41741  1.0000
  N   N4        1.0  0.14537  0.18194  0.43632  1.0000
  H   H93       1.0  0.21822  0.29484  0.20611  1.0000
  H   H94       1.0  0.19352  0.24074  0.19063  1.0000
  H   H95       1.0  0.23773  0.32425  0.19024  1.0000
  H   H96       1.0  0.00008  0.28441  0.36717  1.0000
  C   C57       1.0  0.25507  0.10417  0.46188  1.0000
  H   H97       1.0  0.14206  0.24043  0.43810  1.0000
  H   H98       1.0  0.21984  0.25702  0.12886  1.0000
  C   C58       1.0  0.01751  0.28582  0.37374  1.0000
  H   H99       1.0  0.02958  0.22122  0.44373  1.0000
  H   H100      1.0  0.04745  0.25470  0.46746  1.0000
  H   H101      1.0  0.27256  0.97864  0.43750  1.0000
  C   C59       1.0  0.03774  0.24692  0.41171  1.0000
  H   H102      1.0  0.22821  0.28018  0.10848  1.0000
  H   H103      1.0  0.30952  0.11376  0.19218  1.0000
  C   C60       1.0  0.01451  0.26382  0.45037  1.0000
  H   H104      1.0  0.00795  0.24866  0.46025  1.0000
  H   H105      1.0  0.29240  0.33173  0.14929  1.0000
  H   H106      1.0  0.00786  0.29660  0.41530  1.0000
  H   H107      1.0  0.23979  0.03008  0.41889  1.0000
  C   C61       1.0  0.10718  0.16776  0.42330  1.0000
  C   C62       1.0  0.24218  0.98662  0.34242  1.0000
  C   C63       1.0  0.03842  0.22288  0.42340  1.0000
  H   H108      1.0  0.13715  0.20917  0.40732  1.0000
  H   H109      1.0  0.05588  0.21713  0.42742  1.0000
  H   H110      1.0  0.09986  0.15516  0.40982  1.0000
  H   H111      1.0  0.15290  0.18740  0.48005  1.0000
  H   H112      1.0  0.99563  0.19632  0.36027  1.0000
  H   H113      1.0  0.26767  0.24618  0.21673  1.0000
  H   H114      1.0  0.28841  0.05954  0.48092  1.0000
  H   H115      1.0  0.10314  0.16347  0.44545  1.0000
  H   H116      1.0  0.21514  0.29259  0.15596  1.0000
  C   C64       1.0  0.99104  0.21146  0.34885  1.0000
  H   H117      1.0  0.03964  0.24531  0.38856  1.0000
  H   H118      1.0  0.02804  0.27321  0.36242  1.0000
  C   C65       1.0  0.23601  0.28952  0.20417  1.0000
  C   C66       1.0  0.20111  0.25695  0.18731  1.0000
  C   C67       1.0  0.24825  0.31132  0.20136  1.0000
  C   C68       1.0  0.13244  0.35039  0.37956  1.0000
  H   H119      1.0  0.24668  0.00603  0.43954  1.0000
  H   H120      1.0  0.24268  0.29874  0.14823  1.0000
  H   H121      1.0  0.19535  0.26764  0.20501  1.0000
  C   C69       1.0  0.99737  0.25068  0.40749  1.0000
  H   H122      1.0  0.23131  0.24578  0.20740  1.0000
  H   H123      1.0  0.14900  0.22311  0.46761  1.0000
  H   H124      1.0  0.26431  0.30937  0.19004  1.0000
  N   N5        1.0  0.23961  0.27333  0.18043  1.0000
  C   C70       1.0  0.13712  0.20561  0.43036  1.0000
  H   H125      1.0  0.31024  0.04463  0.39569  1.0000
  C   C71       1.0  0.09279  0.23732  0.48086  1.0000
  C   C72       1.0  0.27711  0.07396  0.48306  1.0000
  C   C73       1.0  0.14579  0.15325  0.47789  1.0000
  C   C74       1.0  0.29550  0.31488  0.14205  1.0000
  H   H126      1.0  0.16741  0.22398  0.43704  1.0000
  C   C75       1.0  0.30329  0.11884  0.23664  1.0000
  C   C76       1.0  0.28742  0.99049  0.38534  1.0000
  N   N6        1.0  0.29187  0.00135  0.41301  1.0000
  C   C77       1.0  0.30508  0.13309  0.25950  1.0000
  H   H127      1.0  0.28221  0.00346  0.36958  1.0000
  C   C78       1.0  0.31098  0.12504  0.20954  1.0000
  C   C79       1.0  0.28938  0.98531  0.43726  1.0000
  H   H128      1.0  0.29107  0.99403  0.45765  1.0000
  H   H129      1.0  0.27314  0.97963  0.38750  1.0000
  H   H130      1.0  0.09221  0.21950  0.48335  1.0000
  H   H131      1.0  0.17576  0.47041  0.11590  1.0000
  C   C80       1.0  0.97880  0.25001  0.31886  1.0000
  H   H132      1.0  0.16299  0.15035  0.48573  1.0000
  Fe  Fe13      1.0  0.25413  0.05863  0.63487  1.0000
  S   S25       1.0  0.27954  0.08060  0.61513  1.0000
  S   S26       1.0  0.26506  0.02108  0.63775  1.0000
  Fe  Fe14      1.0  0.22231  0.09960  0.64561  1.0000
  S   S27       1.0  0.24547  0.12342  0.62650  1.0000
  S   S28       1.0  0.18946  0.11011  0.66709  1.0000
  Fe  Fe15      1.0  0.25087  0.09773  0.59232  1.0000
  S   S29       1.0  0.24931  0.11158  0.54706  1.0000
  Fe  Fe16      1.0  0.27236  0.10460  0.65098  1.0000
  C   C81       1.0  0.20504  0.40066  0.94966  1.0000
  S   S30       1.0  0.22577  0.07487  0.61017  1.0000
  S   S31       1.0  0.24889  0.08167  0.67202  1.0000
  Fe  Fe17      1.0  0.19962  0.37844  0.82449  1.0000
  S   S32       1.0  0.17440  0.35858  0.84806  1.0000
  S   S33       1.0  0.18928  0.41604  0.82295  1.0000
  Fe  Fe18      1.0  0.22926  0.33558  0.81445  1.0000
  S   S34       1.0  0.20606  0.31430  0.83803  1.0000
  S   S35       1.0  0.25810  0.31625  0.79304  1.0000
  Fe  Fe19      1.0  0.17918  0.33298  0.81328  1.0000
  S   S36       1.0  0.15212  0.31259  0.79296  1.0000
  Fe  Fe20      1.0  0.20367  0.34169  0.87010  1.0000
  S   S37       1.0  0.21381  0.33692  0.91649  1.0000
  S   S38       1.0  0.20252  0.35372  0.78867  1.0000
  S   S39       1.0  0.22872  0.36212  0.84749  1.0000
  Fe  Fe21      1.0  0.09839  0.21593  0.63896  1.0000
  S   S40       1.0  0.11982  0.23875  0.61502  1.0000
  S   S41       1.0  0.10837  0.18274  0.65995  1.0000
  Fe  Fe22      1.0  0.05690  0.24881  0.63560  1.0000
  S   S42       1.0  0.07644  0.27426  0.61192  1.0000
  S   S43       1.0  0.02120  0.25399  0.65369  1.0000
  Fe  Fe23      1.0  0.09054  0.24519  0.58617  1.0000
  S   S44       1.0  0.09272  0.23734  0.53872  1.0000
  Fe  Fe24      1.0  0.10427  0.26572  0.64296  1.0000
  S   S45       1.0  0.12790  0.28896  0.66486  1.0000
  S   S46       1.0  0.06991  0.22030  0.60899  1.0000
  S   S47       1.0  0.08391  0.24244  0.66777  1.0000
  C   C82       1.0  0.99377  0.24823  0.64291  1.0000
  H   H133      1.0  0.20126  0.44159  0.93758  1.0000
  C   C83       1.0  0.98926  0.23943  0.61656  1.0000
  H   H134      1.0  0.24159  0.40465  0.91299  1.0000
  H   H135      1.0  0.00263  0.23637  0.60155  1.0000
  C   C84       1.0  0.14578  0.30617  0.75712  1.0000
  C   C85       1.0  0.12834  0.29216  0.75169  1.0000
  C   C86       1.0  0.12257  0.28675  0.72382  1.0000
  C   C87       1.0  0.13407  0.29538  0.70075  1.0000
  C   C88       1.0  0.15159  0.30924  0.70620  1.0000
  C   C89       1.0  0.15746  0.31453  0.73404  1.0000
  H   H136      1.0  0.11908  0.28562  0.76922  1.0000
  H   H137      1.0  0.10901  0.27616  0.72023  1.0000
  H   H138      1.0  0.16068  0.31608  0.68869  1.0000
  H   H139      1.0  0.17085  0.32535  0.73763  1.0000
  C   C90       1.0  0.16819  0.13162  0.66325  1.0000
  C   C91       1.0  0.14935  0.13001  0.68039  1.0000
  C   C92       1.0  0.13158  0.14587  0.67879  1.0000
  C   C93       1.0  0.13219  0.16397  0.66018  1.0000
  C   C94       1.0  0.15119  0.16612  0.64312  1.0000
  C   C95       1.0  0.16917  0.14987  0.64457  1.0000
  H   H140      1.0  0.14835  0.11615  0.69492  1.0000
  H   H141      1.0  0.11717  0.14398  0.69213  1.0000
  H   H142      1.0  0.15188  0.17999  0.62857  1.0000
  H   H143      1.0  0.18363  0.15135  0.63120  1.0000
  H   H144      1.0  0.10950  0.21569  0.70863  1.0000
  H   H145      1.0  0.30134  0.31043  0.90246  1.0000
  C   C96       1.0  0.28346  0.28157  0.81663  1.0000
  C   C97       1.0  0.28173  0.30445  0.81041  1.0000
  H   H146      1.0  0.17755  0.43804  0.88140  1.0000
  C   C98       1.0  0.23004  0.41361  0.89824  1.0000
  C   C99       1.0  0.26282  0.26073  0.74902  1.0000
  C   C100      1.0  0.15592  0.40306  0.89769  1.0000
  H   H147      1.0  0.29401  0.13285  0.54507  1.0000
  H   H148      1.0  0.25709  0.25524  0.77007  1.0000
  C   C101      1.0  0.27922  0.99946  0.71529  1.0000
  C   C102      1.0  0.20138  0.33920  0.95070  1.0000
  C   C103      1.0  0.17840  0.34080  0.95509  1.0000
  H   H149      1.0  0.14231  0.39137  0.89763  1.0000
  H   H150      1.0  0.16742  0.34004  0.93733  1.0000
  C   C104      1.0  0.09344  0.27374  0.50135  1.0000
  C   C105      1.0  0.09300  0.25067  0.50498  1.0000
  H   H151      1.0  0.26484  0.26727  0.96443  1.0000
  H   H152      1.0  0.09359  0.28427  0.51964  1.0000
  H   H153      1.0  0.06804  0.14867  0.67100  1.0000
  H   H154      1.0  0.26711  0.33387  0.90283  1.0000
  C   C106      1.0  0.25643  0.10024  0.51341  1.0000
  H   H155      1.0  0.23808  0.12649  0.49122  1.0000
  C   C107      1.0  0.21530  0.33983  0.97424  1.0000
  C   C108      1.0  0.12547  0.21843  0.71901  1.0000
  C   C109      1.0  0.22365  0.44573  0.82291  1.0000
  C   C110      1.0  0.20082  0.44281  0.82453  1.0000
  H   H156      1.0  0.30660  0.18825  0.70124  1.0000
  H   H157      1.0  0.23504  0.43137  0.82074  1.0000
  C   C111      1.0  0.19239  0.40233  0.97806  1.0000
  H   H158      1.0  0.18200  0.25923  0.64604  1.0000
  H   H159      1.0  0.27391  0.30514  0.94639  1.0000
  H   H160      1.0  0.28632  0.14787  0.76836  1.0000
  C   C112      1.0  0.17596  0.24702  0.68847  1.0000
  H   H161      1.0  0.21965  0.00482  0.64122  1.0000
  H   H162      1.0  0.07270  0.16407  0.70266  1.0000
  H   H163      1.0  0.23368  0.29079  0.89196  1.0000
  H   H164      1.0  0.25024  0.30614  0.92535  1.0000
  C   C113      1.0  0.24564  0.03677  0.72257  1.0000
  H   H165      1.0  0.22034  0.40981  0.95253  1.0000
  H   H166      1.0  0.18179  0.22963  0.64791  1.0000
  H   H167      1.0  0.24769  0.26522  0.73667  1.0000
  H   H168      1.0  0.26652  0.00901  0.76629  1.0000
  C   C114      1.0  0.24296  0.27846  0.87872  1.0000
  N   N7        1.0  0.19257  0.40913  0.92393  1.0000
  H   H169      1.0  0.16402  0.40179  0.87672  1.0000
  H   H170      1.0  0.29125  0.25682  0.93369  1.0000
  C   C115      1.0  0.25628  0.99547  0.75879  1.0000
  C   C116      1.0  0.29932  0.14479  0.59944  1.0000
  H   H171      1.0  0.27226  0.20075  0.80048  1.0000
  H   H172      1.0  0.27642  0.13011  0.72347  1.0000
  H   H173      1.0  0.19818  0.45628  0.89319  1.0000
  H   H174      1.0  0.26225  0.25362  0.90242  1.0000
  H   H175      1.0  0.24842  0.03933  0.74529  1.0000
  C   C117      1.0  0.29562  0.20160  0.71071  1.0000
  H   H176      1.0  0.23171  0.26459  0.87674  1.0000
  H   H177      1.0  0.30625  0.15411  0.61692  1.0000
  H   H178      1.0  0.27551  0.26397  0.87270  1.0000
  H   H179      1.0  0.00540  0.18773  0.62224  1.0000
  H   H180      1.0  0.28208  0.19336  0.72175  1.0000
  H   H181      1.0  0.16130  0.39871  0.94132  1.0000
  H   H182      1.0  0.17597  0.37844  0.92029  1.0000
  S   S48       1.0  0.30169  0.12250  0.67021  1.0000
  H   H183      1.0  0.26508  0.22908  0.72920  1.0000
  N   N8        1.0  0.03170  0.18067  0.67476  1.0000
  C   C118      1.0  0.04652  0.19929  0.68098  1.0000
  C   C119      1.0  0.03531  0.17430  0.64430  1.0000
  C   C120      1.0  0.03728  0.16068  0.69316  1.0000
  C   C121      1.0  0.00801  0.18853  0.68055  1.0000
  C   C122      1.0  0.04605  0.20772  0.71156  1.0000
  H   H184      1.0  0.30537  0.25342  0.82874  1.0000
  C   C123      1.0  0.06186  0.15219  0.69265  1.0000
  H   H185      1.0  0.23908  0.01156  0.69257  1.0000
  H   H186      1.0  0.06405  0.19467  0.67541  1.0000
  H   H187      1.0  0.04229  0.21388  0.66738  1.0000
  H   H188      1.0  0.05332  0.17368  0.63872  1.0000
  C   C124      1.0  0.26522  0.26948  0.89110  1.0000
  H   H189      1.0  0.03240  0.16389  0.71546  1.0000
  H   H190      1.0  0.02743  0.14646  0.68693  1.0000
  H   H191      1.0  0.00559  0.19273  0.70315  1.0000
  H   H192      1.0  0.00362  0.20455  0.66948  1.0000
  H   H193      1.0  0.05891  0.22005  0.71377  1.0000
  H   H194      1.0  0.03000  0.21659  0.71683  1.0000
  H   H195      1.0  0.04995  0.19433  0.72713  1.0000
  C   C125      1.0  0.24044  0.01262  0.71588  1.0000
  H   H196      1.0  0.03017  0.15718  0.64024  1.0000
  H   H197      1.0  0.17256  0.43678  0.94096  1.0000
  H   H198      1.0  0.24194  0.28701  0.96791  1.0000
  C   C126      1.0  0.26378  0.29463  0.93295  1.0000
  H   H199      1.0  0.25827  0.21203  0.77024  1.0000
  H   H200      1.0  0.97915  0.25901  0.68238  1.0000
  H   H201      1.0  0.28792  0.17271  0.57139  1.0000
  H   H202      1.0  0.18482  0.41920  0.98183  1.0000
  C   C127      1.0  0.17831  0.20745  0.70017  1.0000
  C   C128      1.0  0.19026  0.23844  0.74797  1.0000
  C   C129      1.0  0.17250  0.18712  0.71819  1.0000
  H   H203      1.0  0.19403  0.24739  0.69248  1.0000
  H   H204      1.0  0.29081  0.13112  0.61026  1.0000
  H   H205      1.0  0.19655  0.20912  0.70116  1.0000
  H   H206      1.0  0.19840  0.25277  0.73832  1.0000
  H   H207      1.0  0.18891  0.24190  0.77089  1.0000
  H   H208      1.0  0.20087  0.22299  0.74551  1.0000
  H   H209      1.0  0.15846  0.17863  0.70894  1.0000
  H   H210      1.0  0.16883  0.19097  0.74047  1.0000
  H   H211      1.0  0.18710  0.17509  0.71875  1.0000
  H   H212      1.0  0.15853  0.22453  0.75079  1.0000
  C   C130      1.0  0.16677  0.23611  0.73633  1.0000
  H   H213      1.0  0.12175  0.23035  0.73631  1.0000
  H   H214      1.0  0.17578  0.20232  0.67805  1.0000
  H   H215      1.0  0.28597  0.23711  0.79128  1.0000
  H   H216      1.0  0.02645  0.20747  0.62625  1.0000
  C   C131      1.0  0.29829  0.14687  0.75126  1.0000
  H   H217      1.0  0.27647  0.07220  0.52870  1.0000
  H   H218      1.0  0.26903  0.27188  0.81467  1.0000
  H   H219      1.0  0.13438  0.24498  0.69212  1.0000
  C   C132      1.0  0.23138  0.99061  0.64071  1.0000
  C   C133      1.0  0.99030  0.17175  0.67413  1.0000
  C   C134      1.0  0.27038  0.08111  0.51023  1.0000
  H   H220      1.0  0.16877  0.26377  0.69431  1.0000
  H   H221      1.0  0.24551  0.28572  0.85742  1.0000
  H   H222      1.0  0.22343  0.01048  0.72436  1.0000
  H   H223      1.0  0.23309  0.33860  0.97122  1.0000
  H   H224      1.0  0.23908  0.99970  0.76649  1.0000
  H   H225      1.0  0.29393  0.29684  0.87140  1.0000
  C   C135      1.0  0.30787  0.13497  0.70333  1.0000
  C   C136      1.0  0.27133  0.32356  0.88410  1.0000
  H   H226      1.0  0.15741  0.25239  0.73936  1.0000
  N   N9        1.0  0.29723  0.23301  0.74821  1.0000
  H   H227      1.0  0.30547  0.28165  0.93779  1.0000
  C   C137      1.0  0.27467  0.20584  0.77815  1.0000
  H   H228      1.0  0.13143  0.20222  0.72783  1.0000
  H   H229      1.0  0.23126  0.04798  0.71637  1.0000
  H   H230      1.0  0.15622  0.24678  0.64977  1.0000
  C   C138      1.0  0.17375  0.24517  0.65627  1.0000
  C   C139      1.0  0.28707  0.30339  0.89158  1.0000
  H   H231      1.0  0.03098  0.27352  0.48858  1.0000
  H   H232      1.0  0.28866  0.21179  0.69299  1.0000
  H   H233      1.0  0.17014  0.46074  0.90354  1.0000
  C   C140      1.0  0.14165  0.22807  0.69728  1.0000
  N   N10       1.0  0.16558  0.22917  0.70597  1.0000
  C   C141      1.0  0.23175  0.46735  0.82311  1.0000
  H   H234      1.0  0.28060  0.19067  0.76695  1.0000
  C   C142      1.0  0.30405  0.27104  0.82422  1.0000
  H   H235      1.0  0.99559  0.15950  0.65791  1.0000
  H   H236      1.0  0.13421  0.15022  0.49570  1.0000
  H   H237      1.0  0.06371  0.13642  0.70490  1.0000
  H   H238      1.0  0.14037  0.21834  0.67758  1.0000
  H   H239      1.0  0.22906  0.43156  0.90300  1.0000
  C   C143      1.0  0.02354  0.18980  0.62245  1.0000
  C   C144      1.0  0.27668  0.24228  0.73347  1.0000
  C   C145      1.0  0.17170  0.39658  0.92202  1.0000
  N   N11       1.0  0.27772  0.28494  0.90908  1.0000
  H   H240      1.0  0.19904  0.40828  0.87880  1.0000
  H   H241      1.0  0.03004  0.18571  0.60106  1.0000
  C   C146      1.0  0.24880  0.11164  0.48905  1.0000
  H   H242      1.0  0.25596  0.31899  0.87380  1.0000
  H   H243      1.0  0.21083  0.38296  0.94701  1.0000
  C   C147      1.0  0.18638  0.46188  0.82717  1.0000
  H   H244      1.0  0.23740  0.41168  0.87679  1.0000
  H   H245      1.0  0.28123  0.24916  0.71244  1.0000
  H   H246      1.0  0.27855  0.00127  0.69193  1.0000
  N   N12       1.0  0.25661  0.99470  0.72702  1.0000
  C   C148      1.0  0.25261  0.27774  0.95230  1.0000
  C   C149      1.0  0.18732  0.43378  0.92697  1.0000
  H   H247      1.0  0.29970  0.33420  0.80680  1.0000
  C   C150      1.0  0.20713  0.40347  0.89877  1.0000
  H   H248      1.0  0.29474  0.10969  0.56843  1.0000
  C   C151      1.0  0.25409  0.99397  0.63809  1.0000
  H   H249      1.0  0.27990  0.33441  0.86890  1.0000
  H   H250      1.0  0.21008  0.38512  0.89724  1.0000
  H   H251      1.0  0.14800  0.41991  0.90062  1.0000
  C   C152      1.0  0.29261  0.13670  0.72573  1.0000
  C   C153      1.0  0.18321  0.44745  0.89952  1.0000
  H   H252      1.0  0.16869  0.45994  0.82836  1.0000
  C   C154      1.0  0.16955  0.34307  0.98265  1.0000
  H   H253      1.0  0.27174  0.27626  0.75089  1.0000
  H   H254      1.0  0.24159  0.26716  0.94043  1.0000
  C   C155      1.0  0.29701  0.27157  0.92202  1.0000
  H   H255      1.0  0.30456  0.26490  0.76601  1.0000
  H   H256      1.0  0.24938  0.46930  0.82110  1.0000
  H   H257      1.0  0.28478  0.01553  0.72318  1.0000
  H   H258      1.0  0.98577  0.16250  0.69353  1.0000
  H   H259      1.0  0.30709  0.21593  0.78689  1.0000
  C   C156      1.0  0.30063  0.31673  0.81240  1.0000
  C   C157      1.0  0.30543  0.12192  0.55802  1.0000
  H   H260      1.0  0.26915  0.15039  0.57414  1.0000
  C   C158      1.0  0.29193  0.22365  0.77692  1.0000
  H   H261      1.0  0.27144  0.16908  0.60253  1.0000
  H   H262      1.0  0.26005  0.04217  0.71005  1.0000
  C   C159      1.0  0.30952  0.21563  0.73023  1.0000
  H   H263      1.0  0.24181  0.98508  0.52204  1.0000
  H   H264      1.0  0.30871  0.25089  0.88582  1.0000
  C   C160      1.0  0.28112  0.16014  0.58573  1.0000
  C   C161      1.0  0.29836  0.98238  0.72188  1.0000
  H   H265      1.0  0.17960  0.38986  0.97989  1.0000
  H   H266      1.0  0.31009  0.10323  0.51933  1.0000
  H   H267      1.0  0.30256  0.98231  0.74453  1.0000
  H   H268      1.0  0.21903  0.97938  0.54467  1.0000
  H   H269      1.0  0.27217  0.97844  0.79449  1.0000
  H   H270      1.0  0.15176  0.34415  0.98580  1.0000
  Fe  Fe25      1.0  0.28078  0.84291  0.32130  1.0000
  S   S49       1.0  0.24996  0.86199  0.30621  1.0000
  C   C162      1.0  0.28280  0.73714  0.09830  1.0000
  Fe  Fe26      1.0  0.26234  0.84082  0.38243  1.0000
  S   S50       1.0  0.23048  0.85908  0.37036  1.0000
  S   S51       1.0  0.26477  0.82588  0.42702  1.0000
  Fe  Fe27      1.0  0.23127  0.83741  0.33224  1.0000
  S   S52       1.0  0.20111  0.82278  0.31204  1.0000
  Fe  Fe28      1.0  0.25170  0.88240  0.34567  1.0000
  S   S53       1.0  0.24005  0.91921  0.35228  1.0000
  S   S54       1.0  0.26196  0.81741  0.34535  1.0000
  S   S55       1.0  0.28381  0.86493  0.35971  1.0000
  Fe  Fe29      1.0  0.24146  0.60799  0.14570  1.0000
  S   S56       1.0  0.21195  0.62687  0.12722  1.0000
  S   S57       1.0  0.26963  0.62574  0.16586  1.0000
  Fe  Fe30      1.0  0.22101  0.56234  0.13650  1.0000
  S   S58       1.0  0.19017  0.57873  0.11745  1.0000
  S   S59       1.0  0.23082  0.52499  0.14177  1.0000
  Fe  Fe31      1.0  0.21346  0.60044  0.09367  1.0000
  S   S60       1.0  0.21606  0.61102  0.04728  1.0000
  Fe  Fe32      1.0  0.19146  0.60377  0.15295  1.0000
  S   S61       1.0  0.15970  0.61495  0.17758  1.0000
  S   S62       1.0  0.24428  0.58293  0.11111  1.0000
  S   S63       1.0  0.22095  0.58599  0.17314  1.0000
  Fe  Fe33      1.0  0.06979  0.70812  0.34081  1.0000
  S   S64       1.0  0.08377  0.67289  0.34698  1.0000
  S   S65       1.0  0.03306  0.72039  0.33468  1.0000
  Fe  Fe34      1.0  0.11477  0.72785  0.35634  1.0000
  S   S66       1.0  0.13039  0.69372  0.36419  1.0000
  S   S67       1.0  0.13482  0.75680  0.37107  1.0000
  Fe  Fe35      1.0  0.11448  0.68387  0.32359  1.0000
  S   S68       1.0  0.14111  0.66563  0.29516  1.0000
  Fe  Fe36      1.0  0.09885  0.68597  0.38652  1.0000
  S   S69       1.0  0.09535  0.66787  0.42881  1.0000
  S   S70       1.0  0.09967  0.71868  0.31510  1.0000
  S   S71       1.0  0.08404  0.72042  0.38112  1.0000
  H   H271      1.0  0.23461  0.69707  0.13015  1.0000
  C   C163      1.0  0.00587  0.70971  0.33416  1.0000
  C   C164      1.0  0.00229  0.68719  0.33013  1.0000
  H   H272      1.0  0.29366  0.77466  0.22634  1.0000
  H   H273      1.0  0.01635  0.67557  0.32694  1.0000
  C   C165      1.0  0.09894  0.67996  0.46241  1.0000
  C   C166      1.0  0.26467  0.76320  0.16264  1.0000
  C   C167      1.0  0.10651  0.70133  0.46522  1.0000
  H   H274      1.0  0.16066  0.89096  0.34960  1.0000
  H   H275      1.0  0.11042  0.71091  0.44659  1.0000
  C   C168      1.0  0.22091  0.49792  0.13602  1.0000
  C   C169      1.0  0.04159  0.70643  0.47445  1.0000
  C   C170      1.0  0.19940  0.49458  0.12681  1.0000
  H   H276      1.0  0.13888  0.54479  0.17363  1.0000
  H   H277      1.0  0.18805  0.50874  0.12297  1.0000
  C   C171      1.0  0.20863  0.59913  0.01484  1.0000
  C   C172      1.0  0.22880  0.52679  0.01613  1.0000
  C   C173      1.0  0.19168  0.58430  0.01294  1.0000
  H   H278      1.0  0.04013  0.65691  0.37657  1.0000
  H   H279      1.0  0.18279  0.57959  0.03175  1.0000
  C   C174      1.0  0.15505  0.62965  0.20997  1.0000
  C   C175      1.0  0.17228  0.63418  0.22821  1.0000
  C   C176      1.0  0.16763  0.64505  0.25406  1.0000
  C   C177      1.0  0.14576  0.65193  0.26204  1.0000
  C   C178      1.0  0.12857  0.64754  0.24370  1.0000
  C   C179      1.0  0.13319  0.63637  0.21803  1.0000
  H   H280      1.0  0.18917  0.62906  0.22257  1.0000
  H   H281      1.0  0.18112  0.64806  0.26804  1.0000
  H   H282      1.0  0.11167  0.65260  0.24936  1.0000
  H   H283      1.0  0.11967  0.63299  0.20425  1.0000
  C   C180      1.0  0.24808  0.94592  0.34044  1.0000
  C   C181      1.0  0.26560  0.94867  0.32142  1.0000
  C   C182      1.0  0.23635  0.96507  0.35070  1.0000
  H   H284      1.0  0.27478  0.93420  0.31321  1.0000
  H   H285      1.0  0.22267  0.96323  0.36527  1.0000
  C   C183      1.0  0.26575  0.83915  0.46027  1.0000
  C   C184      1.0  0.27348  0.86048  0.46317  1.0000
  H   H286      1.0  0.19385  0.93149  0.29143  1.0000
  C   C185      1.0  0.16968  0.56605  0.21837  1.0000
  H   H287      1.0  0.28577  0.79929  0.26734  1.0000
  C   C186      1.0  0.15364  0.77430  0.35375  1.0000
  C   C187      1.0  0.15121  0.78078  0.32553  1.0000
  C   C188      1.0  0.16600  0.79544  0.31304  1.0000
  C   C189      1.0  0.18336  0.80383  0.32857  1.0000
  C   C190      1.0  0.18588  0.79724  0.35672  1.0000
  C   C191      1.0  0.17101  0.78269  0.36924  1.0000
  H   H288      1.0  0.13757  0.77497  0.31358  1.0000
  H   H289      1.0  0.16378  0.80054  0.29131  1.0000
  H   H290      1.0  0.19910  0.80359  0.36899  1.0000
  H   H291      1.0  0.17292  0.77800  0.39116  1.0000
  H   H292      1.0  0.18558  0.88246  0.36712  1.0000
  C   C192      1.0  0.00639  0.68308  0.44267  1.0000
  H   H293      1.0  0.16385  0.87801  0.24605  1.0000
  C   C193      1.0  0.28848  0.64209  0.14704  1.0000
  H   H294      1.0  0.19933  0.51997  0.99207  1.0000
  H   H295      1.0  0.21043  0.54894  0.21150  1.0000
  H   H296      1.0  0.04306  0.69539  0.38919  1.0000
  H   H297      1.0  0.03821  0.73271  0.39349  1.0000
  H   H298      1.0  0.19000  0.54337  0.17056  1.0000
  H   H299      1.0  0.20086  0.53972  0.24486  1.0000
  H   H300      1.0  0.25908  0.53764  0.07489  1.0000
  H   H301      1.0  0.24446  0.52262  0.00426  1.0000
  C   C194      1.0  0.16919  0.57278  0.24962  1.0000
  C   C195      1.0  0.98046  0.67971  0.32985  1.0000
  N   N13       1.0  0.17556  0.54186  0.21253  1.0000
  C   C196      1.0  0.19921  0.53715  0.22186  1.0000
  C   C197      1.0  0.17481  0.53754  0.18126  1.0000
  C   C198      1.0  0.16110  0.52643  0.22866  1.0000
  H   H302      1.0  0.20111  0.50078  0.22920  1.0000
  C   C199      1.0  0.15522  0.54851  0.16473  1.0000
  C   C200      1.0  0.13575  0.53043  0.22597  1.0000
  H   H303      1.0  0.15330  0.57164  0.20986  1.0000
  H   H304      1.0  0.17485  0.51940  0.17709  1.0000
  H   H305      1.0  0.16475  0.50896  0.22198  1.0000
  H   H306      1.0  0.16516  0.52598  0.25148  1.0000
  C   C201      1.0  0.01356  0.71977  0.42292  1.0000
  H   H307      1.0  0.18801  0.91906  0.25903  1.0000
  H   H308      1.0  0.15585  0.54216  0.14285  1.0000
  H   H309      1.0  0.15649  0.56678  0.16302  1.0000
  H   H310      1.0  0.22329  0.54378  0.00866  1.0000
  H   H311      1.0  0.13012  0.54800  0.22283  1.0000
  H   H312      1.0  0.12764  0.52537  0.24597  1.0000
  N   N14       1.0  0.18760  0.71722  0.30824  1.0000
  C   C202      1.0  0.19154  0.70457  0.33554  1.0000
  C   C203      1.0  0.19389  0.70146  0.28465  1.0000
  C   C204      1.0  0.16311  0.72337  0.30678  1.0000
  C   C205      1.0  0.20095  0.73770  0.30835  1.0000
  C   C206      1.0  0.18613  0.71748  0.36291  1.0000
  C   C207      1.0  0.21831  0.69254  0.28391  1.0000
  C   C208      1.0  0.15467  0.73523  0.27978  1.0000
  C   C209      1.0  0.20625  0.74859  0.27955  1.0000
  H   H313      1.0  0.18189  0.68927  0.33618  1.0000
  H   H314      1.0  0.20924  0.69879  0.33747  1.0000
  H   H315      1.0  0.19035  0.70882  0.26367  1.0000
  H   H316      1.0  0.18343  0.68679  0.28571  1.0000
  H   H317      1.0  0.15339  0.70834  0.30959  1.0000
  H   H318      1.0  0.15780  0.73445  0.32427  1.0000
  H   H319      1.0  0.19252  0.75079  0.32166  1.0000
  H   H320      1.0  0.21724  0.73385  0.31859  1.0000
  H   H321      1.0  0.19114  0.70684  0.38123  1.0000
  H   H322      1.0  0.19523  0.73291  0.36438  1.0000
  H   H323      1.0  0.16818  0.72146  0.36559  1.0000
  H   H324      1.0  0.23006  0.70585  0.28641  1.0000
  H   H325      1.0  0.22148  0.67944  0.30018  1.0000
  H   H326      1.0  0.22190  0.68456  0.26326  1.0000
  H   H327      1.0  0.13645  0.73839  0.28177  1.0000
  H   H328      1.0  0.15740  0.72497  0.26074  1.0000
  H   H329      1.0  0.16160  0.75175  0.27707  1.0000
  H   H330      1.0  0.20328  0.76691  0.28122  1.0000
  H   H331      1.0  0.19639  0.74337  0.26163  1.0000
  H   H332      1.0  0.22414  0.74584  0.27429  1.0000
  H   H333      1.0  0.05034  0.67861  0.44872  1.0000
  H   H334      1.0  0.23960  0.73946  0.15896  1.0000
  H   H335      1.0  0.18151  0.57673  0.20722  1.0000
  H   H336      1.0  0.21561  0.55870  0.05503  1.0000
  H   H337      1.0  0.29414  0.73006  0.19947  1.0000
  C   C210      1.0  0.98455  0.68036  0.42674  1.0000
  H   H338      1.0  0.27867  0.76593  0.17697  1.0000
  H   H339      1.0  0.26842  0.76847  0.14091  1.0000
  H   H340      1.0  0.16195  0.93072  0.32742  1.0000
  H   H341      1.0  0.12935  0.52035  0.20871  1.0000
  H   H342      1.0  0.25409  0.81074  0.48275  1.0000
  H   H343      1.0  0.02247  0.65117  0.40565  1.0000
  N   N15       1.0  0.02327  0.69641  0.42748  1.0000
  H   H344      1.0  0.18600  0.57208  0.25883  1.0000
  H   H345      1.0  0.13450  0.92616  0.31756  1.0000
  C   C211      1.0  0.23474  0.50418  0.06079  1.0000
  H   H346      1.0  0.23758  0.67658  0.15737  1.0000
  H   H347      1.0  0.27822  0.86970  0.44460  1.0000
  H   H348      1.0  0.18099  0.54586  0.07369  1.0000
  H   H349      1.0  0.05110  0.65754  0.41110  1.0000
  H   H350      1.0  0.27447  0.63735  0.10624  1.0000
  H   H351      1.0  0.22839  0.70424  0.16646  1.0000
  C   C212      1.0  0.20926  0.51347  0.21628  1.0000
  H   H352      1.0  0.04276  0.73964  0.42996  1.0000
  H   H353      1.0  0.01517  0.68933  0.38439  1.0000
  H   H354      1.0  0.19197  0.88530  0.23762  1.0000
  H   H355      1.0  0.22772  0.92432  0.26425  1.0000
  H   H356      1.0  0.05794  0.70354  0.43343  1.0000
  H   H357      1.0  0.18546  0.53648  0.03882  1.0000
  C   C213      1.0  0.21588  0.54126  0.06272  1.0000
  H   H358      1.0  0.26702  0.69637  0.18004  1.0000
  C   C214      1.0  0.25804  0.56058  0.03963  1.0000
  C   C215      1.0  0.30037  0.80140  0.25440  1.0000
  N   N16       1.0  0.23326  0.52701  0.04733  1.0000
  H   H359      1.0  0.98724  0.67182  0.40633  1.0000
  H   H360      1.0  0.20886  0.50894  0.19378  1.0000
  H   H361      1.0  0.24751  0.57335  0.05066  1.0000
  H   H362      1.0  0.28648  0.75369  0.10619  1.0000
  H   H363      1.0  0.26907  0.52659  0.04231  1.0000
  H   H364      1.0  0.22703  0.51268  0.22226  1.0000
  H   H365      1.0  0.23925  0.50541  0.08338  1.0000
  C   C216      1.0  0.27139  0.97022  0.31308  1.0000
  C   C217      1.0  0.29539  0.72355  0.15363  1.0000
  C   C218      1.0  0.03007  0.73713  0.41377  1.0000
  H   H366      1.0  0.00171  0.69086  0.46318  1.0000
  C   C219      1.0  0.21157  0.51067  0.00569  1.0000
  H   H367      1.0  0.25488  0.56166  0.01670  1.0000
  H   H368      1.0  0.25801  0.73453  0.18773  1.0000
  H   H369      1.0  0.27460  0.68650  0.14600  1.0000
  H   H370      1.0  0.18926  0.51752  0.06876  1.0000
  C   C220      1.0  0.28700  0.64541  0.11793  1.0000
  N   N17       1.0  0.27093  0.72219  0.14811  1.0000
  H   H371      1.0  0.15234  0.94087  0.29378  1.0000
  H   H372      1.0  0.15792  0.56278  0.26248  1.0000
  H   H373      1.0  0.17610  0.86546  0.33970  1.0000
  H   H374      1.0  0.22927  0.90832  0.29586  1.0000
  C   C221      1.0  0.03603  0.66165  0.39863  1.0000
  H   H375      1.0  0.19373  0.91276  0.33459  1.0000
  H   H376      1.0  0.17612  0.86317  0.29272  1.0000
  H   H377      1.0  0.21862  0.49632  0.06149  1.0000
  C   C222      1.0  0.26423  0.69941  0.15721  1.0000
  H   H378      1.0  0.00067  0.72012  0.40627  1.0000
  H   H379      1.0  0.01352  0.66623  0.44835  1.0000
  C   C223      1.0  0.18664  0.87545  0.28220  1.0000
  C   C224      1.0  0.21941  0.60575  0.98996  1.0000
  H   H380      1.0  0.28510  0.97207  0.29855  1.0000
  C   C225      1.0  0.19542  0.91541  0.28003  1.0000
  H   H381      1.0  0.15293  0.90638  0.27292  1.0000
  C   C226      1.0  0.19152  0.89614  0.32540  1.0000
  H   H382      1.0  0.25201  0.48140  0.14791  1.0000
  C   C227      1.0  0.02917  0.68667  0.39912  1.0000
  S   S72       1.0  0.31059  0.83551  0.29118  1.0000
  C   C228      1.0  0.26616  0.72479  0.11684  1.0000
  H   H383      1.0  0.02090  0.75339  0.41038  1.0000
  H   H384      1.0  0.25087  0.77460  0.17022  1.0000
  H   H385      1.0  0.24940  0.73289  0.11329  1.0000
  H   H386      1.0  0.26571  0.70827  0.10652  1.0000
  C   C229      1.0  0.23533  0.47913  0.14082  1.0000
  H   H387      1.0  0.30617  0.65022  0.18441  1.0000
  H   H388      1.0  0.20201  0.50240  0.02229  1.0000
  H   H389      1.0  0.29853  0.72692  0.09563  1.0000
  C   C230      1.0  0.04397  0.69601  0.44492  1.0000
  C   C231      1.0  0.98720  0.72448  0.33810  1.0000
  H   H390      1.0  0.18567  0.85707  0.24333  1.0000
  C   C232      1.0  0.25737  0.73916  0.16499  1.0000
  H   H391      1.0  0.27583  0.73965  0.07688  1.0000
  C   C233      1.0  0.17741  0.88294  0.34628  1.0000
  C   C234      1.0  0.25535  0.53703  0.05194  1.0000
  H   H392      1.0  0.14843  0.89129  0.30380  1.0000
  C   C235      1.0  0.22047  0.91018  0.27560  1.0000
  C   C236      1.0  0.15169  0.92689  0.30915  1.0000
  C   C237      1.0  0.18165  0.87433  0.25049  1.0000
  H   H393      1.0  0.20394  0.86862  0.28521  1.0000
  H   H394      1.0  0.20846  0.88798  0.32574  1.0000
  C   C238      1.0  0.15869  0.90458  0.29501  1.0000
  C   C239      1.0  0.23975  0.69441  0.15231  1.0000
  H   H395      1.0  0.98963  0.74194  0.34112  1.0000
  C   C240      1.0  0.25163  0.48721  0.04738  1.0000
  H   H396      1.0  0.22404  0.89517  0.26272  1.0000
  C   C241      1.0  0.19172  0.53448  0.06058  1.0000
  H   H397      1.0  0.16275  0.59036  0.25114  1.0000
  H   H398      1.0  0.21989  0.54189  0.08551  1.0000
  C   C242      1.0  0.30492  0.78743  0.23104  1.0000
  H   H399      1.0  0.00461  0.72615  0.44199  1.0000
  H   H400      1.0  0.27541  0.56518  0.04274  1.0000
  N   N18       1.0  0.18308  0.89793  0.29564  1.0000
  C   C243      1.0  0.30538  0.96455  0.43777  1.0000
  H   H401      1.0  0.21978  0.49768  0.99217  1.0000
  H   H402      1.0  0.30036  0.96072  0.36372  1.0000
  H   H403      1.0  0.30225  0.95491  0.45734  1.0000
  C   C244      1.0  0.25997  0.82729  0.48474  1.0000
  C   C245      1.0  0.30173  0.65925  0.10388  1.0000
  H   H404      1.0  0.30046  0.66165  0.08134  1.0000
  H   H405      1.0  0.30118  0.74019  0.14791  1.0000
  H   H406      1.0  0.23242  0.61735  0.99117  1.0000
  H   H407      1.0  0.30167  0.70131  0.19040  1.0000
  C   C246      1.0  0.30300  0.71896  0.18416  1.0000
  H   H408      1.0  0.30223  0.95332  0.42007  1.0000
  C   C247      1.0  0.30486  0.65275  0.16190  1.0000
  H   H409      1.0  0.02887  0.72026  0.47572  1.0000
  H   H410      1.0  0.24998  0.48624  0.02426  1.0000
  C   C248      1.0  0.30673  0.97651  0.37138  1.0000
  H   H411      1.0  0.26890  0.49075  0.05276  1.0000
  H   H412      1.0  0.30514  0.71164  0.14009  1.0000
  H   H413      1.0  0.05749  0.71365  0.48011  1.0000
  C   C249      1.0  0.18554  0.57637  0.98645  1.0000
  H   H414      1.0  0.08801  0.65128  0.48503  1.0000
  Fe  Fe37      1.0  0.26194  0.86021  0.59159  1.0000
  S   S73       1.0  0.22678  0.86912  0.60437  1.0000
  S   S74       1.0  0.27609  0.86869  0.54815  1.0000
  Fe  Fe38      1.0  0.27552  0.84755  0.65319  1.0000
  S   S75       1.0  0.24108  0.85658  0.66986  1.0000
  H   H415      1.0  0.26742  0.78273  0.82676  1.0000
  Fe  Fe39      1.0  0.22855  0.83839  0.63221  1.0000
  S   S76       1.0  0.20914  0.80659  0.63102  1.0000
  Fe  Fe40      1.0  0.24194  0.88696  0.64061  1.0000
  S   S77       1.0  0.22814  0.92299  0.64863  1.0000
  S   S78       1.0  0.26301  0.82855  0.61667  1.0000
  S   S79       1.0  0.27705  0.87894  0.62673  1.0000
  Fe  Fe41      1.0  0.19269  0.59574  0.82373  1.0000
  S   S80       1.0  0.22508  0.57967  0.80770  1.0000
  S   S81       1.0  0.16606  0.61871  0.80135  1.0000
  Fe  Fe42      1.0  0.20181  0.57888  0.88473  1.0000
  S   S82       1.0  0.23444  0.56240  0.87230  1.0000
  S   S83       1.0  0.18665  0.57398  0.92863  1.0000
  Fe  Fe43      1.0  0.24010  0.59336  0.84679  1.0000
  S   S84       1.0  0.27520  0.60569  0.85042  1.0000
  Fe  Fe44      1.0  0.21704  0.54959  0.83464  1.0000
  S   S85       1.0  0.22857  0.51338  0.82393  1.0000
  S   S86       1.0  0.20839  0.61080  0.86185  1.0000
  S   S87       1.0  0.18374  0.56481  0.84810  1.0000
  Fe  Fe45      1.0  0.10279  0.70235  0.59687  1.0000
  S   S88       1.0  0.07849  0.72721  0.61685  1.0000
  S   S89       1.0  0.10963  0.71000  0.55010  1.0000
  Fe  Fe46      1.0  0.11574  0.68178  0.65598  1.0000
  S   S90       1.0  0.09221  0.70598  0.67849  1.0000
  S   S91       1.0  0.13835  0.65412  0.67710  1.0000
  Fe  Fe47      1.0  0.06736  0.69919  0.64445  1.0000
  S   S92       1.0  0.03234  0.68587  0.65170  1.0000
  Fe  Fe48      1.0  0.10551  0.73176  0.64852  1.0000
  S   S93       1.0  0.11498  0.76698  0.65935  1.0000
  S   S94       1.0  0.09061  0.67384  0.62281  1.0000
  S   S95       1.0  0.13010  0.70797  0.62775  1.0000
  C   C250      1.0  0.99737  0.71867  0.65201  1.0000
  C   C251      1.0  0.00388  0.69604  0.65351  1.0000
  C   C252      1.0  0.09387  0.66783  0.48694  1.0000
  H   H416      1.0  0.00986  0.73081  0.64987  1.0000
  H   H417      1.0  0.15811  0.75128  0.48724  1.0000
  C   C253      1.0  0.21728  0.48643  0.82551  1.0000
  H   H418      1.0  0.18709  0.72590  0.54870  1.0000
  H   H419      1.0  0.99126  0.66584  0.59121  1.0000
  C   C254      1.0  0.29002  0.54052  0.84205  1.0000
  H   H420      1.0  0.20615  0.95130  0.57157  1.0000
  C   C255      1.0  0.15934  0.62878  0.76651  1.0000
  C   C256      1.0  0.14314  0.64638  0.76331  1.0000
  C   C257      1.0  0.13692  0.65473  0.73636  1.0000
  C   C258      1.0  0.14654  0.64537  0.71196  1.0000
  C   C259      1.0  0.16258  0.62766  0.71515  1.0000
  C   C260      1.0  0.16906  0.61953  0.74211  1.0000
  H   H421      1.0  0.13545  0.65377  0.78187  1.0000
  H   H422      1.0  0.12468  0.66839  0.73450  1.0000
  H   H423      1.0  0.17013  0.62014  0.69656  1.0000
  H   H424      1.0  0.18142  0.60595  0.74396  1.0000
  C   C261      1.0  0.23871  0.95000  0.64353  1.0000
  C   C262      1.0  0.26137  0.95331  0.64013  1.0000
  H   H425      1.0  0.25463  0.75852  0.81542  1.0000
  H   H426      1.0  0.27313  0.93913  0.64022  1.0000
  H   H427      1.0  0.27704  0.57678  0.79667  1.0000
  C   C263      1.0  0.18303  0.79630  0.64109  1.0000
  C   C264      1.0  0.16436  0.81020  0.64745  1.0000
  C   C265      1.0  0.14375  0.80100  0.65351  1.0000
  C   C266      1.0  0.14153  0.77785  0.65334  1.0000
  C   C267      1.0  0.16035  0.76400  0.64780  1.0000
  C   C268      1.0  0.18084  0.77316  0.64142  1.0000
  H   H428      1.0  0.16570  0.82802  0.64731  1.0000
  H   H429      1.0  0.12937  0.81190  0.65801  1.0000
  H   H430      1.0  0.15910  0.74618  0.64836  1.0000
  H   H431      1.0  0.19515  0.76221  0.63676  1.0000
  C   C269      1.0  0.17741  0.77600  0.55834  1.0000
  C   C270      1.0  0.14226  0.60464  0.89244  1.0000
  H   H432      1.0  0.10925  0.63704  0.88677  1.0000
  C   C271      1.0  0.28528  0.63211  0.84170  1.0000
  H   H433      1.0  0.13242  0.75017  0.53120  1.0000
  H   H434      1.0  0.05848  0.67764  0.70892  1.0000
  C   C272      1.0  0.23711  0.94971  0.52718  1.0000
  H   H435      1.0  0.25150  0.90716  0.52570  1.0000
  C   C273      1.0  0.15998  0.74179  0.57468  1.0000
  H   H436      1.0  0.27978  0.92969  0.58802  1.0000
  H   H437      1.0  0.30480  0.51573  0.76350  1.0000
  H   H438      1.0  0.05920  0.65486  0.73274  1.0000
  H   H439      1.0  0.28445  0.78960  0.78246  1.0000
  H   H440      1.0  0.16505  0.81109  0.55521  1.0000
  C   C274      1.0  0.09662  0.67681  0.51397  1.0000
  C   C275      1.0  0.10466  0.69801  0.51677  1.0000
  C   C276      1.0  0.26033  0.78524  0.72271  1.0000
  H   H441      1.0  0.09295  0.66717  0.53261  1.0000
  H   H442      1.0  0.16161  0.72856  0.51207  1.0000
  C   C277      1.0  0.21338  0.59771  0.96349  1.0000
  C   C278      1.0  0.19626  0.58311  0.96157  1.0000
  C   C279      1.0  0.23618  0.97360  0.53876  1.0000
  H   H443      1.0  0.22170  0.60315  0.94456  1.0000
  H   H444      1.0  0.03772  0.69364  0.49051  1.0000
  H   H445      1.0  0.97921  0.71233  0.56619  1.0000
  C   C280      1.0  0.27042  0.85748  0.51464  1.0000
  C   C281      1.0  0.26198  0.83649  0.51175  1.0000
  H   H446      1.0  0.25833  0.80100  0.73457  1.0000
  H   H447      1.0  0.25772  0.82700  0.53029  1.0000
  N   N19       1.0  0.30784  0.68191  0.92047  1.0000
  H   H448      1.0  0.20625  0.96662  0.64617  1.0000
  H   H449      1.0  0.17598  0.62356  0.91620  1.0000
  H   H450      1.0  0.31005  0.72197  0.88934  1.0000
  H   H451      1.0  0.10115  0.66759  0.91941  1.0000
  N   N20       1.0  0.29318  0.54414  0.78801  1.0000
  C   C282      1.0  0.26157  0.74216  0.75808  1.0000
  C   C283      1.0  0.23421  0.90972  0.53368  1.0000
  C   C284      1.0  0.28041  0.66990  0.82348  1.0000
  H   H452      1.0  0.29070  0.72912  0.91734  1.0000
  C   C285      1.0  0.24971  0.97284  0.71576  1.0000
  C   C286      1.0  0.26976  0.53667  0.78662  1.0000
  H   H453      1.0  0.16269  0.64940  0.92529  1.0000
  H   H454      1.0  0.23253  0.89562  0.54875  1.0000
  H   H455      1.0  0.18056  0.75092  0.51041  1.0000
  N   N21       1.0  0.27891  0.75920  0.76048  1.0000
  C   C287      1.0  0.12790  0.59827  0.86733  1.0000
  H   H456      1.0  0.13702  0.63123  0.95877  1.0000
  H   H457      1.0  0.21690  0.88809  0.50594  1.0000
  H   H458      1.0  0.29359  0.80006  0.56009  1.0000
  N   N22       1.0  0.14354  0.62921  0.89770  1.0000
  H   H459      1.0  0.27574  0.96262  0.76337  1.0000
  C   C288      1.0  0.19450  0.48347  0.82794  1.0000
  C   C289      1.0  0.30192  0.83038  0.73222  1.0000
  H   H460      1.0  0.11559  0.72664  0.49398  1.0000
  H   H461      1.0  0.27552  0.53005  0.84465  1.0000
  H   H462      1.0  0.11324  0.62870  0.92231  1.0000
  S   S96       1.0  0.30603  0.82917  0.67336  1.0000
  C   C290      1.0  0.26411  0.72138  0.77732  1.0000
  H   H463      1.0  0.20278  0.91433  0.50953  1.0000
  H   H464      1.0  0.30078  0.53719  0.86060  1.0000
  H   H465      1.0  0.27824  0.65965  0.95805  1.0000
  H   H466      1.0  0.25600  0.78496  0.77715  1.0000
  C   C291      1.0  0.27224  0.77641  0.78225  1.0000
  C   C292      1.0  0.20744  0.93653  0.55762  1.0000
  H   H467      1.0  0.26943  0.51830  0.78963  1.0000
  H   H468      1.0  0.00763  0.68945  0.59177  1.0000
  C   C293      1.0  0.25687  0.54271  0.75947  1.0000
  C   C294      1.0  0.16624  0.66026  0.87375  1.0000
  H   H469      1.0  0.20607  0.91381  0.59411  1.0000
  H   H470      1.0  0.26092  0.73566  0.73624  1.0000
  H   H471      1.0  0.29161  0.69351  0.95890  1.0000
  H   H472      1.0  0.26267  0.53217  0.74158  1.0000
  C   C295      1.0  0.24579  0.93165  0.57339  1.0000
  C   C296      1.0  0.30209  0.65786  0.92223  1.0000
  H   H473      1.0  0.24164  0.94628  0.58682  1.0000
  H   H474      1.0  0.12901  0.66666  0.93157  1.0000
  H   H475      1.0  0.29523  0.96546  0.71456  1.0000
  H   H476      1.0  0.18179  0.71247  0.58149  1.0000
  H   H477      1.0  0.24494  0.77605  0.72424  1.0000
  C   C297      1.0  0.26386  0.97390  0.77476  1.0000
  C   C298      1.0  0.19698  0.91768  0.57439  1.0000
  H   H478      1.0  0.99190  0.66312  0.65782  1.0000
  H   H479      1.0  0.25749  0.56054  0.75376  1.0000
  H   H480      1.0  0.13828  0.64447  0.85629  1.0000
  H   H481      1.0  0.14157  0.77557  0.51945  1.0000
  H   H482      1.0  0.19596  0.73765  0.58143  1.0000
  H   H483      1.0  0.13297  0.60613  0.84723  1.0000
  H   H484      1.0  0.14701  0.73018  0.56937  1.0000
  C   C299      1.0  0.26895  0.97508  0.63753  1.0000
  H   H485      1.0  0.00141  0.67788  0.55869  1.0000
  H   H486      1.0  0.17068  0.79785  0.52140  1.0000
  H   H487      1.0  0.17980  0.92316  0.58067  1.0000
  C   C300      1.0  0.27157  0.64937  0.83059  1.0000
  H   H488      1.0  0.16562  0.62536  0.96602  1.0000
  H   H489      1.0  0.28117  0.72559  0.88225  1.0000
  C   C301      1.0  0.15949  0.63173  0.92160  1.0000
  H   H490      1.0  0.19277  0.80566  0.54326  1.0000
  H   H491      1.0  0.15823  0.74437  0.59770  1.0000
  H   H492      1.0  0.10801  0.58923  0.73965  1.0000
  C   C302      1.0  0.12055  0.63852  0.90490  1.0000
  H   H493      1.0  0.24903  0.71173  0.77568  1.0000
  H   H494      1.0  0.30462  0.51609  0.81384  1.0000
  H   H495      1.0  0.15040  0.60440  0.95056  1.0000
  C   C303      1.0  0.30576  0.53417  0.76319  1.0000
  C   C304      1.0  0.13905  0.77774  0.57467  1.0000
  C   C305      1.0  0.11716  0.76672  0.58195  1.0000
  H   H496      1.0  0.14585  0.78351  0.59484  1.0000
  H   H497      1.0  0.13418  0.79309  0.56256  1.0000
  H   H498      1.0  0.10794  0.76229  0.56297  1.0000
  H   H499      1.0  0.11980  0.75186  0.59566  1.0000
  H   H500      1.0  0.10622  0.77866  0.59405  1.0000
  H   H501      1.0  0.28803  0.68622  0.88287  1.0000
  H   H502      1.0  0.26541  0.65925  0.92353  1.0000
  C   C306      1.0  0.30156  0.74907  0.76769  1.0000
  H   H503      1.0  0.10057  0.58217  0.70480  1.0000
  H   H504      1.0  0.18312  0.77859  0.58026  1.0000
  N   N23       1.0  0.23110  0.93190  0.54791  1.0000
  H   H505      1.0  0.11001  0.60212  0.87139  1.0000
  H   H506      1.0  0.15828  0.67361  0.88670  1.0000
  H   H507      1.0  0.27353  0.69380  0.91443  1.0000
  H   H508      1.0  0.02951  0.64585  0.69539  1.0000
  H   H509      1.0  0.28849  0.84275  0.72920  1.0000
  C   C307      1.0  0.14760  0.75978  0.52983  1.0000
  H   H510      1.0  0.08421  0.66859  0.72545  1.0000
  H   H511      1.0  0.07959  0.58484  0.73241  1.0000
  H   H512      1.0  0.22134  0.96924  0.74509  1.0000
  H   H513      1.0  0.15917  0.59693  0.88860  1.0000
  C   C308      1.0  0.28993  0.69426  0.90368  1.0000
  H   H514      1.0  0.24930  0.96465  0.78167  1.0000
  H   H515      1.0  0.13558  0.59583  0.91107  1.0000
  H   H516      1.0  0.19637  0.94113  0.53969  1.0000
  C   C309      1.0  0.16303  0.74676  0.50912  1.0000
  N   N24       1.0  0.07409  0.62320  0.69567  1.0000
  C   C310      1.0  0.07845  0.61130  0.66820  1.0000
  C   C311      1.0  0.05175  0.61688  0.70679  1.0000
  C   C312      1.0  0.09157  0.61679  0.71706  1.0000
  C   C313      1.0  0.07455  0.64782  0.69038  1.0000
  C   C314      1.0  0.10174  0.61324  0.65501  1.0000
  C   C315      1.0  0.03143  0.62772  0.69146  1.0000
  C   C316      1.0  0.09485  0.59174  0.72355  1.0000
  C   C317      1.0  0.06883  0.66285  0.71595  1.0000
  H   H517      1.0  0.07565  0.59327  0.67043  1.0000
  H   H518      1.0  0.06651  0.61760  0.65192  1.0000
  H   H519      1.0  0.04972  0.62059  0.72958  1.0000
  H   H520      1.0  0.05022  0.59859  0.70566  1.0000
  H   H521      1.0  0.10790  0.62290  0.71055  1.0000
  H   H522      1.0  0.08777  0.62513  0.73749  1.0000
  H   H523      1.0  0.09129  0.65227  0.68313  1.0000
  H   H524      1.0  0.06372  0.65319  0.67252  1.0000
  H   H525      1.0  0.11523  0.60674  0.66895  1.0000
  H   H526      1.0  0.10295  0.60326  0.63549  1.0000
  H   H527      1.0  0.10475  0.63053  0.64865  1.0000
  H   H528      1.0  0.03216  0.62491  0.66845  1.0000
  H   H529      1.0  0.01613  0.62037  0.69966  1.0000
  N   N25       1.0  0.15636  0.76358  0.55888  1.0000
  H   H530      1.0  0.16923  0.66732  0.85241  1.0000
  H   H531      1.0  0.26610  0.72530  0.79977  1.0000
  C   C318      1.0  0.17600  0.79892  0.54357  1.0000
  C   C319      1.0  0.18259  0.72897  0.57095  1.0000
  H   H532      1.0  0.25421  0.64683  0.82717  1.0000
  C   C320      1.0  0.29339  0.71911  0.89802  1.0000
  H   H533      1.0  0.29494  0.78223  0.73277  1.0000
  H   H534      1.0  0.19132  0.76638  0.54805  1.0000
  H   H535      1.0  0.24285  0.91695  0.58705  1.0000
  H   H536      1.0  0.29821  0.53999  0.74301  1.0000
  H   H537      1.0  0.30184  0.65072  0.90071  1.0000
  H   H538      1.0  0.26964  0.68300  0.81465  1.0000
  H   H539      1.0  0.26265  0.79009  0.70026  1.0000
  H   H540      1.0  0.18279  0.65537  0.88252  1.0000
  C   C321      1.0  0.11862  0.66314  0.91325  1.0000
  C   C322      1.0  0.15236  0.62254  0.95060  1.0000
  C   C323      1.0  0.10944  0.71021  0.49220  1.0000
  H   H541      1.0  0.24470  0.74997  0.76205  1.0000
  C   C324      1.0  0.27101  0.93121  0.56760  1.0000
  H   H542      1.0  0.27845  0.63476  0.93810  1.0000
  H   H543      1.0  0.30082  0.83283  0.57947  1.0000
  C   C325      1.0  0.27971  0.65306  0.93638  1.0000
  H   H544      1.0  0.12266  0.67408  0.89526  1.0000
  C   C326      1.0  0.98719  0.68065  0.65647  1.0000
  H   H545      1.0  0.13000  0.58002  0.86428  1.0000
  C   C327      1.0  0.15210  0.63982  0.87093  1.0000
  C   C328      1.0  0.30844  0.69239  0.94912  1.0000
  H   H546      1.0  0.22579  0.95000  0.50881  1.0000
  H   H547      1.0  0.25952  0.54406  0.80406  1.0000
  C   C329      1.0  0.29247  0.56925  0.78680  1.0000
  H   H548      1.0  0.16300  0.62774  0.85899  1.0000
  H   H549      1.0  0.19583  0.90242  0.56178  1.0000
  C   C330      1.0  0.26970  0.76809  0.81279  1.0000
  H   H550      1.0  0.28452  0.75840  0.82052  1.0000
  H   H551      1.0  0.28656  0.97734  0.63563  1.0000
  H   H552      1.0  0.18306  0.49783  0.82961  1.0000
  H   H553      1.0  0.28492  0.75910  0.71527  1.0000
  C   C331      1.0  0.28094  0.77109  0.73249  1.0000
  H   H554      1.0  0.22372  0.94921  0.71738  1.0000
  H   H555      1.0  0.27830  0.71014  0.77065  1.0000
  C   C332      1.0  0.99444  0.68148  0.57996  1.0000
  C   C333      1.0  0.21954  0.90613  0.50786  1.0000
  H   H556      1.0  0.23913  0.53929  0.76302  1.0000
  C   C334      1.0  0.22381  0.96885  0.64358  1.0000
  H   H557      1.0  0.27697  0.91676  0.55492  1.0000
  H   H558      1.0  0.27614  0.94677  0.55743  1.0000
  H   H559      1.0  0.25396  0.94605  0.51805  1.0000
  C   C335      1.0  0.30296  0.67358  0.82763  1.0000
  H   H560      1.0  0.29995  0.83149  0.77766  1.0000
  H   H561      1.0  0.26057  0.95859  0.72296  1.0000
  H   H562      1.0  0.28415  0.55823  0.84253  1.0000
  H   H563      1.0  0.30108  0.72291  0.73531  1.0000
  C   C336      1.0  0.30850  0.82395  0.75975  1.0000
  C   C337      1.0  0.22569  0.96694  0.72257  1.0000
  H   H564      1.0  0.29840  0.78884  0.59418  1.0000
  H   H565      1.0  0.30713  0.59909  0.80140  1.0000
  H   H566      1.0  0.30121  0.73917  0.78740  1.0000
  H   H567      1.0  0.25159  0.97266  0.69254  1.0000
  H   H568      1.0  0.21368  0.97678  0.70927  1.0000
  C   C338      1.0  0.30310  0.53459  0.81481  1.0000
  H   H569      1.0  0.22767  0.91193  0.48822  1.0000
  H   H570      1.0  0.28283  0.88558  0.49216  1.0000
  H   H571      1.0  0.24720  0.97537  0.55702  1.0000
  C   C339      1.0  0.27607  0.86943  0.49021  1.0000
  H   H572      1.0  0.30836  0.82823  0.53039  1.0000
  C   C340      1.0  0.30786  0.63573  0.84583  1.0000
  C   C341      1.0  0.30652  0.79761  0.57647  1.0000
  H   H573      1.0  0.29138  0.57520  0.76457  1.0000
  H   H574      1.0  0.17209  0.56529  0.98516  1.0000
  Fe  Fe49      1.0  0.35012  0.18034  0.14976  1.0000
  S   S97       1.0  0.36815  0.20404  0.17607  1.0000
  S   S98       1.0  0.33075  0.15201  0.16999  1.0000
  Fe  Fe50      1.0  0.36695  0.20179  0.09370  1.0000
  S   S99       1.0  0.38533  0.22681  0.11799  1.0000
  S   S100      1.0  0.37634  0.20782  0.04741  1.0000
  Fe  Fe51      1.0  0.39718  0.19854  0.14585  1.0000
  S   S101      1.0  0.43281  0.18667  0.15774  1.0000
  Fe  Fe52      1.0  0.35460  0.23001  0.14513  1.0000
  H   H575      1.0  0.59698  0.23858  0.03168  1.0000
  S   S102      1.0  0.37986  0.17319  0.12096  1.0000
  S   S103      1.0  0.33544  0.20668  0.11968  1.0000
  Fe  Fe53      1.0  0.56862  0.20981  0.13393  1.0000
  S   S104      1.0  0.58757  0.17618  0.13460  1.0000
  S   S105      1.0  0.53095  0.21951  0.13302  1.0000
  Fe  Fe54      1.0  0.61178  0.23502  0.12345  1.0000
  S   S106      1.0  0.63268  0.20334  0.12349  1.0000
  C   C342      1.0  0.35644  0.26781  0.07345  1.0000
  Fe  Fe55      1.0  0.60627  0.18946  0.09700  1.0000
  S   S107      1.0  0.61960  0.17139  0.05787  1.0000
  Fe  Fe56      1.0  0.61281  0.19270  0.16143  1.0000
  H   H576      1.0  0.42242  0.15056  0.19525  1.0000
  S   S108      1.0  0.58632  0.22162  0.09485  1.0000
  S   S109      1.0  0.59288  0.22579  0.16274  1.0000
  C   C343      1.0  0.60784  0.17648  0.02419  1.0000
  H   H577      1.0  0.62458  0.06541  0.27737  1.0000
  C   C344      1.0  0.58545  0.18314  0.02121  1.0000
  H   H578      1.0  0.40245  0.12416  0.25806  1.0000
  H   H579      1.0  0.57500  0.18536  0.03972  1.0000
  H   H580      1.0  0.37249  0.15002  0.24671  1.0000
  H   H581      1.0  0.46975  0.20471  0.03224  1.0000
  H   H582      1.0  0.49852  0.20138  0.06370  1.0000
  H   H583      1.0  0.34272  0.26416  0.08829  1.0000
  H   H584      1.0  0.58495  0.27451  0.01508  1.0000
  H   H585      1.0  0.61674  0.13662  0.21516  1.0000
  C   C345      1.0  0.45990  0.19617  0.15037  1.0000
  C   C346      1.0  0.46334  0.21743  0.13961  1.0000
  C   C347      1.0  0.48513  0.22419  0.13456  1.0000
  C   C348      1.0  0.50386  0.20983  0.13996  1.0000
  C   C349      1.0  0.50038  0.18848  0.15046  1.0000
  C   C350      1.0  0.47860  0.18178  0.15573  1.0000
  H   H586      1.0  0.44926  0.22882  0.13559  1.0000
  H   H587      1.0  0.48753  0.24076  0.12654  1.0000
  H   H588      1.0  0.51451  0.17722  0.15480  1.0000
  H   H589      1.0  0.47627  0.16532  0.16412  1.0000
  H   H590      1.0  0.63501  0.12361  0.10034  1.0000
  C   C351      1.0  0.36630  0.20192  0.01331  1.0000
  C   C352      1.0  0.34676  0.19101  0.00920  1.0000
  H   H591      1.0  0.47721  0.17649  0.02905  1.0000
  H   H592      1.0  0.33734  0.18545  0.02718  1.0000
  C   C353      1.0  0.37826  0.20905  0.98957  1.0000
  H   H593      1.0  0.36828  0.16038  0.21190  1.0000
  H   H594      1.0  0.31602  0.32439  0.07124  1.0000
  C   C354      1.0  0.43510  0.22294  0.06670  1.0000
  H   H595      1.0  0.45599  0.17433  0.99110  1.0000
  H   H596      1.0  0.41570  0.09245  0.21909  1.0000
  C   C355      1.0  0.41330  0.12550  0.16642  1.0000
  H   H597      1.0  0.42832  0.23205  0.08535  1.0000
  C   C356      1.0  0.44943  0.15330  0.09153  1.0000
  C   C357      1.0  0.32770  0.29356  0.05166  1.0000
  C   C358      1.0  0.33160  0.31368  0.07028  1.0000
  H   H598      1.0  0.42415  0.13332  0.15054  1.0000
  H   H599      1.0  0.38659  0.10344  0.19609  1.0000
  C   C359      1.0  0.37848  0.11770  0.20737  1.0000
  H   H600      1.0  0.42307  0.13895  0.24151  1.0000
  H   H601      1.0  0.42261  0.11064  0.17480  1.0000
  H   H602      1.0  0.32952  0.17575  0.22435  1.0000
  H   H603      1.0  0.45735  0.14812  0.04777  1.0000
  H   H604      1.0  0.36621  0.12497  0.19209  1.0000
  H   H605      1.0  0.43269  0.20310  0.01623  1.0000
  H   H606      1.0  0.37663  0.09876  0.24741  1.0000
  H   H607      1.0  0.42976  0.09644  0.25059  1.0000
  H   H608      1.0  0.35442  0.11997  0.24299  1.0000
  H   H609      1.0  0.43889  0.15276  0.00503  1.0000
  S   S110      1.0  0.63482  0.17967  0.19870  1.0000
  H   H610      1.0  0.39842  0.12050  0.15503  1.0000
  C   C360      1.0  0.39459  0.17489  0.23437  1.0000
  H   H611      1.0  0.43512  0.15928  0.10480  1.0000
  C   C361      1.0  0.36443  0.28910  0.02899  1.0000
  H   H612      1.0  0.47804  0.19539  0.08851  1.0000
  H   H613      1.0  0.38122  0.26360  0.00211  1.0000
  H   H614      1.0  0.37057  0.30365  0.03989  1.0000
  H   H615      1.0  0.49416  0.17277  0.07250  1.0000
  C   C362      1.0  0.62114  0.17358  0.99984  1.0000
  H   H616      1.0  0.45206  0.22860  0.06304  1.0000
  C   C363      1.0  0.37305  0.28156  0.08961  1.0000
  H   H617      1.0  0.45109  0.13498  0.09445  1.0000
  C   C364      1.0  0.62362  0.05602  0.29754  1.0000
  H   H618      1.0  0.62958  0.15120  0.11210  1.0000
  C   C365      1.0  0.31469  0.15363  0.25464  1.0000
  C   C366      1.0  0.63797  0.12296  0.24837  1.0000
  H   H619      1.0  0.63290  0.28907  0.01880  1.0000
  C   C367      1.0  0.31750  0.27957  0.14440  1.0000
  H   H620      1.0  0.36525  0.25148  0.06929  1.0000
  H   H621      1.0  0.39188  0.26392  0.03748  1.0000
  H   H622      1.0  0.60831  0.30334  0.03139  1.0000
  H   H623      1.0  0.41463  0.18291  0.02909  1.0000
  H   H624      1.0  0.61005  0.21956  0.00781  1.0000
  H   H625      1.0  0.63221  0.06512  0.31398  1.0000
  H   H626      1.0  0.42863  0.15231  0.05581  1.0000
  N   N26       1.0  0.34731  0.27756  0.04629  1.0000
  C   C368      1.0  0.63292  0.03178  0.29430  1.0000
  H   H627      1.0  0.44286  0.19536  0.09384  1.0000
  H   H628      1.0  0.36967  0.27992  0.11257  1.0000
  H   H629      1.0  0.32624  0.23771  0.06257  1.0000
  H   H630      1.0  0.39027  0.27455  0.08646  1.0000
  H   H631      1.0  0.34464  0.32419  0.06182  1.0000
  N   N27       1.0  0.39469  0.13478  0.21513  1.0000
  H   H632      1.0  0.35686  0.29622  0.00935  1.0000
  C   C369      1.0  0.61582  0.28659  0.02644  1.0000
  H   H633      1.0  0.44005  0.10870  0.21851  1.0000
  C   C370      1.0  0.63118  0.13904  0.22779  1.0000
  H   H634      1.0  0.32807  0.99810  0.41274  1.0000
  C   C371      1.0  0.44523  0.15874  0.06015  1.0000
  H   H635      1.0  0.39676  0.15601  0.17802  1.0000
  C   C372      1.0  0.38137  0.15451  0.22702  1.0000
  C   C373      1.0  0.42482  0.10487  0.23053  1.0000
  N   N28       1.0  0.44594  0.18281  0.05097  1.0000
  H   H636      1.0  0.35453  0.09502  0.22357  1.0000
  C   C374      1.0  0.43511  0.19778  0.07299  1.0000
  H   H637      1.0  0.37238  0.29953  0.08491  1.0000
  C   C375      1.0  0.46937  0.18866  0.04405  1.0000
  C   C376      1.0  0.36549  0.10753  0.23205  1.0000
  H   H638      1.0  0.31280  0.98519  0.35227  1.0000
  H   H639      1.0  0.62862  0.10829  0.25118  1.0000
  H   H640      1.0  0.61604  0.27713  0.04660  1.0000
  H   H641      1.0  0.40586  0.17143  0.25234  1.0000
  C   C377      1.0  0.33928  0.25899  0.02852  1.0000
  H   H642      1.0  0.33702  0.03152  0.39065  1.0000
  H   H643      1.0  0.41758  0.19346  0.07658  1.0000
  C   C378      1.0  0.48570  0.18934  0.06871  1.0000
  H   H644      1.0  0.33287  0.26555  0.00797  1.0000
  H   H645      1.0  0.56794  0.23499  0.00218  1.0000
  H   H646      1.0  0.63258  0.10939  0.15055  1.0000
  C   C379      1.0  0.43237  0.18581  0.02452  1.0000
  H   H647      1.0  0.38273  0.18864  0.24094  1.0000
  H   H648      1.0  0.39334  0.21760  0.99242  1.0000
  C   C380      1.0  0.40688  0.14273  0.18924  1.0000
  C   C381      1.0  0.32069  0.14553  0.20470  1.0000
  H   H649      1.0  0.42419  0.22791  0.04884  1.0000
  S   S111      1.0  0.62622  0.26735  0.10776  1.0000
  C   C382      1.0  0.64272  0.15845  0.22413  1.0000
  C   C383      1.0  0.38502  0.27441  0.02002  1.0000
  H   H650      1.0  0.46475  0.16009  0.09951  1.0000
  H   H651      1.0  0.33513  0.30848  0.09233  1.0000
  H   H652      1.0  0.62586  0.02207  0.31179  1.0000
  C   C384      1.0  0.41080  0.12631  0.23725  1.0000
  H   H653      1.0  0.63024  0.35668  0.15647  1.0000
  H   H654      1.0  0.40411  0.18123  0.21615  1.0000
  N   N29       1.0  0.60976  0.25346  0.99344  1.0000
  C   C385      1.0  0.57639  0.18638  0.99419  1.0000
  H   H655      1.0  0.60833  0.12465  0.13864  1.0000
  H   H656      1.0  0.35317  0.24693  0.02314  1.0000
  H   H657      1.0  0.63847  0.16839  0.00192  1.0000
  C   C386      1.0  0.62724  0.37475  0.15933  1.0000
  H   H658      1.0  0.62823  0.23105  0.05681  1.0000
  H   H659      1.0  0.62535  0.02510  0.27507  1.0000
  H   H660      1.0  0.31616  0.16490  0.27201  1.0000
  H   H661      1.0  0.61276  0.37685  0.17387  1.0000
  C   C387      1.0  0.61130  0.23631  0.01683  1.0000
  H   H662      1.0  0.55892  0.19104  0.99213  1.0000
  S   S112      1.0  0.33959  0.26339  0.16010  1.0000
  C   C388      1.0  0.31905  0.02846  0.39102  1.0000
  H   H663      1.0  0.60580  0.05608  0.30359  1.0000
  H   H664      1.0  0.31672  0.01903  0.43475  1.0000
  C   C389      1.0  0.60137  0.27574  0.00451  1.0000
  C   C390      1.0  0.63832  0.13506  0.11781  1.0000
  H   H665      1.0  0.62171  0.38246  0.13908  1.0000
  C   C391      1.0  0.31440  0.01098  0.41403  1.0000
  H   H666      1.0  0.32070  0.30005  0.03138  1.0000
  H   H667      1.0  0.64207  0.25006  0.03515  1.0000
  H   H668      1.0  0.32171  0.30729  0.17175  1.0000
  C   C392      1.0  0.63271  0.23485  0.03458  1.0000
  H   H669      1.0  0.39828  0.28520  0.01258  1.0000
  H   H670      1.0  0.62629  0.13770  0.16195  1.0000
  C   C393      1.0  0.62606  0.12613  0.14396  1.0000
  C   C394      1.0  0.32235  0.15985  0.22754  1.0000
  C   C395      1.0  0.43940  0.17066  0.99960  1.0000
  H   H671      1.0  0.31457  0.02313  0.36967  1.0000
  H   H672      1.0  0.64460  0.26142  0.99205  1.0000
  H   H673      1.0  0.64089  0.98800  0.31558  1.0000
  H   H674      1.0  0.64384  0.22059  0.02781  1.0000
  C   C396      1.0  0.32125  0.24484  0.04184  1.0000
  H   H675      1.0  0.31870  0.23054  0.02787  1.0000
  H   H676      1.0  0.64313  0.39015  0.19413  1.0000
  H   H677      1.0  0.31410  0.28508  0.06234  1.0000
  H   H678      1.0  0.64280  0.34453  0.19994  1.0000
  H   H679      1.0  0.59877  0.28785  0.98678  1.0000
  C   C397      1.0  0.31229  0.30106  0.15455  1.0000
  Fe  Fe57      1.0  0.34997  0.18685  0.81582  1.0000
  S   S113      1.0  0.37512  0.21186  0.80333  1.0000
  S   S114      1.0  0.32509  0.16904  0.78763  1.0000
  Fe  Fe58      1.0  0.35620  0.19666  0.88015  1.0000
  S   S115      1.0  0.38122  0.22208  0.87133  1.0000
  S   S116      1.0  0.34110  0.18914  0.92362  1.0000
  Fe  Fe59      1.0  0.35827  0.23378  0.83646  1.0000
  H   H680      1.0  0.49511  0.15856  0.79183  1.0000
  Fe  Fe60      1.0  0.39634  0.19810  0.83938  1.0000
  S   S117      1.0  0.43375  0.18689  0.84039  1.0000
  S   S118      1.0  0.33239  0.20995  0.84706  1.0000
  S   S119      1.0  0.37200  0.17158  0.85006  1.0000
  Fe  Fe61      1.0  0.61256  0.22834  0.85404  1.0000
  S   S120      1.0  0.62227  0.19386  0.87016  1.0000
  H   H681      1.0  0.34569  0.14541  0.55617  1.0000
  Fe  Fe62      1.0  0.56541  0.21361  0.83924  1.0000
  S   S121      1.0  0.57325  0.17874  0.85437  1.0000
  S   S122      1.0  0.53103  0.22426  0.82140  1.0000
  Fe  Fe63      1.0  0.58891  0.19463  0.89156  1.0000
  S   S123      1.0  0.57690  0.18779  0.93652  1.0000
  Fe  Fe64      1.0  0.60600  0.18143  0.83113  1.0000
  S   S124      1.0  0.62385  0.15279  0.80616  1.0000
  S   S125      1.0  0.57977  0.22953  0.87726  1.0000
  S   S126      1.0  0.59767  0.21576  0.81405  1.0000
  C   C398      1.0  0.63149  0.25592  0.97805  1.0000
  C   C399      1.0  0.37091  0.20520  0.96203  1.0000
  H   H682      1.0  0.32024  0.15922  0.54599  1.0000
  H   H683      1.0  0.62924  0.16372  0.70235  1.0000
  H   H684      1.0  0.57845  0.14574  0.72665  1.0000
  H   H685      1.0  0.52606  0.13776  0.80076  1.0000
  H   H686      1.0  0.31532  0.26047  0.73154  1.0000
  C   C400      1.0  0.58965  0.18368  0.96983  1.0000
  C   C401      1.0  0.63247  0.14598  0.77084  1.0000
  C   C402      1.0  0.56914  0.24472  0.98236  1.0000
  H   H687      1.0  0.33667  0.13893  0.63461  1.0000
  C   C403      1.0  0.46040  0.19858  0.83649  1.0000
  C   C404      1.0  0.46349  0.21862  0.82212  1.0000
  C   C405      1.0  0.48508  0.22634  0.81814  1.0000
  C   C406      1.0  0.50395  0.21450  0.82894  1.0000
  C   C407      1.0  0.50084  0.19465  0.84372  1.0000
  C   C408      1.0  0.47932  0.18667  0.84712  1.0000
  H   H688      1.0  0.44927  0.22798  0.81361  1.0000
  H   H689      1.0  0.48714  0.24164  0.80654  1.0000
  H   H690      1.0  0.51500  0.18533  0.85238  1.0000
  H   H691      1.0  0.47727  0.17117  0.85828  1.0000
  C   C409      1.0  0.61219  0.17752  0.97277  1.0000
  H   H692      1.0  0.32812  0.25272  0.91337  1.0000
  C   C410      1.0  0.32307  0.28330  0.82507  1.0000
  C   C411      1.0  0.31928  0.15561  0.75501  1.0000
  C   C412      1.0  0.33515  0.24566  0.76497  1.0000
  C   C413      1.0  0.52180  0.17522  0.76934  1.0000
  H   H693      1.0  0.32156  0.22343  0.71574  1.0000
  C   C414      1.0  0.33452  0.15393  0.73257  1.0000
  H   H694      1.0  0.58196  0.13598  0.76247  1.0000
  H   H695      1.0  0.34442  0.11044  0.58174  1.0000
  C   C415      1.0  0.35139  0.19424  0.95785  1.0000
  C   C416      1.0  0.33936  0.18726  0.98164  1.0000
  C   C417      1.0  0.63411  0.15331  0.72016  1.0000
  H   H696      1.0  0.38033  0.21069  0.94399  1.0000
  H   H697      1.0  0.61580  0.17406  0.75041  1.0000
  H   H698      1.0  0.62885  0.28464  0.82014  1.0000
  N   N30       1.0  0.54297  0.16120  0.77422  1.0000
  H   H699      1.0  0.32425  0.17875  0.97867  1.0000
  H   H700      1.0  0.35941  0.13971  0.60923  1.0000
  H   H701      1.0  0.55150  0.20633  0.75131  1.0000
  C   C418      1.0  0.50004  0.16292  0.76994  1.0000
  H   H702      1.0  0.31985  0.20389  0.74353  1.0000
  C   C419      1.0  0.57080  0.13641  0.74419  1.0000
  H   H703      1.0  0.32340  0.18783  0.57637  1.0000
  C   C420      1.0  0.34658  0.12938  0.61872  1.0000
  H   H704      1.0  0.48641  0.17425  0.76179  1.0000
  H   H705      1.0  0.34498  0.26071  0.76556  1.0000
  C   C421      1.0  0.32111  0.30625  0.81983  1.0000
  H   H706      1.0  0.57566  0.14169  0.81256  1.0000
  H   H707      1.0  0.51985  0.18862  0.78521  1.0000
  H   H708      1.0  0.53634  0.16056  0.81904  1.0000
  H   H709      1.0  0.35073  0.16044  0.73491  1.0000
  C   C422      1.0  0.54665  0.14545  0.74989  1.0000
  H   H710      1.0  0.53616  0.13092  0.75257  1.0000
  H   H711      1.0  0.34094  0.14249  0.69011  1.0000
  C   C423      1.0  0.62638  0.15922  0.74748  1.0000
  C   C424      1.0  0.54027  0.14869  0.80162  1.0000
  H   H712      1.0  0.59298  0.25770  0.95327  1.0000
  N   N31       1.0  0.31700  0.13523  0.57970  1.0000
  H   H713      1.0  0.62969  0.26932  0.96172  1.0000
  H   H714      1.0  0.58065  0.20082  0.75411  1.0000
  H   H715      1.0  0.55635  0.12659  0.83237  1.0000
  H   H716      1.0  0.63205  0.23187  0.94335  1.0000
  C   C425      1.0  0.59331  0.24632  0.97196  1.0000
  C   C426      1.0  0.33230  0.11931  0.59597  1.0000
  H   H717      1.0  0.50098  0.14790  0.75665  1.0000
  C   C427      1.0  0.33505  0.17356  0.58177  1.0000
  H   H718      1.0  0.56526  0.18392  0.73147  1.0000
  H   H719      1.0  0.33571  0.31587  0.82046  1.0000
  H   H720      1.0  0.62256  0.17525  0.95421  1.0000
  H   H721      1.0  0.57052  0.11902  0.73675  1.0000
  H   H722      1.0  0.54114  0.15378  0.72993  1.0000
  H   H723      1.0  0.33357  0.23988  0.78708  1.0000
  H   H724      1.0  0.34492  0.23299  0.75266  1.0000
  C   C428      1.0  0.56468  0.19274  0.75180  1.0000
  C   C429      1.0  0.56133  0.17701  0.77713  1.0000
  C   C430      1.0  0.32886  0.14371  0.70705  1.0000
  H   H725      1.0  0.56219  0.11856  0.79701  1.0000
  H   H726      1.0  0.35552  0.11564  0.63042  1.0000
  C   C431      1.0  0.55997  0.13316  0.81096  1.0000
  H   H727      1.0  0.55814  0.18773  0.79582  1.0000
  H   H728      1.0  0.57758  0.16834  0.78137  1.0000
  H   H729      1.0  0.52229  0.18393  0.74860  1.0000
  S   S127      1.0  0.34971  0.27084  0.83178  1.0000
  S   S128      1.0  0.64138  0.25055  0.86324  1.0000
  H   H730      1.0  0.42747  0.17390  0.98217  1.0000
  H   H731      1.0  0.32264  0.10620  0.60642  1.0000
  C   C432      1.0  0.31229  0.25195  0.75205  1.0000
  H   H732      1.0  0.33318  0.11923  0.52696  1.0000
  H   H733      1.0  0.64234  0.22680  0.77013  1.0000
  H   H734      1.0  0.35174  0.17885  0.57539  1.0000
  C   C433      1.0  0.32048  0.10893  0.53671  1.0000
  H   H735      1.0  0.59827  0.22958  0.96364  1.0000
  H   H736      1.0  0.32370  0.27588  0.89016  1.0000
  C   C434      1.0  0.32972  0.15280  0.56466  1.0000
  C   C435      1.0  0.31518  0.26245  0.90133  1.0000
  H   H737      1.0  0.32842  0.09373  0.54643  1.0000
  H   H738      1.0  0.33541  0.17126  0.60483  1.0000
  C   C436      1.0  0.64110  0.23486  0.96308  1.0000
  H   H739      1.0  0.55975  0.23598  0.96621  1.0000
  H   H740      1.0  0.64091  0.21986  0.97674  1.0000
  H   H741      1.0  0.31343  0.98742  0.71036  1.0000
  C   C437      1.0  0.64432  0.28878  0.82952  1.0000
  H   H742      1.0  0.56070  0.26139  0.98488  1.0000
  Fe  Fe65      1.0  0.37213  0.75869  0.08927  1.0000
  S   S129      1.0  0.38731  0.72418  0.09375  1.0000
  S   S130      1.0  0.37842  0.77649  0.04747  1.0000
  Fe  Fe66      1.0  0.35422  0.75870  0.15105  1.0000
  S   S131      1.0  0.36917  0.72390  0.15824  1.0000
  S   S132      1.0  0.32888  0.77108  0.18508  1.0000
  Fe  Fe67      1.0  0.39968  0.73572  0.13537  1.0000
  S   S133      1.0  0.43532  0.72531  0.14912  1.0000
  Fe  Fe68      1.0  0.35558  0.71610  0.11590  1.0000
  S   S134      1.0  0.33559  0.68780  0.09994  1.0000
  S   S135      1.0  0.38552  0.77084  0.13046  1.0000
  S   S136      1.0  0.33971  0.75024  0.10909  1.0000
  Fe  Fe69      1.0  0.60820  0.71428  0.14003  1.0000
  C   C438      1.0  0.38851  0.79356  0.26850  1.0000
  S   S137      1.0  0.61565  0.67803  0.15228  1.0000
  Fe  Fe70      1.0  0.56921  0.74884  0.13204  1.0000
  S   S138      1.0  0.59268  0.77358  0.11402  1.0000
  S   S139      1.0  0.53284  0.76312  0.13545  1.0000
  Fe  Fe71      1.0  0.60834  0.74523  0.08906  1.0000
  S   S140      1.0  0.62259  0.74491  0.04397  1.0000
  Fe  Fe72      1.0  0.61572  0.76341  0.14975  1.0000
  H   H743      1.0  0.46891  0.72314  0.01363  1.0000
  S   S141      1.0  0.58380  0.72113  0.10480  1.0000
  S   S142      1.0  0.59168  0.74001  0.16886  1.0000
  C   C439      1.0  0.60947  0.74944  0.01083  1.0000
  C   C440      1.0  0.58645  0.75238  0.00824  1.0000
  C   C441      1.0  0.44427  0.71063  0.05338  1.0000
  H   H744      1.0  0.57606  0.75235  0.02694  1.0000
  S   S143      1.0  0.63480  0.79050  0.17214  1.0000
  C   C442      1.0  0.37785  0.77637  0.98929  1.0000
  H   H745      1.0  0.44566  0.69933  0.03501  1.0000
  H   H746      1.0  0.40292  0.76277  0.28507  1.0000
  H   H747      1.0  0.40931  0.78173  0.18146  1.0000
  H   H748      1.0  0.47963  0.70734  0.06595  1.0000
  H   H749      1.0  0.43731  0.74321  0.24784  1.0000
  C   C443      1.0  0.63993  0.79748  0.25805  1.0000
  C   C444      1.0  0.41999  0.72474  0.00170  1.0000
  H   H750      1.0  0.40926  0.79511  0.21455  1.0000
  C   C445      1.0  0.46306  0.70272  0.07348  1.0000
  C   C446      1.0  0.46223  0.73621  0.14447  1.0000
  C   C447      1.0  0.46524  0.75863  0.13831  1.0000
  C   C448      1.0  0.48687  0.76643  0.13544  1.0000
  C   C449      1.0  0.50591  0.75199  0.13844  1.0000
  C   C450      1.0  0.50288  0.72956  0.14444  1.0000
  C   C451      1.0  0.48125  0.72182  0.14767  1.0000
  H   H751      1.0  0.45091  0.77004  0.13618  1.0000
  H   H752      1.0  0.48889  0.78383  0.13096  1.0000
  H   H753      1.0  0.51721  0.71819  0.14703  1.0000
  H   H754      1.0  0.47928  0.70448  0.15265  1.0000
  H   H755      1.0  0.39957  0.80523  0.27855  1.0000
  C   C452      1.0  0.37015  0.76644  0.01426  1.0000
  C   C453      1.0  0.35599  0.74894  0.01223  1.0000
  H   H756      1.0  0.38250  0.80125  0.24853  1.0000
  H   H757      1.0  0.34993  0.74110  0.03119  1.0000
  C   C454      1.0  0.42299  0.73941  0.02765  1.0000
  C   C455      1.0  0.32387  0.78977  0.21388  1.0000
  C   C456      1.0  0.33819  0.80644  0.22044  1.0000
  H   H758      1.0  0.34504  0.83297  0.24886  1.0000
  H   H759      1.0  0.35254  0.80894  0.20723  1.0000
  C   C457      1.0  0.31484  0.81789  0.26120  1.0000
  N   N32       1.0  0.56693  0.81824  0.19615  1.0000
  C   C458      1.0  0.58618  0.83135  0.18592  1.0000
  C   C459      1.0  0.56269  0.82466  0.22643  1.0000
  C   C460      1.0  0.54706  0.82523  0.17854  1.0000
  C   C461      1.0  0.57302  0.79381  0.19263  1.0000
  C   C462      1.0  0.59162  0.83030  0.15416  1.0000
  C   C463      1.0  0.58185  0.81862  0.24686  1.0000
  C   C464      1.0  0.52490  0.81512  0.18637  1.0000
  C   C465      1.0  0.55933  0.77715  0.20967  1.0000
  H   H760      1.0  0.58344  0.84928  0.19113  1.0000
  H   H761      1.0  0.60175  0.82568  0.19673  1.0000
  H   H762      1.0  0.54779  0.81734  0.23547  1.0000
  H   H763      1.0  0.55889  0.84292  0.22794  1.0000
  H   H764      1.0  0.54420  0.84365  0.17883  1.0000
  H   H765      1.0  0.55002  0.82062  0.15612  1.0000
  H   H766      1.0  0.57205  0.78918  0.17007  1.0000
  H   H767      1.0  0.59070  0.79008  0.19820  1.0000
  H   H768      1.0  0.59351  0.81303  0.14665  1.0000
  H   H769      1.0  0.57907  0.83991  0.14145  1.0000
  H   H770      1.0  0.60777  0.83785  0.15019  1.0000
  H   H771      1.0  0.57619  0.82213  0.26877  1.0000
  H   H772      1.0  0.58719  0.80077  0.24607  1.0000
  H   H773      1.0  0.59636  0.82881  0.24292  1.0000
  H   H774      1.0  0.51186  0.82242  0.17221  1.0000
  H   H775      1.0  0.51926  0.81889  0.20812  1.0000
  H   H776      1.0  0.52545  0.79699  0.18253  1.0000
  H   H777      1.0  0.55226  0.76516  0.19507  1.0000
  H   H778      1.0  0.54527  0.78435  0.22207  1.0000
  H   H779      1.0  0.57033  0.76717  0.22417  1.0000
  H   H780      1.0  0.33197  0.67485  0.15952  1.0000
  H   H781      1.0  0.42914  0.73368  0.21331  1.0000
  H   H782      1.0  0.37407  0.79185  0.28292  1.0000
  H   H783      1.0  0.35884  0.71868  0.24510  1.0000
  H   H784      1.0  0.62134  0.63212  0.16383  1.0000
  H   H785      1.0  0.42666  0.77035  0.20846  1.0000
  H   H786      1.0  0.39026  0.75060  0.19851  1.0000
  H   H787      1.0  0.36644  0.74889  0.27629  1.0000
  H   H788      1.0  0.35712  0.76917  0.25111  1.0000
  C   C466      1.0  0.40121  0.77091  0.26396  1.0000
  C   C467      1.0  0.33380  0.82020  0.24403  1.0000
  C   C468      1.0  0.41020  0.77859  0.20448  1.0000
  H   H789      1.0  0.33603  0.73871  0.24266  1.0000
  C   C469      1.0  0.35402  0.73581  0.23791  1.0000
  C   C470      1.0  0.44360  0.74871  0.07007  1.0000
  H   H790      1.0  0.46348  0.68431  0.07533  1.0000
  C   C471      1.0  0.42720  0.73152  0.23642  1.0000
  H   H791      1.0  0.37535  0.77494  0.20928  1.0000
  H   H792      1.0  0.43493  0.72359  0.98798  1.0000
  C   C472      1.0  0.36707  0.75318  0.25341  1.0000
  H   H793      1.0  0.43426  0.71453  0.24131  1.0000
  C   C473      1.0  0.31790  0.67014  0.11875  1.0000
  C   C474      1.0  0.31945  0.66679  0.14787  1.0000
  H   H794      1.0  0.39466  0.72104  0.23130  1.0000
  H   H795      1.0  0.42957  0.74440  0.08415  1.0000
  H   H796      1.0  0.42105  0.75685  0.02026  1.0000
  H   H797      1.0  0.45992  0.70910  0.09504  1.0000
  C   C475      1.0  0.39068  0.76448  0.21367  1.0000
  H   H798      1.0  0.61158  0.69859  0.00190  1.0000
  C   C476      1.0  0.40257  0.73298  0.24524  1.0000
  H   H799      1.0  0.40135  0.72601  0.26700  1.0000
  N   N33       1.0  0.44407  0.73468  0.04393  1.0000
  N   N34       1.0  0.39072  0.75566  0.24360  1.0000
  H   H800      1.0  0.41839  0.77439  0.25752  1.0000
  H   H801      1.0  0.35610  0.73711  0.21482  1.0000
  H   H802      1.0  0.47925  0.73980  0.04060  1.0000
  H   H803      1.0  0.45890  0.74531  0.08255  1.0000
  H   H804      1.0  0.42834  0.70699  0.06411  1.0000
  H   H805      1.0  0.40605  0.73205  0.98892  1.0000
  C   C477      1.0  0.64175  0.79956  0.20667  1.0000
  H   H806      1.0  0.41533  0.70783  0.00805  1.0000
  H   H807      1.0  0.40830  0.73735  0.04156  1.0000
  C   C478      1.0  0.46475  0.73811  0.02661  1.0000
  H   H808      1.0  0.64360  0.67362  0.05359  1.0000
  H   H809      1.0  0.32092  0.97184  0.38500  1.0000
  S   S144      1.0  0.63340  0.73694  0.12314  1.0000
  H   H810      1.0  0.38876  0.78997  0.99059  1.0000
  H   H811      1.0  0.32087  0.72223  0.18551  1.0000
  C   C479      1.0  0.63777  0.63844  0.16311  1.0000
  H   H812      1.0  0.45741  0.78014  0.05638  1.0000
  H   H813      1.0  0.63771  0.66733  0.09029  1.0000
  H   H814      1.0  0.32304  0.96857  0.43818  1.0000
  H   H815      1.0  0.63405  0.78934  0.27690  1.0000
  H   H816      1.0  0.62426  0.77507  0.22991  1.0000
  H   H817      1.0  0.64053  0.74755  0.98799  1.0000
  C   C480      1.0  0.64024  0.66108  0.15782  1.0000
  H   H818      1.0  0.64433  0.69455  0.07968  1.0000
  C   C481      1.0  0.63432  0.78931  0.23135  1.0000
  H   H819      1.0  0.32274  0.68998  0.99078  1.0000
  H   H820      1.0  0.48053  0.76539  0.00530  1.0000
  C   C482      1.0  0.44197  0.77409  0.06584  1.0000
  H   H821      1.0  0.42726  0.78004  0.05368  1.0000
  H   H822      1.0  0.44011  0.78200  0.08680  1.0000
  H   H823      1.0  0.45182  0.77176  0.01082  1.0000
  C   C483      1.0  0.46402  0.75807  0.00575  1.0000
  C   C484      1.0  0.62269  0.74960  0.98622  1.0000
  Fe  Fe73      1.0  0.35117  0.76971  0.82135  1.0000
  S   S145      1.0  0.36441  0.73846  0.80002  1.0000
  C   C485      1.0  0.33673  0.85238  0.58057  1.0000
  Fe  Fe74      1.0  0.35591  0.74758  0.88147  1.0000
  S   S146      1.0  0.36893  0.71544  0.86256  1.0000
  S   S147      1.0  0.34579  0.74339  0.92795  1.0000
  Fe  Fe75      1.0  0.39019  0.73676  0.83481  1.0000
  S   S148      1.0  0.42685  0.72353  0.83313  1.0000
  Fe  Fe76      1.0  0.34233  0.72011  0.83009  1.0000
  H   H824      1.0  0.32287  0.86080  0.56861  1.0000
  S   S149      1.0  0.37792  0.76899  0.85507  1.0000
  S   S150      1.0  0.32845  0.75141  0.84997  1.0000
  Fe  Fe77      1.0  0.58774  0.75373  0.87776  1.0000
  S   S151      1.0  0.56850  0.72652  0.85949  1.0000
  S   S152      1.0  0.57690  0.75981  0.92366  1.0000
  Fe  Fe78      1.0  0.60789  0.76526  0.81852  1.0000
  S   S153      1.0  0.58899  0.73890  0.79748  1.0000
  H   H825      1.0  0.31989  0.78612  0.56847  1.0000
  Fe  Fe79      1.0  0.55943  0.75039  0.82455  1.0000
  S   S154      1.0  0.52369  0.76050  0.81113  1.0000
  Fe  Fe80      1.0  0.59963  0.71750  0.83476  1.0000
  S   S155      1.0  0.61168  0.68117  0.83155  1.0000
  S   S156      1.0  0.57782  0.77827  0.84330  1.0000
  S   S157      1.0  0.61954  0.74307  0.85513  1.0000
  H   H826      1.0  0.47847  0.75007  0.87526  1.0000
  H   H827      1.0  0.32028  0.53964  0.81778  1.0000
  H   H828      1.0  0.34185  0.68190  0.96357  1.0000
  C   C486      1.0  0.35749  0.79174  0.59705  1.0000
  H   H829      1.0  0.57353  0.70982  0.92091  1.0000
  N   N35       1.0  0.62450  0.68320  0.93210  1.0000
  C   C487      1.0  0.62567  0.79686  0.73990  1.0000
  H   H830      1.0  0.33412  0.65874  0.84169  1.0000
  H   H831      1.0  0.35087  0.65931  0.92894  1.0000
  H   H832      1.0  0.60941  0.79064  0.74354  1.0000
  S   S158      1.0  0.31315  0.69960  0.81719  1.0000
  C   C488      1.0  0.59007  0.75553  0.95680  1.0000
  C   C489      1.0  0.61309  0.75255  0.95936  1.0000
  S   S159      1.0  0.33278  0.79989  0.79986  1.0000
  H   H833      1.0  0.55905  0.75798  0.97976  1.0000
  C   C490      1.0  0.45356  0.73429  0.82681  1.0000
  C   C491      1.0  0.45632  0.75617  0.81780  1.0000
  C   C492      1.0  0.47782  0.76373  0.81292  1.0000
  C   C493      1.0  0.49696  0.74974  0.81735  1.0000
  C   C494      1.0  0.49422  0.72791  0.82662  1.0000
  C   C495      1.0  0.47270  0.72025  0.83112  1.0000
  H   H834      1.0  0.44187  0.76719  0.81422  1.0000
  H   H835      1.0  0.47963  0.78060  0.80560  1.0000
  H   H836      1.0  0.50865  0.71682  0.82993  1.0000
  H   H837      1.0  0.47085  0.70326  0.83791  1.0000
  H   H838      1.0  0.31320  0.76227  0.77216  1.0000
  C   C496      1.0  0.61836  0.65927  0.93360  1.0000
  H   H839      1.0  0.36169  0.78491  0.57601  1.0000
  C   C497      1.0  0.31376  0.82036  0.58694  1.0000
  H   H840      1.0  0.35027  0.78601  0.74396  1.0000
  C   C498      1.0  0.58315  0.69361  0.91994  1.0000
  C   C499      1.0  0.35645  0.75210  0.96065  1.0000
  C   C500      1.0  0.37121  0.76914  0.96261  1.0000
  C   C501      1.0  0.32583  0.80774  0.76439  1.0000
  H   H841      1.0  0.37692  0.77720  0.94364  1.0000
  C   C502      1.0  0.63123  0.80589  0.71324  1.0000
  H   H842      1.0  0.60260  0.65723  0.94515  1.0000
  H   H843      1.0  0.46199  0.78698  0.86833  1.0000
  H   H844      1.0  0.32040  0.66357  0.97501  1.0000
  H   H845      1.0  0.62601  0.88565  0.63790  1.0000
  C   C503      1.0  0.51310  0.72624  0.90607  1.0000
  H   H846      1.0  0.48717  0.80678  0.92961  1.0000
  H   H847      1.0  0.47171  0.74939  0.91158  1.0000
  C   C504      1.0  0.32573  0.83209  0.52567  1.0000
  H   H848      1.0  0.33953  0.79807  0.69547  1.0000
  H   H849      1.0  0.32108  0.85460  0.62291  1.0000
  C   C505      1.0  0.61788  0.73609  0.72387  1.0000
  C   C506      1.0  0.33476  0.86169  0.61070  1.0000
  H   H850      1.0  0.33222  0.55643  0.75236  1.0000
  H   H851      1.0  0.34294  0.78379  0.60637  1.0000
  H   H852      1.0  0.59624  0.90718  0.73522  1.0000
  H   H853      1.0  0.37044  0.82415  0.59181  1.0000
  H   H854      1.0  0.35881  0.82747  0.54213  1.0000
  H   H855      1.0  0.57881  0.68446  0.93926  1.0000
  H   H856      1.0  0.53425  0.75322  0.90062  1.0000
  C   C507      1.0  0.31276  0.73411  0.74493  1.0000
  C   C508      1.0  0.57686  0.75552  0.98141  1.0000
  C   C509      1.0  0.60804  0.69794  0.91581  1.0000
  C   C510      1.0  0.47780  0.76039  0.89452  1.0000
  C   C511      1.0  0.45922  0.77839  0.88877  1.0000
  C   C512      1.0  0.32436  0.68099  0.97050  1.0000
  H   H857      1.0  0.60783  0.63191  0.90813  1.0000
  H   H858      1.0  0.64048  0.68136  0.97270  1.0000
  C   C513      1.0  0.31191  0.58107  0.79998  1.0000
  H   H859      1.0  0.31346  0.70986  0.94732  1.0000
  N   N36       1.0  0.50061  0.76800  0.90118  1.0000
  C   C514      1.0  0.51739  0.74944  0.89368  1.0000
  C   C515      1.0  0.50585  0.78786  0.88318  1.0000
  H   H860      1.0  0.33124  0.87995  0.60956  1.0000
  C   C516      1.0  0.50272  0.77246  0.93217  1.0000
  C   C517      1.0  0.34200  0.82190  0.54772  1.0000
  C   C518      1.0  0.52835  0.79786  0.88870  1.0000
  C   C519      1.0  0.63728  0.73784  0.74445  1.0000
  S   S160      1.0  0.63496  0.78523  0.79628  1.0000
  C   C520      1.0  0.34716  0.66447  0.90703  1.0000
  H   H861      1.0  0.52035  0.77423  0.93815  1.0000
  H   H862      1.0  0.49323  0.80176  0.88540  1.0000
  H   H863      1.0  0.50540  0.78352  0.86046  1.0000
  H   H864      1.0  0.31490  0.57608  0.82217  1.0000
  C   C521      1.0  0.31306  0.82119  0.70874  1.0000
  H   H865      1.0  0.32997  0.82503  0.50466  1.0000
  H   H866      1.0  0.60545  0.88409  0.71460  1.0000
  H   H867      1.0  0.61145  0.69641  0.89277  1.0000
  C   C522      1.0  0.33040  0.53926  0.76030  1.0000
  H   H868      1.0  0.59440  0.90934  0.69814  1.0000
  C   C523      1.0  0.64163  0.86736  0.74056  1.0000
  H   H869      1.0  0.52938  0.80429  0.91040  1.0000
  H   H870      1.0  0.32682  0.85034  0.52365  1.0000
  H   H871      1.0  0.49790  0.75784  0.94479  1.0000
  H   H872      1.0  0.61013  0.71573  0.92067  1.0000
  H   H873      1.0  0.49748  0.71974  0.89830  1.0000
  H   H874      1.0  0.34319  0.80382  0.54395  1.0000
  C   C524      1.0  0.63953  0.67112  0.83638  1.0000
  H   H875      1.0  0.52671  0.71438  0.89904  1.0000
  H   H876      1.0  0.61908  0.80642  0.69665  1.0000
  H   H877      1.0  0.51323  0.72604  0.92938  1.0000
  H   H878      1.0  0.44324  0.77022  0.88677  1.0000
  H   H879      1.0  0.53039  0.81209  0.87402  1.0000
  C   C525      1.0  0.60505  0.90239  0.71536  1.0000
  H   H880      1.0  0.62353  0.75295  0.94075  1.0000
  H   H881      1.0  0.34188  0.64996  0.89510  1.0000
  H   H882      1.0  0.31866  0.62242  0.85421  1.0000
  H   H883      1.0  0.60343  0.72879  0.73442  1.0000
  C   C526      1.0  0.33682  0.79835  0.74090  1.0000
  C   C527      1.0  0.64096  0.79629  0.76188  1.0000
  H   H884      1.0  0.59420  0.70574  0.97303  1.0000
  C   C528      1.0  0.60668  0.69299  0.98072  1.0000
  H   H885      1.0  0.45709  0.79070  0.90574  1.0000
  H   H886      1.0  0.36292  0.66951  0.89719  1.0000
  C   C529      1.0  0.64489  0.64817  0.83473  1.0000
  H   H887      1.0  0.32641  0.72363  0.75462  1.0000
  H   H888      1.0  0.62983  0.74655  0.76310  1.0000
  H   H889      1.0  0.51874  0.74753  0.87045  1.0000
  C   C530      1.0  0.35412  0.81723  0.59700  1.0000
  H   H890      1.0  0.31486  0.64759  0.93380  1.0000
  C   C531      1.0  0.48870  0.79237  0.94413  1.0000
  H   H891      1.0  0.33997  0.53624  0.77980  1.0000
  H   H892      1.0  0.31223  0.82023  0.61033  1.0000
  C   C532      1.0  0.33066  0.80526  0.71335  1.0000
  H   H893      1.0  0.33824  0.52816  0.74408  1.0000
  H   H894      1.0  0.62314  0.69608  0.73991  1.0000
  H   H895      1.0  0.54250  0.78588  0.88462  1.0000
  H   H896      1.0  0.35047  0.82147  0.61940  1.0000
  H   H897      1.0  0.61911  0.90994  0.65824  1.0000
  H   H898      1.0  0.57681  0.68501  0.90133  1.0000
  H   H899      1.0  0.37170  0.78688  0.61087  1.0000
  C   C533      1.0  0.32973  0.68412  0.90499  1.0000
  H   H900      1.0  0.61216  0.75308  0.71693  1.0000
  H   H901      1.0  0.35050  0.85887  0.62237  1.0000
  H   H902      1.0  0.63321  0.70880  0.96099  1.0000
  H   H903      1.0  0.49710  0.79868  0.96291  1.0000
  H   H904      1.0  0.35223  0.85860  0.57113  1.0000
  H   H905      1.0  0.47191  0.78741  0.95050  1.0000
  H   H906      1.0  0.62285  0.70197  0.77605  1.0000
  H   H907      1.0  0.32031  0.74433  0.72817  1.0000
  N   N37       1.0  0.33639  0.82740  0.57798  1.0000
  H   H908      1.0  0.62247  0.72669  0.70468  1.0000
  C   C534      1.0  0.31665  0.65635  0.83895  1.0000
  H   H909      1.0  0.62570  0.92830  0.70159  1.0000
  H   H910      1.0  0.60647  0.65791  0.88957  1.0000
  H   H911      1.0  0.32753  0.57920  0.78776  1.0000
  H   H912      1.0  0.32714  0.68669  0.88196  1.0000
  H   H913      1.0  0.33797  0.69919  0.91183  1.0000
  H   H914      1.0  0.63198  0.63693  0.83051  1.0000
  C   C535      1.0  0.64179  0.88469  0.67885  1.0000
  H   H915      1.0  0.59922  0.67677  0.98383  1.0000
  C   C536      1.0  0.63269  0.89761  0.65286  1.0000
  H   H916      1.0  0.63223  0.66301  0.76851  1.0000
  C   C537      1.0  0.62739  0.69167  0.96152  1.0000
  H   H917      1.0  0.63284  0.64312  0.89570  1.0000
  C   C538      1.0  0.61628  0.64768  0.90497  1.0000
  H   H918      1.0  0.63088  0.64917  0.94602  1.0000
  C   C539      1.0  0.63427  0.69804  0.75797  1.0000
  H   H919      1.0  0.63131  0.91861  0.73633  1.0000
  C   C540      1.0  0.62794  0.91287  0.71465  1.0000
  H   H920      1.0  0.62979  0.87206  0.68432  1.0000
  H   H921      1.0  0.63423  0.85618  0.72539  1.0000
  H   H922      1.0  0.62851  0.87621  0.75327  1.0000
  C   C541      1.0  0.34903  0.74201  0.98563  1.0000
  H   H923      1.0  0.33756  0.72892  0.98447  1.0000
  H   H924      1.0  0.46127  0.75238  0.98397  1.0000
  Fe  Fe81      1.0  0.78076  0.34882  0.16166  1.0000
  S   S161      1.0  0.74683  0.36056  0.17700  1.0000
  S   S162      1.0  0.81094  0.33609  0.18812  1.0000
  Fe  Fe82      1.0  0.76733  0.35758  0.09907  1.0000
  S   S163      1.0  0.73233  0.36879  0.11103  1.0000
  S   S164      1.0  0.78338  0.36094  0.05527  1.0000
  Fe  Fe83      1.0  0.74801  0.38863  0.14496  1.0000
  S   S165      1.0  0.73350  0.42418  0.15351  1.0000
  Fe  Fe84      1.0  0.73407  0.33990  0.14184  1.0000
  S   S166      1.0  0.70939  0.31476  0.15716  1.0000
  S   S167      1.0  0.78281  0.37846  0.13201  1.0000
  S   S168      1.0  0.76811  0.32731  0.12753  1.0000
  Fe  Fe85      1.0  0.85000  0.25813  0.32611  1.0000
  S   S169      1.0  0.86882  0.22625  0.31381  1.0000
  S   S170      1.0  0.82171  0.27625  0.30102  1.0000
  Fe  Fe86      1.0  0.86788  0.25449  0.38765  1.0000
  S   S171      1.0  0.88753  0.22266  0.37888  1.0000
  S   S172      1.0  0.87192  0.27150  0.42988  1.0000
  Fe  Fe87      1.0  0.89788  0.23899  0.33829  1.0000
  S   S173      1.0  0.93351  0.24523  0.32294  1.0000
  Fe  Fe88      1.0  0.85704  0.21268  0.35566  1.0000
  S   S174      1.0  0.83920  0.18195  0.37043  1.0000
  S   S175      1.0  0.87927  0.27155  0.34809  1.0000
  S   S176      1.0  0.83716  0.24388  0.36699  1.0000
  Fe  Fe89      1.0  0.71816  0.05935  0.35033  1.0000
  S   S177      1.0  0.68745  0.07969  0.36359  1.0000
  S   S178      1.0  0.72060  0.02183  0.36097  1.0000
  Fe  Fe90      1.0  0.74223  0.10214  0.33431  1.0000
  S   S179      1.0  0.71285  0.12467  0.34618  1.0000
  S   S180      1.0  0.77392  0.11506  0.31472  1.0000
  Fe  Fe91      1.0  0.71045  0.10229  0.38477  1.0000
  S   S181      1.0  0.71168  0.11549  0.42979  1.0000
  Fe  Fe92      1.0  0.69249  0.10007  0.32363  1.0000
  S   S182      1.0  0.66391  0.10495  0.29169  1.0000
  S   S183      1.0  0.74092  0.08119  0.37350  1.0000
  S   S184      1.0  0.72216  0.07842  0.30969  1.0000
  C   C542      1.0  0.70156  0.10340  0.46149  1.0000
  H   H925      1.0  0.67081  0.02875  0.36329  1.0000
  H   H926      1.0  0.79854  0.34998  0.34556  1.0000
  C   C543      1.0  0.65966  0.29676  0.10550  1.0000
  C   C544      1.0  0.68716  0.16475  0.14873  1.0000
  H   H927      1.0  0.81202  0.04776  0.38811  1.0000
  H   H928      1.0  0.68638  0.02971  0.31962  1.0000
  C   C545      1.0  0.75038  0.33314  0.99074  1.0000
  C   C546      1.0  0.85333  0.20235  0.44313  1.0000
  H   H929      1.0  0.82236  0.18501  0.45271  1.0000
  C   C547      1.0  0.85963  0.26517  0.46298  1.0000
  H   H930      1.0  0.86364  0.38733  0.08621  1.0000
  C   C548      1.0  0.65970  0.27269  0.14649  1.0000
  H   H931      1.0  0.82795  0.25746  0.44650  1.0000
  H   H932      1.0  0.71535  0.97923  0.38719  1.0000
  C   C549      1.0  0.82028  0.16467  0.35393  1.0000
  C   C550      1.0  0.82190  0.15941  0.32534  1.0000
  C   C551      1.0  0.80763  0.14418  0.31371  1.0000
  C   C552      1.0  0.79127  0.13438  0.33033  1.0000
  C   C553      1.0  0.78940  0.13996  0.35880  1.0000
  C   C554      1.0  0.80400  0.15477  0.37056  1.0000
  H   H933      1.0  0.83461  0.16652  0.31239  1.0000
  H   H934      1.0  0.80935  0.13988  0.29172  1.0000
  H   H935      1.0  0.77697  0.13253  0.37191  1.0000
  H   H936      1.0  0.80272  0.15850  0.39276  1.0000
  C   C555      1.0  0.77217  0.35526  0.02166  1.0000
  C   C556      1.0  0.65646  0.12583  0.26563  1.0000
  C   C557      1.0  0.68658  0.39377  0.17001  1.0000
  C   C558      1.0  0.86211  0.16602  0.46778  1.0000
  C   C559      1.0  0.71998  0.99079  0.31739  1.0000
  C   C560      1.0  0.68746  0.30078  0.14160  1.0000
  C   C561      1.0  0.67829  0.30727  0.11567  1.0000
  H   H937      1.0  0.85959  0.13545  0.44443  1.0000
  H   H938      1.0  0.69422  0.05319  0.24473  1.0000
  C   C562      1.0  0.67074  0.38094  0.11375  1.0000
  C   C563      1.0  0.67804  0.28346  0.15688  1.0000
  H   H939      1.0  0.68531  0.32057  0.10367  1.0000
  C   C564      1.0  0.90072  0.21464  0.45776  1.0000
  H   H940      1.0  0.68489  0.27840  0.17704  1.0000
  C   C565      1.0  0.81347  0.31909  0.21931  1.0000
  C   C566      1.0  0.79508  0.31292  0.23518  1.0000
  C   C567      1.0  0.79799  0.29993  0.26000  1.0000
  C   C568      1.0  0.81927  0.29257  0.26927  1.0000
  C   C569      1.0  0.83768  0.29865  0.25335  1.0000
  C   C570      1.0  0.83477  0.31187  0.22870  1.0000
  H   H941      1.0  0.77859  0.31836  0.22847  1.0000
  H   H942      1.0  0.78356  0.29565  0.27211  1.0000
  H   H943      1.0  0.85418  0.29326  0.26005  1.0000
  H   H944      1.0  0.84918  0.31653  0.21677  1.0000
  H   H945      1.0  0.70254  0.15427  0.14581  1.0000
  C   C571      1.0  0.96196  0.23704  0.32999  1.0000
  H   H946      1.0  0.88133  0.15176  0.43163  1.0000
  C   C572      1.0  0.83768  0.25900  0.46528  1.0000
  H   H947      1.0  0.95570  0.20755  0.35398  1.0000
  H   H948      1.0  0.70577  0.11571  0.14689  1.0000
  C   C573      1.0  0.71857  0.99475  0.34636  1.0000
  H   H949      1.0  0.67325  0.36696  0.21196  1.0000
  H   H950      1.0  0.72203  0.00450  0.30292  1.0000
  C   C574      1.0  0.65025  0.27942  0.12084  1.0000
  C   C575      1.0  0.76707  0.45392  0.14323  1.0000
  C   C576      1.0  0.74470  0.45111  0.14969  1.0000
  C   C577      1.0  0.66949  0.13711  0.06712  1.0000
  H   H951      1.0  0.77817  0.43947  0.14005  1.0000
  C   C578      1.0  0.96830  0.21784  0.34541  1.0000
  C   C579      1.0  0.69976  0.11388  0.12505  1.0000
  H   H952      1.0  0.85908  0.37488  0.05262  1.0000
  C   C580      1.0  0.78009  0.36637  0.99762  1.0000
  H   H953      1.0  0.76499  0.03749  0.36929  1.0000
  H   H954      1.0  0.68794  0.15483  0.09658  1.0000
  H   H955      1.0  0.89409  0.18529  0.43523  1.0000
  H   H956      1.0  0.81901  0.01288  0.34959  1.0000
  H   H957      1.0  0.97019  0.26336  0.43524  1.0000
  H   H958      1.0  0.66217  0.35163  0.13632  1.0000
  H   H959      1.0  0.67539  0.14779  0.04967  1.0000
  N   N38       1.0  0.66976  0.37618  0.16786  1.0000
  H   H960      1.0  0.76922  0.98057  0.32368  1.0000
  H   H961      1.0  0.83978  0.39588  0.06694  1.0000
  H   H962      1.0  0.65672  0.99918  0.26728  1.0000
  H   H963      1.0  0.78502  0.34267  0.37856  1.0000
  H   H964      1.0  0.65919  0.33006  0.17277  1.0000
  C   C581      1.0  0.75702  0.33880  0.01804  1.0000
  H   H965      1.0  0.67043  0.05519  0.31701  1.0000
  H   H966      1.0  0.69462  0.02377  0.24928  1.0000
  H   H967      1.0  0.78628  0.05239  0.40615  1.0000
  H   H968      1.0  0.79300  0.37020  0.37205  1.0000
  N   N39       1.0  0.84878  0.34801  0.10713  1.0000
  C   C582      1.0  0.83237  0.33242  0.11926  1.0000
  C   C583      1.0  0.85803  0.36085  0.13106  1.0000
  C   C584      1.0  0.86764  0.33552  0.09226  1.0000
  C   C585      1.0  0.83698  0.36313  0.08602  1.0000
  C   C586      1.0  0.82324  0.31558  0.09868  1.0000
  C   C587      1.0  0.84223  0.37889  0.14419  1.0000
  C   C588      1.0  0.88035  0.31759  0.11009  1.0000
  H   H969      1.0  0.83943  0.32284  0.13754  1.0000
  H   H970      1.0  0.81769  0.34198  0.12801  1.0000
  H   H971      1.0  0.87349  0.36888  0.12469  1.0000
  H   H972      1.0  0.86315  0.34944  0.14870  1.0000
  H   H973      1.0  0.86185  0.32756  0.07283  1.0000
  H   H974      1.0  0.88013  0.34720  0.08465  1.0000
  H   H975      1.0  0.66882  0.10355  0.10808  1.0000
  H   H976      1.0  0.81214  0.30467  0.11060  1.0000
  H   H977      1.0  0.68778  0.17215  0.17004  1.0000
  H   H978      1.0  0.81302  0.32389  0.08199  1.0000
  H   H979      1.0  0.83640  0.30450  0.08914  1.0000
  H   H980      1.0  0.82721  0.37173  0.15321  1.0000
  H   H981      1.0  0.85072  0.38668  0.16190  1.0000
  H   H982      1.0  0.83746  0.39238  0.12903  1.0000
  H   H983      1.0  0.86960  0.30426  0.11727  1.0000
  H   H984      1.0  0.88833  0.32482  0.12854  1.0000
  H   H985      1.0  0.89381  0.30957  0.09700  1.0000
  H   H986      1.0  0.69021  0.35707  0.13831  1.0000
  N   N40       1.0  0.77622  0.21189  0.30329  1.0000
  C   C589      1.0  0.76552  0.19177  0.31549  1.0000
  C   C590      1.0  0.78895  0.22195  0.32670  1.0000
  C   C591      1.0  0.79193  0.20419  0.27994  1.0000
  C   C592      1.0  0.75798  0.22749  0.29201  1.0000
  C   C593      1.0  0.75505  0.17629  0.29421  1.0000
  C   C594      1.0  0.77501  0.23018  0.35228  1.0000
  C   C595      1.0  0.81094  0.21930  0.27208  1.0000
  C   C596      1.0  0.76449  0.25053  0.28144  1.0000
  H   H987      1.0  0.77773  0.18131  0.32781  1.0000
  H   H988      1.0  0.75206  0.19671  0.33071  1.0000
  H   H989      1.0  0.79830  0.23625  0.31935  1.0000
  H   H990      1.0  0.80199  0.20970  0.33464  1.0000
  H   H991      1.0  0.80034  0.18788  0.28555  1.0000
  H   H992      1.0  0.78268  0.20131  0.26026  1.0000
  H   H993      1.0  0.74988  0.21993  0.27381  1.0000
  H   H994      1.0  0.74412  0.23002  0.30749  1.0000
  H   H995      1.0  0.76761  0.16822  0.27990  1.0000
  H   H996      1.0  0.74737  0.16261  0.30604  1.0000
  H   H997      1.0  0.74170  0.18494  0.28183  1.0000
  H   H998      1.0  0.76786  0.21626  0.36408  1.0000
  H   H999      1.0  0.78599  0.23837  0.36712  1.0000
  H   H1000     1.0  0.76179  0.24270  0.34615  1.0000
  H   H1001     1.0  0.82353  0.21915  0.28893  1.0000
  H   H1002     1.0  0.80524  0.23663  0.26732  1.0000
  H   H1003     1.0  0.81961  0.21273  0.25293  1.0000
  H   H1004     1.0  0.76978  0.25001  0.25898  1.0000
  H   H1005     1.0  0.77744  0.25781  0.29407  1.0000
  H   H1006     1.0  0.74993  0.26251  0.28338  1.0000
  H   H1007     1.0  0.80421  0.04798  0.28353  1.0000
  C   C597      1.0  0.66819  0.14508  0.26168  1.0000
  C   C598      1.0  0.65776  0.03246  0.34735  1.0000
  H   H1008     1.0  0.69642  0.39457  0.21455  1.0000
  H   H1009     1.0  0.77457  0.04629  0.27896  1.0000
  H   H1010     1.0  0.84633  0.03731  0.34530  1.0000
  C   C599      1.0  0.68781  0.40547  0.19868  1.0000
  H   H1011     1.0  0.65234  0.13319  0.06172  1.0000
  H   H1012     1.0  0.71336  0.46849  0.15885  1.0000
  C   C600      1.0  0.66906  0.03686  0.31852  1.0000
  H   H1013     1.0  0.67044  0.17608  0.23869  1.0000
  H   H1014     1.0  0.90180  0.18036  0.47090  1.0000
  N   N41       1.0  0.66289  0.13792  0.12099  1.0000
  H   H1015     1.0  0.70094  0.04152  0.27842  1.0000
  N   N42       1.0  0.65785  0.02874  0.29263  1.0000
  C   C601      1.0  0.77522  0.47549  0.14124  1.0000
  H   H1016     1.0  0.66672  0.32733  0.20858  1.0000
  C   C602      1.0  0.85088  0.38116  0.07223  1.0000
  C   C603      1.0  0.66134  0.16121  0.24118  1.0000
  H   H1017     1.0  0.82146  0.37117  0.09490  1.0000
  H   H1018     1.0  0.84516  0.16363  0.47598  1.0000
  H   H1019     1.0  0.65221  0.16468  0.14856  1.0000
  C   C604      1.0  0.89113  0.19138  0.45706  1.0000
  C   C605      1.0  0.77623  0.01564  0.32338  1.0000
  H   H1020     1.0  0.69793  0.42024  0.19615  1.0000
  H   H1021     1.0  0.79463  0.98579  0.34072  1.0000
  H   H1022     1.0  0.82052  0.21468  0.45852  1.0000
  C   C606      1.0  0.66593  0.15177  0.14685  1.0000
  H   H1023     1.0  0.78631  0.07260  0.28213  1.0000
  H   H1024     1.0  0.83089  0.35336  0.06823  1.0000
  N   N43       1.0  0.78998  0.03292  0.33661  1.0000
  H   H1025     1.0  0.75842  0.02147  0.32286  1.0000
  C   C607      1.0  0.78402  0.05476  0.32202  1.0000
  H   H1026     1.0  0.79159  0.06914  0.37618  1.0000
  C   C608      1.0  0.81420  0.02571  0.33341  1.0000
  C   C609      1.0  0.65978  0.33935  0.19266  1.0000
  H   H1027     1.0  0.66487  0.14150  0.16642  1.0000
  C   C610      1.0  0.79415  0.05209  0.38489  1.0000
  C   C611      1.0  0.83110  0.04411  0.33466  1.0000
  H   H1028     1.0  0.69222  0.35248  0.18898  1.0000
  C   C612      1.0  0.66436  0.00464  0.28713  1.0000
  H   H1029     1.0  0.79309  0.06865  0.33045  1.0000
  H   H1030     1.0  0.76629  0.05976  0.32600  1.0000
  H   H1031     1.0  0.68336  0.40730  0.15422  1.0000
  H   H1032     1.0  0.64684  0.01838  0.34818  1.0000
  C   C613      1.0  0.67471  0.35924  0.19085  1.0000
  H   H1033     1.0  0.81716  0.01749  0.31269  1.0000
  H   H1034     1.0  0.70603  0.09744  0.11704  1.0000
  H   H1035     1.0  0.68037  0.12171  0.06737  1.0000
  H   H1036     1.0  0.70747  0.12612  0.11112  1.0000
  C   C614      1.0  0.67060  0.14996  0.09494  1.0000
  H   H1037     1.0  0.96184  0.25508  0.40109  1.0000
  H   H1038     1.0  0.68255  0.00214  0.28395  1.0000
  C   C615      1.0  0.97492  0.26348  0.41261  1.0000
  H   H1039     1.0  0.66076  0.16603  0.09224  1.0000
  H   H1040     1.0  0.75093  0.32994  0.03620  1.0000
  H   H1041     1.0  0.68502  0.39169  0.11149  1.0000
  H   H1042     1.0  0.82554  0.05922  0.34624  1.0000
  H   H1043     1.0  0.83655  0.04887  0.31312  1.0000
  N   N44       1.0  0.83097  0.32418  0.37868  1.0000
  C   C616      1.0  0.85414  0.32369  0.39041  1.0000
  C   C617      1.0  0.83283  0.31782  0.34808  1.0000
  C   C618      1.0  0.81810  0.30728  0.39503  1.0000
  C   C619      1.0  0.82073  0.34735  0.38238  1.0000
  C   C620      1.0  0.85579  0.32810  0.42230  1.0000
  C   C621      1.0  0.84675  0.33260  0.32889  1.0000
  C   C622      1.0  0.79949  0.29594  0.37943  1.0000
  C   C623      1.0  0.79805  0.35242  0.36865  1.0000
  H   H1044     1.0  0.86296  0.30731  0.38635  1.0000
  H   H1045     1.0  0.86427  0.33628  0.37986  1.0000
  H   H1046     1.0  0.81632  0.31748  0.33810  1.0000
  H   H1047     1.0  0.84012  0.30057  0.34630  1.0000
  H   H1048     1.0  0.82938  0.29318  0.40245  1.0000
  H   H1049     1.0  0.81066  0.31470  0.41456  1.0000
  H   H1050     1.0  0.81834  0.35120  0.40510  1.0000
  H   H1051     1.0  0.83211  0.35985  0.37409  1.0000
  H   H1052     1.0  0.85070  0.34552  0.42754  1.0000
  H   H1053     1.0  0.84621  0.31656  0.43534  1.0000
  H   H1054     1.0  0.87340  0.32537  0.42866  1.0000
  H   H1055     1.0  0.84511  0.32710  0.30677  1.0000
  H   H1056     1.0  0.84090  0.35032  0.32949  1.0000
  H   H1057     1.0  0.86468  0.33070  0.33375  1.0000
  H   H1058     1.0  0.79015  0.28588  0.39476  1.0000
  H   H1059     1.0  0.80648  0.28428  0.36331  1.0000
  H   H1060     1.0  0.78746  0.30774  0.36913  1.0000
  H   H1061     1.0  0.70357  0.38666  0.16504  1.0000
  C   C624      1.0  0.67331  0.36531  0.13959  1.0000
  H   H1062     1.0  0.68239  0.14770  0.27467  1.0000
  H   H1063     1.0  0.79186  0.37908  0.00012  1.0000
  H   H1064     1.0  0.78120  0.01287  0.30102  1.0000
  C   C625      1.0  0.78329  0.03443  0.36726  1.0000
  H   H1065     1.0  0.67058  0.37076  0.09439  1.0000
  C   C626      1.0  0.78764  0.05510  0.28982  1.0000
  C   C627      1.0  0.67421  0.11519  0.12440  1.0000
  C   C628      1.0  0.67992  0.09630  0.46369  1.0000
  H   H1066     1.0  0.89210  0.22653  0.44314  1.0000
  H   H1067     1.0  0.66978  0.09600  0.44509  1.0000
  H   H1068     1.0  0.68677  0.17892  0.13355  1.0000
  C   C629      1.0  0.69025  0.03976  0.25987  1.0000
  C   C630      1.0  0.82793  0.20119  0.44516  1.0000
  H   H1069     1.0  0.78718  0.01845  0.37848  1.0000
  C   C631      1.0  0.73067  0.47031  0.15380  1.0000
  H   H1070     1.0  0.97421  0.26482  0.30677  1.0000
  H   H1071     1.0  0.91834  0.21323  0.45075  1.0000
  H   H1072     1.0  0.85867  0.19710  0.42162  1.0000
  H   H1073     1.0  0.82089  0.20321  0.42371  1.0000
  H   H1074     1.0  0.85651  0.22030  0.44294  1.0000
  C   C632      1.0  0.66530  0.04208  0.26745  1.0000
  H   H1075     1.0  0.85260  0.15966  0.42393  1.0000
  C   C633      1.0  0.77737  0.99240  0.33748  1.0000
  H   H1076     1.0  0.66890  0.10735  0.14448  1.0000
  H   H1077     1.0  0.76801  0.99245  0.35773  1.0000
  H   H1078     1.0  0.67132  0.41149  0.20672  1.0000
  C   C634      1.0  0.86417  0.15278  0.44017  1.0000
  H   H1079     1.0  0.97473  0.28082  0.40468  1.0000
  H   H1080     1.0  0.73094  0.10981  0.48478  1.0000
  H   H1081     1.0  0.87327  0.15748  0.48351  1.0000
  H   H1082     1.0  0.71495  0.15295  0.47458  1.0000
  H   H1083     1.0  0.65513  0.39142  0.11442  1.0000
  C   C635      1.0  0.65881  0.98777  0.31036  1.0000
  H   H1084     1.0  0.90052  0.22171  0.47923  1.0000
  H   H1085     1.0  0.64849  0.04770  0.35492  1.0000
  N   N45       1.0  0.86699  0.19026  0.46545  1.0000
  H   H1086     1.0  0.65246  0.30210  0.08565  1.0000
  H   H1087     1.0  0.65259  0.25949  0.15860  1.0000
  C   C636      1.0  0.69924  0.16341  0.47443  1.0000
  H   H1088     1.0  0.66878  0.99004  0.32950  1.0000
  H   H1089     1.0  0.69076  0.15942  0.45460  1.0000
  H   H1090     1.0  0.66159  0.06016  0.27072  1.0000
  H   H1091     1.0  0.65599  0.03783  0.24827  1.0000
  H   H1092     1.0  0.79258  0.47733  0.13650  1.0000
  C   C637      1.0  0.64682  0.38710  0.17144  1.0000
  H   H1093     1.0  0.64607  0.40381  0.16110  1.0000
  H   H1094     1.0  0.70293  0.18110  0.47320  1.0000
  H   H1095     1.0  0.73911  0.31997  0.98822  1.0000
  Fe  Fe93      1.0  0.72015  0.35082  0.83783  1.0000
  S   S185      1.0  0.74434  0.32508  0.85479  1.0000
  S   S186      1.0  0.68696  0.33915  0.82203  1.0000
  Fe  Fe94      1.0  0.75310  0.38796  0.84481  1.0000
  S   S187      1.0  0.77936  0.36317  0.86227  1.0000
  S   S188      1.0  0.76531  0.42375  0.84137  1.0000
  Fe  Fe95      1.0  0.77007  0.34043  0.82720  1.0000
  S   S189      1.0  0.79251  0.31357  0.80476  1.0000
  Fe  Fe96      1.0  0.75148  0.34988  0.88822  1.0000
  S   S190      1.0  0.75084  0.33481  0.93278  1.0000
  S   S191      1.0  0.74543  0.36555  0.80835  1.0000
  S   S192      1.0  0.72566  0.37530  0.87256  1.0000
  Fe  Fe97      1.0  0.88478  0.23862  0.62872  1.0000
  S   S193      1.0  0.86645  0.27055  0.61513  1.0000
  S   S194      1.0  0.92210  0.23246  0.61797  1.0000
  Fe  Fe98      1.0  0.84043  0.21743  0.64458  1.0000
  S   S195      1.0  0.82010  0.24805  0.63170  1.0000
  S   S196      1.0  0.82283  0.18879  0.66557  1.0000
  Fe  Fe99      1.0  0.84286  0.24878  0.59361  1.0000
  S   S197      1.0  0.82735  0.25254  0.54983  1.0000
  Fe  Fe100     1.0  0.84538  0.26689  0.65470  1.0000
  S   S198      1.0  0.83632  0.29789  0.68169  1.0000
  S   S199      1.0  0.86169  0.21694  0.60538  1.0000
  S   S200      1.0  0.86515  0.23618  0.66944  1.0000
  Fe  Fe101     1.0  0.70788  0.06050  0.63873  1.0000
  S   S201      1.0  0.67251  0.07312  0.63088  1.0000
  S   S202      1.0  0.72237  0.02530  0.65070  1.0000
  Fe  Fe102     1.0  0.72627  0.10607  0.62259  1.0000
  S   S203      1.0  0.69224  0.12090  0.61365  1.0000
  S   S204      1.0  0.75607  0.12501  0.60742  1.0000
  Fe  Fe103     1.0  0.68120  0.10432  0.65400  1.0000
  H   H1096     1.0  0.72366  0.36261  0.74602  1.0000
  Fe  Fe104     1.0  0.68640  0.08908  0.59154  1.0000
  S   S205      1.0  0.67024  0.08782  0.54822  1.0000
  S   S206      1.0  0.71604  0.09098  0.66404  1.0000
  S   S207      1.0  0.72083  0.07495  0.59832  1.0000
  C   C638      1.0  0.95397  0.24775  0.65467  1.0000
  C   C639      1.0  0.78158  0.28496  0.89294  1.0000
  H   H1097     1.0  0.80834  0.00631  0.67785  1.0000
  H   H1098     1.0  0.75312  0.06338  0.71711  1.0000
  C   C640      1.0  0.70860  0.35293  0.74529  1.0000
  C   C641      1.0  0.80293  0.17266  0.64906  1.0000
  C   C642      1.0  0.78869  0.16015  0.66583  1.0000
  C   C643      1.0  0.77347  0.14626  0.65349  1.0000
  C   C644      1.0  0.77280  0.14424  0.62420  1.0000
  C   C645      1.0  0.78697  0.15680  0.60747  1.0000
  C   C646      1.0  0.80175  0.17113  0.61977  1.0000
  H   H1099     1.0  0.78952  0.16118  0.68850  1.0000
  H   H1100     1.0  0.76274  0.13666  0.66664  1.0000
  H   H1101     1.0  0.78670  0.15529  0.58481  1.0000
  H   H1102     1.0  0.81266  0.18055  0.60662  1.0000
  C   C647      1.0  0.67460  0.31427  0.83329  1.0000
  C   C648      1.0  0.68407  0.30040  0.85421  1.0000
  H   H1103     1.0  0.97520  0.18083  0.66583  1.0000
  C   C649      1.0  0.70270  0.20831  0.79856  1.0000
  H   H1104     1.0  0.76908  0.28215  0.87654  1.0000
  H   H1105     1.0  0.83046  0.27992  0.95645  1.0000
  H   H1106     1.0  0.69920  0.30483  0.86418  1.0000
  N   N46       1.0  0.72844  0.31354  0.74304  1.0000
  H   H1107     1.0  0.81392  0.33661  0.96234  1.0000
  C   C650      1.0  0.80412  0.30967  0.77012  1.0000
  C   C651      1.0  0.80817  0.32742  0.75186  1.0000
  C   C652      1.0  0.81785  0.32345  0.72497  1.0000
  C   C653      1.0  0.82343  0.30171  0.71565  1.0000
  C   C654      1.0  0.81927  0.28395  0.73386  1.0000
  C   C655      1.0  0.80987  0.28794  0.76090  1.0000
  H   H1108     1.0  0.80415  0.34426  0.75858  1.0000
  H   H1109     1.0  0.82105  0.33739  0.71126  1.0000
  H   H1110     1.0  0.82352  0.26712  0.72723  1.0000
  H   H1111     1.0  0.80699  0.27401  0.77476  1.0000
  C   C656      1.0  0.67148  0.19059  0.77453  1.0000
  C   C657      1.0  0.68337  0.09219  0.51497  1.0000
  H   H1112     1.0  0.72055  0.14144  0.52758  1.0000
  C   C658      1.0  0.65366  0.27512  0.85077  1.0000
  C   C659      1.0  0.72806  0.29144  0.75841  1.0000
  S   S208      1.0  0.65766  0.12794  0.68045  1.0000
  C   C660      1.0  0.84039  0.25747  0.51679  1.0000
  C   C661      1.0  0.86239  0.26350  0.51447  1.0000
  H   H1113     1.0  0.87087  0.28911  0.72447  1.0000
  H   H1114     1.0  0.87201  0.26534  0.53332  1.0000
  H   H1115     1.0  0.68774  0.13212  0.54942  1.0000
  C   C662      1.0  0.75827  0.34422  0.96670  1.0000
  H   H1116     1.0  0.76627  0.35267  0.73241  1.0000
  H   H1117     1.0  0.95440  0.30727  0.72548  1.0000
  H   H1118     1.0  0.72582  0.16832  0.51570  1.0000
  C   C663      1.0  0.74166  0.45957  0.92392  1.0000
  C   C664      1.0  0.94944  0.23899  0.62829  1.0000
  H   H1119     1.0  0.70513  0.24131  0.77909  1.0000
  H   H1120     1.0  0.69967  0.19822  0.85669  1.0000
  C   C665      1.0  0.86383  0.20132  0.49374  1.0000
  C   C666      1.0  0.73272  0.45884  0.83789  1.0000
  C   C667      1.0  0.75532  0.45230  0.83843  1.0000
  C   C668      1.0  0.67087  0.09089  0.49026  1.0000
  H   H1121     1.0  0.72054  0.44633  0.83893  1.0000
  H   H1122     1.0  0.78831  0.46430  0.83720  1.0000
  C   C669      1.0  0.69260  0.99387  0.63363  1.0000
  C   C670      1.0  0.71351  0.99781  0.64441  1.0000
  C   C671      1.0  0.72583  0.16487  0.56048  1.0000
  H   H1123     1.0  0.68126  0.00779  0.62852  1.0000
  H   H1124     1.0  0.74781  0.30022  0.79528  1.0000
  C   C672      1.0  0.73256  0.29174  0.79034  1.0000
  H   H1125     1.0  0.74067  0.27929  0.74941  1.0000
  H   H1126     1.0  0.73485  0.27441  0.79835  1.0000
  H   H1127     1.0  0.71829  0.29953  0.80222  1.0000
  H   H1128     1.0  0.71937  0.15437  0.57767  1.0000
  H   H1129     1.0  0.84558  0.17803  0.52021  1.0000
  H   H1130     1.0  0.65405  0.18583  0.77744  1.0000
  H   H1131     1.0  0.83049  0.34571  0.93362  1.0000
  H   H1132     1.0  0.70059  0.21973  0.75386  1.0000
  H   H1133     1.0  0.92809  0.31906  0.73649  1.0000
  C   C673      1.0  0.82812  0.25530  0.49203  1.0000
  H   H1134     1.0  0.76413  0.03767  0.70307  1.0000
  H   H1135     1.0  0.75069  0.44407  0.91667  1.0000
  H   H1136     1.0  0.78869  0.26832  0.89911  1.0000
  C   C674      1.0  0.70536  0.09831  0.51264  1.0000
  C   C675      1.0  0.67721  0.18549  0.82480  1.0000
  C   C676      1.0  0.96732  0.23473  0.60944  1.0000
  H   H1137     1.0  0.87847  0.19743  0.50740  1.0000
  H   H1138     1.0  0.86287  0.21967  0.49115  1.0000
  H   H1139     1.0  0.77920  0.36982  0.95214  1.0000
  H   H1140     1.0  0.67093  0.20185  0.75595  1.0000
  H   H1141     1.0  0.67195  0.23346  0.82135  1.0000
  H   H1142     1.0  0.94066  0.25056  0.66970  1.0000
  C   C677      1.0  0.82310  0.33088  0.94313  1.0000
  H   H1143     1.0  0.93279  0.28913  0.73275  1.0000
  H   H1144     1.0  0.74405  0.98199  0.65947  1.0000
  H   H1145     1.0  0.81105  0.25077  0.49362  1.0000
  H   H1146     1.0  0.71526  0.09922  0.53139  1.0000
  H   H1147     1.0  0.90992  0.29819  0.61299  1.0000
  C   C678      1.0  0.91513  0.29461  0.63501  1.0000
  H   H1148     1.0  0.66029  0.17895  0.82575  1.0000
  H   H1149     1.0  0.83645  0.31879  0.94995  1.0000
  C   C679      1.0  0.65474  0.30822  0.82086  1.0000
  N   N47       1.0  0.78948  0.06051  0.65893  1.0000
  C   C680      1.0  0.79318  0.03561  0.65734  1.0000
  C   C681      1.0  0.77306  0.06775  0.63646  1.0000
  C   C682      1.0  0.78023  0.06755  0.68725  1.0000
  C   C683      1.0  0.81134  0.07104  0.65458  1.0000
  C   C684      1.0  0.80852  0.02465  0.67988  1.0000
  C   C685      1.0  0.78226  0.06793  0.60601  1.0000
  C   C686      1.0  0.75989  0.05531  0.69770  1.0000
  C   C687      1.0  0.81036  0.09672  0.65444  1.0000
  H   H1150     1.0  0.77711  0.02732  0.65839  1.0000
  H   H1151     1.0  0.80053  0.03071  0.63662  1.0000
  H   H1152     1.0  0.76536  0.08458  0.64065  1.0000
  H   H1153     1.0  0.75876  0.05683  0.63657  1.0000
  H   H1154     1.0  0.79309  0.06566  0.70384  1.0000
  H   H1155     1.0  0.77521  0.08562  0.68698  1.0000
  H   H1156     1.0  0.82304  0.06596  0.67168  1.0000
  H   H1157     1.0  0.82007  0.06494  0.63516  1.0000
  H   H1158     1.0  0.82598  0.02906  0.67676  1.0000
  H   H1159     1.0  0.80299  0.02867  0.70162  1.0000
  H   H1160     1.0  0.79427  0.08103  0.60276  1.0000
  H   H1161     1.0  0.78987  0.05157  0.59977  1.0000
  H   H1162     1.0  0.76849  0.07201  0.59126  1.0000
  C   C688      1.0  0.66369  0.22191  0.80719  1.0000
  H   H1163     1.0  0.74649  0.05608  0.68205  1.0000
  H   H1164     1.0  0.74400  0.34737  0.70990  1.0000
  H   H1165     1.0  0.79479  0.10417  0.64569  1.0000
  H   H1166     1.0  0.68882  0.17074  0.82182  1.0000
  H   H1167     1.0  0.72680  0.22103  0.76904  1.0000
  H   H1168     1.0  0.76394  0.30695  0.74029  1.0000
  H   H1169     1.0  0.89801  0.28397  0.73915  1.0000
  N   N48       1.0  0.81719  0.30657  0.89966  1.0000
  C   C689      1.0  0.83217  0.32110  0.88275  1.0000
  C   C690      1.0  0.80676  0.32083  0.92266  1.0000
  C   C691      1.0  0.79936  0.29953  0.88017  1.0000
  C   C692      1.0  0.83075  0.28666  0.91080  1.0000
  C   C693      1.0  0.84372  0.31037  0.85670  1.0000
  C   C694      1.0  0.77292  0.36116  0.97035  1.0000
  H   H1170     1.0  0.74002  0.45824  0.94712  1.0000
  C   C695      1.0  0.82167  0.27486  0.93733  1.0000
  H   H1171     1.0  0.82282  0.33648  0.87529  1.0000
  H   H1172     1.0  0.84578  0.32685  0.89599  1.0000
  H   H1173     1.0  0.79482  0.31185  0.93572  1.0000
  H   H1174     1.0  0.79655  0.33496  0.91336  1.0000
  H   H1175     1.0  0.79059  0.31440  0.87057  1.0000
  H   H1176     1.0  0.93336  0.29608  0.63547  1.0000
  H   H1177     1.0  0.83331  0.27393  0.89407  1.0000
  H   H1178     1.0  0.84764  0.29162  0.91641  1.0000
  H   H1179     1.0  0.85265  0.29431  0.86172  1.0000
  H   H1180     1.0  0.83191  0.30820  0.83938  1.0000
  H   H1181     1.0  0.85617  0.32172  0.84832  1.0000
  C   C696      1.0  0.77078  0.46903  0.83693  1.0000
  H   H1182     1.0  0.71452  0.19348  0.79869  1.0000
  H   H1183     1.0  0.67871  0.18122  0.87025  1.0000
  H   H1184     1.0  0.77237  0.29298  0.91071  1.0000
  H   H1185     1.0  0.69596  0.36221  0.75846  1.0000
  C   C697      1.0  0.71614  0.15932  0.53164  1.0000
  H   H1186     1.0  0.82544  0.25669  0.93550  1.0000
  H   H1187     1.0  0.82773  0.19766  0.50065  1.0000
  H   H1188     1.0  0.68249  0.13943  0.49833  1.0000
  H   H1189     1.0  0.70725  0.21739  0.81774  1.0000
  H   H1190     1.0  0.80660  0.28978  0.86226  1.0000
  N   N49       1.0  0.67897  0.20188  0.80068  1.0000
  H   H1191     1.0  0.70321  0.17294  0.76234  1.0000
  H   H1192     1.0  0.68103  0.27070  0.87941  1.0000
  H   H1193     1.0  0.68362  0.15561  0.78034  1.0000
  C   C698      1.0  0.68205  0.19435  0.85440  1.0000
  H   H1194     1.0  0.80360  0.27708  0.94095  1.0000
  N   N50       1.0  0.90555  0.30674  0.68598  1.0000
  C   C699      1.0  0.90279  0.31136  0.65486  1.0000
  C   C700      1.0  0.89171  0.32431  0.70161  1.0000
  C   C701      1.0  0.89707  0.28397  0.69219  1.0000
  C   C702      1.0  0.92990  0.30732  0.69252  1.0000
  H   H1195     1.0  0.82373  0.10284  0.64062  1.0000
  C   C703      1.0  0.89775  0.34859  0.69654  1.0000
  C   C704      1.0  0.88708  0.27978  0.72176  1.0000
  C   C705      1.0  0.93623  0.30561  0.72375  1.0000
  H   H1196     1.0  0.88486  0.31202  0.64923  1.0000
  H   H1197     1.0  0.90892  0.32782  0.64884  1.0000
  H   H1198     1.0  0.89239  0.32156  0.72472  1.0000
  H   H1199     1.0  0.87389  0.32334  0.69611  1.0000
  H   H1200     1.0  0.88357  0.28027  0.67744  1.0000
  H   H1201     1.0  0.91024  0.27071  0.68851  1.0000
  H   H1202     1.0  0.93952  0.29345  0.68196  1.0000
  H   H1203     1.0  0.93676  0.32277  0.68385  1.0000
  H   H1204     1.0  0.65860  0.23726  0.95684  1.0000
  C   C706      1.0  0.67366  0.28102  0.86287  1.0000
  H   H1205     1.0  0.72508  0.45981  0.91408  1.0000
  H   H1206     1.0  0.91537  0.35120  0.70102  1.0000
  H   H1207     1.0  0.89354  0.35447  0.67495  1.0000
  H   H1208     1.0  0.88764  0.35945  0.71107  1.0000
  H   H1209     1.0  0.74407  0.16126  0.55984  1.0000
  H   H1210     1.0  0.96413  0.22793  0.58899  1.0000
  H   H1211     1.0  0.65386  0.08618  0.49176  1.0000
  H   H1212     1.0  0.71171  0.28398  0.75589  1.0000
  H   H1213     1.0  0.72847  0.29373  0.67386  1.0000
  H   H1214     1.0  0.75217  0.29685  0.69533  1.0000
  H   H1215     1.0  0.88376  0.26189  0.72397  1.0000
  H   H1216     1.0  0.70298  0.30412  0.71452  1.0000
  H   H1217     1.0  0.71872  0.32543  0.70112  1.0000
  H   H1218     1.0  0.81228  0.10326  0.67601  1.0000
  C   C707      1.0  0.75178  0.32128  0.74349  1.0000
  C   C708      1.0  0.73441  0.29307  0.69593  1.0000
  H   H1219     1.0  0.75561  0.32774  0.76466  1.0000
  H   H1220     1.0  0.91126  0.27721  0.63971  1.0000
  H   H1221     1.0  0.70180  0.35272  0.72377  1.0000
  H   H1222     1.0  0.67935  0.16410  0.74484  1.0000
  C   C709      1.0  0.68547  0.16968  0.76543  1.0000
  H   H1223     1.0  0.71878  0.33261  0.77977  1.0000
  C   C710      1.0  0.70878  0.22358  0.77375  1.0000
  H   H1224     1.0  0.73274  0.27578  0.70354  1.0000
  H   H1225     1.0  0.77021  0.33210  0.70610  1.0000
  C   C711      1.0  0.72021  0.30990  0.71367  1.0000
  C   C712      1.0  0.75791  0.33923  0.72156  1.0000
  H   H1226     1.0  0.66771  0.24156  0.76781  1.0000
  C   C713      1.0  0.71264  0.32959  0.75829  1.0000
  H   H1227     1.0  0.69611  0.32240  0.76112  1.0000
  H   H1228     1.0  0.84246  0.20630  0.53043  1.0000
  H   H1229     1.0  0.67119  0.20906  0.86009  1.0000
  C   C714      1.0  0.65423  0.12095  0.73899  1.0000
  C   C715      1.0  0.84361  0.19526  0.51181  1.0000
  H   H1230     1.0  0.66492  0.10617  0.73604  1.0000
  C   C716      1.0  0.72787  0.97929  0.65102  1.0000
  C   C717      1.0  0.65457  0.23594  0.78212  1.0000
  H   H1231     1.0  0.72303  0.18268  0.56568  1.0000
  H   H1232     1.0  0.65116  0.11627  0.78404  1.0000
  C   C718      1.0  0.64632  0.12674  0.76627  1.0000
  C   C719      1.0  0.97592  0.25234  0.66187  1.0000
  C   C720      1.0  0.64819  0.13420  0.71562  1.0000
  H   H1233     1.0  0.64867  0.21681  0.81892  1.0000
  C   C721      1.0  0.68021  0.14938  0.54986  1.0000
  H   H1234     1.0  0.68264  0.15531  0.57164  1.0000
  H   H1235     1.0  0.77197  0.47631  0.92279  1.0000
  H   H1236     1.0  0.64569  0.16384  0.54760  1.0000
  N   N51       1.0  0.69146  0.16396  0.52861  1.0000
  H   H1237     1.0  0.68611  0.19142  0.55783  1.0000
  H   H1238     1.0  0.64716  0.31885  0.80478  1.0000
  C   C722      1.0  0.68412  0.15769  0.49956  1.0000
  H   H1239     1.0  0.71313  0.20204  0.51283  1.0000
  C   C723      1.0  0.69551  0.20603  0.51799  1.0000
  C   C724      1.0  0.68435  0.18774  0.53505  1.0000
  H   H1240     1.0  0.64883  0.13723  0.56438  1.0000
  H   H1241     1.0  0.64548  0.25104  0.79040  1.0000
  H   H1242     1.0  0.68625  0.21008  0.49836  1.0000
  H   H1243     1.0  0.66626  0.19070  0.53154  1.0000
  H   H1244     1.0  0.66728  0.16523  0.49502  1.0000
  H   H1245     1.0  0.69562  0.22129  0.53090  1.0000
  C   C725      1.0  0.65495  0.14752  0.54666  1.0000
  H   H1246     1.0  0.65084  0.13875  0.52712  1.0000
  C   C726      1.0  0.71426  0.10417  0.48613  1.0000
  C   C727      1.0  0.87184  0.26759  0.48772  1.0000
  H   H1247     1.0  0.88873  0.27266  0.48623  1.0000
  Fe  Fe105     1.0  0.75749  0.59795  0.10027  1.0000
  S   S209      1.0  0.73285  0.57517  0.11936  1.0000
  S   S210      1.0  0.75259  0.61226  0.05560  1.0000
  Fe  Fe106     1.0  0.78051  0.60474  0.15843  1.0000
  S   S211      1.0  0.75776  0.58155  0.18017  1.0000
  S   S212      1.0  0.80525  0.62740  0.17969  1.0000
  Fe  Fe107     1.0  0.76223  0.55905  0.14233  1.0000
  S   S213      1.0  0.77285  0.52152  0.14309  1.0000
  Fe  Fe108     1.0  0.73044  0.59953  0.15520  1.0000
  S   S214      1.0  0.69966  0.61302  0.17910  1.0000
  S   S215      1.0  0.78714  0.58135  0.12177  1.0000
  S   S216      1.0  0.75290  0.62321  0.13487  1.0000
  Fe  Fe109     1.0  0.89818  0.69678  0.33993  1.0000
  S   S217      1.0  0.87661  0.67195  0.36158  1.0000
  S   S218      1.0  0.93457  0.68394  0.33239  1.0000
  Fe  Fe110     1.0  0.85757  0.72985  0.33242  1.0000
  S   S219      1.0  0.83439  0.70688  0.35320  1.0000
  S   S220      1.0  0.84528  0.76423  0.31652  1.0000
  Fe  Fe111     1.0  0.86129  0.70111  0.38562  1.0000
  S   S221      1.0  0.85041  0.70805  0.43144  1.0000
  Fe  Fe112     1.0  0.85171  0.68003  0.32700  1.0000
  S   S222      1.0  0.83261  0.65240  0.30591  1.0000
  S   S223      1.0  0.88395  0.72544  0.36569  1.0000
  S   S224      1.0  0.87382  0.70341  0.30445  1.0000
  Fe  Fe113     1.0  0.73023  0.84181  0.34684  1.0000
  S   S225      1.0  0.69642  0.83114  0.35949  1.0000
  S   S226      1.0  0.75381  0.81165  0.35643  1.0000
  Fe  Fe114     1.0  0.71074  0.88874  0.33098  1.0000
  S   S227      1.0  0.67590  0.87965  0.34209  1.0000
  S   S228      1.0  0.71698  0.92319  0.31123  1.0000
  Fe  Fe115     1.0  0.69164  0.86391  0.38102  1.0000
  S   S229      1.0  0.67507  0.86876  0.42442  1.0000
  Fe  Fe116     1.0  0.68387  0.84725  0.31931  1.0000
  H   H1248     1.0  0.87058  0.61668  0.25673  1.0000
  S   S230      1.0  0.72609  0.87411  0.37080  1.0000
  S   S231      1.0  0.71792  0.85700  0.30584  1.0000
  C   C728      1.0  0.71707  0.95058  0.32551  1.0000
  H   H1249     1.0  0.67935  0.93860  0.47812  1.0000
  C   C729      1.0  0.71546  0.95462  0.35444  1.0000
  C   C730      1.0  0.86185  0.77480  0.45706  1.0000
  H   H1250     1.0  0.71378  0.94083  0.36893  1.0000
  C   C731      1.0  0.68631  0.86067  0.45770  1.0000
  C   C732      1.0  0.70831  0.85258  0.46059  1.0000
  C   C733      1.0  0.72227  0.66096  0.07474  1.0000
  H   H1251     1.0  0.76044  0.74231  0.29536  1.0000
  H   H1252     1.0  0.84425  0.81036  0.42395  1.0000
  H   H1253     1.0  0.74566  0.76193  0.31615  1.0000
  C   C734      1.0  0.85967  0.69871  0.46533  1.0000
  H   H1254     1.0  0.87446  0.78712  0.40512  1.0000
  C   C735      1.0  0.87570  0.68131  0.46890  1.0000
  C   C736      1.0  0.89313  0.64424  0.29167  1.0000
  H   H1255     1.0  0.88293  0.67306  0.45062  1.0000
  C   C737      1.0  0.81850  0.77655  0.32412  1.0000
  C   C738      1.0  0.80250  0.76486  0.33866  1.0000
  C   C739      1.0  0.78240  0.77576  0.34717  1.0000
  C   C740      1.0  0.77781  0.79836  0.34097  1.0000
  C   C741      1.0  0.79324  0.80983  0.32513  1.0000
  C   C742      1.0  0.81353  0.79895  0.31682  1.0000
  H   H1256     1.0  0.80592  0.74761  0.34420  1.0000
  H   H1257     1.0  0.77059  0.76673  0.35944  1.0000
  H   H1258     1.0  0.79000  0.82728  0.32032  1.0000
  H   H1259     1.0  0.82574  0.80813  0.30544  1.0000
  C   C743      1.0  0.76120  0.49471  0.14534  1.0000
  H   H1260     1.0  0.72957  0.58815  0.25889  1.0000
  H   H1261     1.0  0.91082  0.60823  0.25244  1.0000
  H   H1262     1.0  0.89706  0.65779  0.30625  1.0000
  H   H1263     1.0  0.72772  0.50636  0.15482  1.0000
  C   C744      1.0  0.77188  0.58125  0.01813  1.0000
  C   C745      1.0  0.75894  0.60098  0.02176  1.0000
  H   H1264     1.0  0.69850  0.62466  0.01086  1.0000
  H   H1265     1.0  0.77810  0.57213  0.03640  1.0000
  H   H1266     1.0  0.82001  0.80708  0.37726  1.0000
  C   C746      1.0  0.67768  0.63154  0.16755  1.0000
  C   C747      1.0  0.68042  0.65426  0.16221  1.0000
  C   C748      1.0  0.66170  0.66904  0.15735  1.0000
  H   H1267     1.0  0.77313  0.66887  0.29740  1.0000
  H   H1268     1.0  0.73381  0.73560  0.30985  1.0000
  H   H1269     1.0  0.77634  0.65459  0.24918  1.0000
  H   H1270     1.0  0.69684  0.66055  0.16277  1.0000
  H   H1271     1.0  0.70602  0.61525  0.04454  1.0000
  H   H1272     1.0  0.71886  0.85084  0.44210  1.0000
  C   C749      1.0  0.81260  0.63397  0.21505  1.0000
  C   C750      1.0  0.80858  0.61997  0.23807  1.0000
  C   C751      1.0  0.81487  0.62588  0.26553  1.0000
  C   C752      1.0  0.82519  0.64588  0.27058  1.0000
  C   C753      1.0  0.82913  0.65992  0.24759  1.0000
  C   C754      1.0  0.82303  0.65391  0.22010  1.0000
  H   H1273     1.0  0.80092  0.60443  0.23466  1.0000
  H   H1274     1.0  0.81179  0.61477  0.28301  1.0000
  H   H1275     1.0  0.83686  0.67542  0.25095  1.0000
  H   H1276     1.0  0.82630  0.66490  0.20257  1.0000
  C   C755      1.0  0.96178  0.69450  0.33372  1.0000
  C   C756      1.0  0.96537  0.71697  0.33804  1.0000
  H   H1277     1.0  0.79728  0.81505  0.40048  1.0000
  H   H1278     1.0  0.95132  0.72864  0.34091  1.0000
  H   H1279     1.0  0.86524  0.76907  0.47899  1.0000
  H   H1280     1.0  0.69076  0.65825  0.03237  1.0000
  C   C757      1.0  0.67680  0.60874  0.09727  1.0000
  H   H1281     1.0  0.91929  0.67599  0.27311  1.0000
  C   C758      1.0  0.86313  0.78329  0.38797  1.0000
  H   H1282     1.0  0.70440  0.64817  0.11040  1.0000
  H   H1283     1.0  0.87870  0.61287  0.22093  1.0000
  H   H1284     1.0  0.72070  0.96600  0.28471  1.0000
  H   H1285     1.0  0.66506  0.64654  0.03546  1.0000
  C   C759      1.0  0.74408  0.62041  0.25805  1.0000
  H   H1286     1.0  0.69032  0.65725  0.27110  1.0000
  H   H1287     1.0  0.67879  0.60998  0.03184  1.0000
  H   H1288     1.0  0.71790  0.67870  0.07900  1.0000
  C   C760      1.0  0.67287  0.86290  0.48205  1.0000
  H   H1289     1.0  0.71252  0.62834  0.08506  1.0000
  N   N52       1.0  0.68214  0.64799  0.07507  1.0000
  H   H1290     1.0  0.89861  0.69343  0.23598  1.0000
  H   H1291     1.0  0.65579  0.86905  0.48003  1.0000
  H   H1292     1.0  0.86470  0.79278  0.45616  1.0000
  H   H1293     1.0  0.68932  0.60939  0.11415  1.0000
  H   H1294     1.0  0.93551  0.64407  0.30133  1.0000
  H   H1295     1.0  0.74125  0.62801  0.00019  1.0000
  H   H1296     1.0  0.96640  0.62270  0.27497  1.0000
  C   C761      1.0  0.77726  0.57358  0.99077  1.0000
  H   H1297     1.0  0.79863  0.77693  0.39894  1.0000
  H   H1298     1.0  0.67638  0.67601  0.10307  1.0000
  H   H1299     1.0  0.81996  0.83265  0.39621  1.0000
  C   C762      1.0  0.84360  0.76942  0.39773  1.0000
  H   H1300     1.0  0.91389  0.62908  0.22645  1.0000
  N   N53       1.0  0.91066  0.64178  0.26892  1.0000
  H   H1301     1.0  0.66379  0.68655  0.15372  1.0000
  C   C763      1.0  0.65329  0.81583  0.26068  1.0000
  H   H1302     1.0  0.79503  0.77747  0.43595  1.0000
  H   H1303     1.0  0.87394  0.62529  0.32167  1.0000
  H   H1304     1.0  0.85731  0.79893  0.37730  1.0000
  H   H1305     1.0  0.88985  0.60799  0.29755  1.0000
  C   C764      1.0  0.70512  0.64545  0.08725  1.0000
  C   C765      1.0  0.81557  0.81502  0.39762  1.0000
  C   C766      1.0  0.89476  0.67591  0.24043  1.0000
  C   C767      1.0  0.68223  0.64479  0.04364  1.0000
  H   H1306     1.0  0.67088  0.84025  0.23744  1.0000
  C   C768      1.0  0.75111  0.61264  0.99768  1.0000
  N   N54       1.0  0.82933  0.77835  0.42185  1.0000
  C   C769      1.0  0.80609  0.77061  0.41886  1.0000
  H   H1307     1.0  0.90316  0.62146  0.32621  1.0000
  C   C770      1.0  0.83798  0.76952  0.44968  1.0000
  C   C771      1.0  0.82766  0.80339  0.42271  1.0000
  C   C772      1.0  0.80378  0.74523  0.41833  1.0000
  H   H1308     1.0  0.81513  0.73692  0.40275  1.0000
  H   H1309     1.0  0.81876  0.80918  0.44217  1.0000
  C   C773      1.0  0.69178  0.62231  0.03248  1.0000
  H   H1310     1.0  0.95025  0.62466  0.24355  1.0000
  H   H1311     1.0  0.71306  0.67248  0.28390  1.0000
  H   H1312     1.0  0.83354  0.76737  0.37866  1.0000
  H   H1313     1.0  0.95924  0.64945  0.26064  1.0000
  C   C774      1.0  0.89000  0.62337  0.31009  1.0000
  H   H1314     1.0  0.83797  0.75115  0.45053  1.0000
  H   H1315     1.0  0.85053  0.75235  0.40270  1.0000
  H   H1316     1.0  0.87309  0.77375  0.37197  1.0000
  H   H1317     1.0  0.80632  0.73742  0.43937  1.0000
  H   H1318     1.0  0.78664  0.74183  0.41201  1.0000
  H   H1319     1.0  0.75117  0.52819  0.98773  1.0000
  C   C775      1.0  0.88017  0.62400  0.23924  1.0000
  C   C776      1.0  0.73877  0.49190  0.15151  1.0000
  H   H1320     1.0  0.65379  0.60663  0.17311  1.0000
  H   H1321     1.0  0.73852  0.65699  0.08489  1.0000
  C   C777      1.0  0.66699  0.63218  0.08958  1.0000
  H   H1322     1.0  0.68413  0.59961  0.07912  1.0000
  C   C778      1.0  0.67333  0.67150  0.08083  1.0000
  C   C779      1.0  0.65490  0.81805  0.20929  1.0000
  H   H1323     1.0  0.89254  0.66805  0.21971  1.0000
  H   H1324     1.0  0.71217  0.64269  0.28848  1.0000
  H   H1325     1.0  0.87673  0.64945  0.28292  1.0000
  C   C780      1.0  0.91433  0.66443  0.25638  1.0000
  C   C781      1.0  0.93198  0.63360  0.28290  1.0000
  C   C782      1.0  0.74999  0.64028  0.21401  1.0000
  C   C783      1.0  0.75366  0.66187  0.19709  1.0000
  H   H1326     1.0  0.76556  0.62967  0.21237  1.0000
  H   H1327     1.0  0.73755  0.63134  0.20216  1.0000
  H   H1328     1.0  0.76687  0.67166  0.20603  1.0000
  H   H1329     1.0  0.75946  0.65739  0.17555  1.0000
  H   H1330     1.0  0.73813  0.67231  0.19473  1.0000
  N   N55       1.0  0.71509  0.77689  0.27591  1.0000
  C   C784      1.0  0.70861  0.78466  0.24663  1.0000
  C   C785      1.0  0.72377  0.79660  0.29073  1.0000
  C   C786      1.0  0.69454  0.76924  0.29077  1.0000
  C   C787      1.0  0.73235  0.75802  0.27302  1.0000
  C   C788      1.0  0.69569  0.76836  0.22900  1.0000
  C   C789      1.0  0.74513  0.80575  0.27810  1.0000
  C   C790      1.0  0.69422  0.76947  0.32324  1.0000
  C   C791      1.0  0.74336  0.74905  0.30029  1.0000
  H   H1331     1.0  0.69823  0.80047  0.24761  1.0000
  H   H1332     1.0  0.72344  0.78854  0.23379  1.0000
  H   H1333     1.0  0.72729  0.79306  0.31318  1.0000
  H   H1334     1.0  0.71079  0.81045  0.29126  1.0000
  H   H1335     1.0  0.67976  0.77992  0.28460  1.0000
  H   H1336     1.0  0.69092  0.75214  0.28423  1.0000
  H   H1337     1.0  0.72505  0.74346  0.26323  1.0000
  H   H1338     1.0  0.74574  0.76220  0.25788  1.0000
  H   H1339     1.0  0.67944  0.76485  0.23866  1.0000
  H   H1340     1.0  0.69197  0.77616  0.20814  1.0000
  H   H1341     1.0  0.70544  0.75261  0.22497  1.0000
  H   H1342     1.0  0.75911  0.79306  0.27789  1.0000
  H   H1343     1.0  0.74251  0.81299  0.25679  1.0000
  H   H1344     1.0  0.75038  0.81943  0.29156  1.0000
  H   H1345     1.0  0.69260  0.78677  0.33112  1.0000
  H   H1346     1.0  0.70884  0.76069  0.33274  1.0000
  H   H1347     1.0  0.67931  0.76119  0.33103  1.0000
  H   H1348     1.0  0.82693  0.77549  0.46726  1.0000
  H   H1349     1.0  0.78763  0.55852  0.98829  1.0000
  H   H1350     1.0  0.68107  0.91164  0.46326  1.0000
  N   N56       1.0  0.74308  0.64319  0.24446  1.0000
  C   C792      1.0  0.75938  0.65786  0.25814  1.0000
  H   H1351     1.0  0.76104  0.61236  0.25554  1.0000
  H   H1352     1.0  0.75508  0.67570  0.25345  1.0000
  H   H1353     1.0  0.70866  0.64537  0.23075  1.0000
  H   H1354     1.0  0.66074  0.82624  0.19045  1.0000
  H   H1355     1.0  0.77124  0.63963  0.29594  1.0000
  C   C793      1.0  0.65623  0.62390  0.16815  1.0000
  S   S232      1.0  0.66063  0.82460  0.29523  1.0000
  C   C794      1.0  0.71999  0.65400  0.24489  1.0000
  C   C795      1.0  0.66067  0.82611  0.23599  1.0000
  C   C796      1.0  0.72739  0.60413  0.24712  1.0000
  H   H1356     1.0  0.72000  0.67100  0.23561  1.0000
  H   H1357     1.0  0.73021  0.60019  0.22467  1.0000
  C   C797      1.0  0.95298  0.63263  0.26405  1.0000
  H   H1358     1.0  0.70996  0.61036  0.25038  1.0000
  C   C798      1.0  0.76238  0.65566  0.29028  1.0000
  C   C799      1.0  0.70859  0.65679  0.27390  1.0000
  H   H1359     1.0  0.74127  0.62111  0.28110  1.0000
  H   H1360     1.0  0.66084  0.63920  0.10990  1.0000
  H   H1361     1.0  0.74660  0.65753  0.30218  1.0000
  H   H1362     1.0  0.72491  0.65827  0.05187  1.0000
  H   H1363     1.0  0.93057  0.61649  0.29153  1.0000
  H   H1364     1.0  0.92820  0.66368  0.24082  1.0000
  H   H1365     1.0  0.87903  0.67648  0.25257  1.0000
  H   H1366     1.0  0.87197  0.64013  0.23331  1.0000
  C   C800      1.0  0.90497  0.62547  0.24648  1.0000
  C   C801      1.0  0.71931  0.96888  0.30711  1.0000
  C   C802      1.0  0.68068  0.92064  0.48360  1.0000
  H   H1367     1.0  0.97360  0.66999  0.43968  1.0000
  H   H1368     1.0  0.68218  0.68371  0.06776  1.0000
  H   H1369     1.0  0.97535  0.69655  0.42310  1.0000
  H   H1370     1.0  0.87398  0.76528  0.44353  1.0000
  H   H1371     1.0  0.65188  0.63005  0.07687  1.0000
  H   H1372     1.0  0.66335  0.59873  0.10596  1.0000
  C   C803      1.0  0.64833  0.67664  0.07561  1.0000
  H   H1373     1.0  0.66360  0.97076  0.30281  1.0000
  H   H1374     1.0  0.75901  0.80833  0.48520  1.0000
  C   C804      1.0  0.71636  0.97649  0.36473  1.0000
  H   H1375     1.0  0.97803  0.66231  0.32643  1.0000
  Fe  Fe117     1.0  0.70699  0.84990  0.59046  1.0000
  S   S233      1.0  0.73156  0.87306  0.60696  1.0000
  S   S234      1.0  0.71463  0.84020  0.54470  1.0000
  Fe  Fe118     1.0  0.68667  0.84304  0.65074  1.0000
  S   S235      1.0  0.71038  0.86601  0.67021  1.0000
  C   C805      1.0  0.87395  0.62077  0.89191  1.0000
  Fe  Fe119     1.0  0.70371  0.88894  0.63272  1.0000
  S   S236      1.0  0.69135  0.92593  0.63061  1.0000
  Fe  Fe120     1.0  0.73625  0.84811  0.64236  1.0000
  S   S237      1.0  0.77191  0.83717  0.65338  1.0000
  S   S238      1.0  0.67858  0.86676  0.61434  1.0000
  S   S239      1.0  0.71297  0.82420  0.62487  1.0000
  Fe  Fe121     1.0  0.76448  0.58541  0.88922  1.0000
  S   S240      1.0  0.72961  0.58022  0.87629  1.0000
  S   S241      1.0  0.77773  0.57535  0.93281  1.0000
  Fe  Fe122     1.0  0.77895  0.59777  0.82753  1.0000
  S   S242      1.0  0.74479  0.59211  0.81102  1.0000
  S   S243      1.0  0.80879  0.61467  0.80681  1.0000
  Fe  Fe123     1.0  0.73177  0.61103  0.84912  1.0000
  S   S244      1.0  0.71170  0.64445  0.84925  1.0000
  Fe  Fe124     1.0  0.74549  0.56131  0.83965  1.0000
  S   S245      1.0  0.73128  0.52696  0.83213  1.0000
  S   S246      1.0  0.76589  0.61731  0.86487  1.0000
  S   S247      1.0  0.78040  0.56583  0.85343  1.0000
  Fe  Fe125     1.0  0.84577  0.71798  0.64023  1.0000
  S   S248      1.0  0.84034  0.68379  0.62369  1.0000
  S   S249      1.0  0.81193  0.73729  0.64237  1.0000
  Fe  Fe126     1.0  0.89573  0.70535  0.64919  1.0000
  S   S250      1.0  0.89214  0.67044  0.63443  1.0000
  S   S251      1.0  0.92942  0.72027  0.65824  1.0000
  Fe  Fe127     1.0  0.87204  0.68654  0.59906  1.0000
  S   S252      1.0  0.88149  0.67486  0.55433  1.0000
  Fe  Fe128     1.0  0.86046  0.67086  0.66065  1.0000
  S   S253      1.0  0.84519  0.64102  0.68342  1.0000
  S   S254      1.0  0.87635  0.72147  0.61305  1.0000
  S   S255      1.0  0.86517  0.70497  0.67789  1.0000
  C   C806      1.0  0.74124  0.49836  0.83439  1.0000
  H   H1376     1.0  0.65252  0.70313  0.84323  1.0000
  H   H1377     1.0  0.69261  0.52666  0.90748  1.0000
  C   C807      1.0  0.74749  0.50394  0.95467  1.0000
  H   H1378     1.0  0.77603  0.50434  0.83383  1.0000
  C   C808      1.0  0.81780  0.62259  0.77216  1.0000
  C   C809      1.0  0.83528  0.63712  0.76931  1.0000
  C   C810      1.0  0.84352  0.64337  0.74249  1.0000
  C   C811      1.0  0.83464  0.63489  0.71795  1.0000
  C   C812      1.0  0.81723  0.62031  0.72082  1.0000
  C   C813      1.0  0.80867  0.61445  0.74760  1.0000
  H   H1379     1.0  0.84264  0.64349  0.78802  1.0000
  H   H1380     1.0  0.85710  0.65431  0.74085  1.0000
  H   H1381     1.0  0.81038  0.61335  0.70213  1.0000
  H   H1382     1.0  0.79541  0.60312  0.74923  1.0000
  C   C814      1.0  0.70059  0.95335  0.63626  1.0000
  C   C815      1.0  0.69667  0.95717  0.56030  1.0000
  C   C816      1.0  0.72157  0.95726  0.64684  1.0000
  H   H1383     1.0  0.64574  0.71919  0.90552  1.0000
  H   H1384     1.0  0.73289  0.94335  0.65201  1.0000
  C   C817      1.0  0.78293  0.80925  0.65185  1.0000
  C   C818      1.0  0.80603  0.80478  0.65294  1.0000
  C   C819      1.0  0.81534  0.78286  0.65051  1.0000
  C   C820      1.0  0.80156  0.76518  0.64712  1.0000
  C   C821      1.0  0.77847  0.76965  0.64654  1.0000
  C   C822      1.0  0.76920  0.79149  0.64884  1.0000
  H   H1385     1.0  0.81681  0.81838  0.65538  1.0000
  H   H1386     1.0  0.83314  0.77970  0.65104  1.0000
  H   H1387     1.0  0.76764  0.75617  0.64372  1.0000
  H   H1388     1.0  0.75142  0.79461  0.64814  1.0000
  C   C823      1.0  0.66754  0.81374  0.72983  1.0000
  C   C824      1.0  0.69173  0.90824  0.54992  1.0000
  C   C825      1.0  0.66687  0.63959  0.83852  1.0000
  C   C826      1.0  0.68372  0.65395  0.84394  1.0000
  C   C827      1.0  0.67832  0.67691  0.84546  1.0000
  H   H1389     1.0  0.71711  0.53571  0.89105  1.0000
  H   H1390     1.0  0.67079  0.62190  0.83724  1.0000
  H   H1391     1.0  0.69123  0.68815  0.84970  1.0000
  H   H1392     1.0  0.75706  0.51724  0.88452  1.0000
  H   H1393     1.0  0.68368  0.82028  0.72635  1.0000
  H   H1394     1.0  0.77854  0.84395  0.58233  1.0000
  C   C828      1.0  0.70322  0.84878  0.51171  1.0000
  C   C829      1.0  0.68122  0.85692  0.50889  1.0000
  C   C830      1.0  0.88197  0.67417  0.49624  1.0000
  H   H1395     1.0  0.67052  0.85815  0.52726  1.0000
  C   C831      1.0  0.85679  0.70208  0.51683  1.0000
  C   C832      1.0  0.87265  0.68452  0.52040  1.0000
  N   N57       1.0  0.70402  0.92253  0.52938  1.0000
  H   H1396     1.0  0.84934  0.71009  0.53513  1.0000
  C   C833      1.0  0.65217  0.81449  0.70792  1.0000
  C   C834      1.0  0.76951  0.58531  0.96672  1.0000
  C   C835      1.0  0.78356  0.51889  0.91429  1.0000
  C   C836      1.0  0.75619  0.60479  0.97033  1.0000
  H   H1397     1.0  0.80368  0.80056  0.53664  1.0000
  H   H1398     1.0  0.75020  0.61408  0.95209  1.0000
  C   C837      1.0  0.95794  0.71031  0.65646  1.0000
  H   H1399     1.0  0.73487  0.75520  0.58587  1.0000
  H   H1400     1.0  0.78575  0.79724  0.49482  1.0000
  H   H1401     1.0  0.65918  0.67185  0.92808  1.0000
  H   H1402     1.0  0.95197  0.67560  0.66051  1.0000
  H   H1403     1.0  0.71354  0.95727  0.56923  1.0000
  C   C838      1.0  0.93818  0.70899  0.55756  1.0000
  H   H1404     1.0  0.73662  0.49209  0.96538  1.0000
  C   C839      1.0  0.71072  0.52782  0.91046  1.0000
  C   C840      1.0  0.94042  0.67631  0.58837  1.0000
  H   H1405     1.0  0.74177  0.89342  0.51010  1.0000
  H   H1406     1.0  0.92413  0.71976  0.59850  1.0000
  C   C841      1.0  0.75494  0.47961  0.91453  1.0000
  C   C842      1.0  0.95020  0.65314  0.59723  1.0000
  H   H1407     1.0  0.82482  0.58503  0.92676  1.0000
  H   H1408     1.0  0.92174  0.70377  0.55050  1.0000
  H   H1409     1.0  0.80893  0.79823  0.59019  1.0000
  H   H1410     1.0  0.64548  0.69415  0.70325  1.0000
  C   C843      1.0  0.67695  0.73937  0.78181  1.0000
  H   H1411     1.0  0.66261  0.93772  0.72886  1.0000
  H   H1412     1.0  0.93849  0.68595  0.60813  1.0000
  H   H1413     1.0  0.92297  0.67439  0.58204  1.0000
  H   H1414     1.0  0.65989  0.90803  0.57176  1.0000
  H   H1415     1.0  0.68561  0.94067  0.70540  1.0000
  H   H1416     1.0  0.69266  0.73437  0.77073  1.0000
  C   C844      1.0  0.66194  0.80479  0.75653  1.0000
  H   H1417     1.0  0.92189  0.74015  0.57130  1.0000
  H   H1418     1.0  0.70440  0.89589  0.49906  1.0000
  H   H1419     1.0  0.83400  0.54583  0.93282  1.0000
  H   H1420     1.0  0.94455  0.65532  0.50821  1.0000
  H   H1421     1.0  0.79108  0.53265  0.90251  1.0000
  H   H1422     1.0  0.80844  0.76825  0.58683  1.0000
  H   H1423     1.0  0.93637  0.64265  0.60358  1.0000
  N   N58       1.0  0.78937  0.69410  0.71662  1.0000
  C   C845      1.0  0.80083  0.68519  0.69042  1.0000
  C   C846      1.0  0.80287  0.71241  0.72776  1.0000
  C   C847      1.0  0.76630  0.70339  0.71038  1.0000
  C   C848      1.0  0.78765  0.67540  0.73767  1.0000
  C   C849      1.0  0.78881  0.66746  0.67417  1.0000
  C   C850      1.0  0.82465  0.70477  0.74255  1.0000
  C   C851      1.0  0.76464  0.72140  0.68713  1.0000
  C   C852      1.0  0.77710  0.68163  0.76650  1.0000
  H   H1424     1.0  0.80427  0.69877  0.67528  1.0000
  H   H1425     1.0  0.81745  0.67770  0.69557  1.0000
  H   H1426     1.0  0.79305  0.72324  0.74264  1.0000
  H   H1427     1.0  0.80761  0.72386  0.71038  1.0000
  H   H1428     1.0  0.75531  0.68995  0.70460  1.0000
  H   H1429     1.0  0.75851  0.71097  0.72959  1.0000
  H   H1430     1.0  0.77748  0.66217  0.72930  1.0000
  H   H1431     1.0  0.80397  0.66664  0.74128  1.0000
  H   H1432     1.0  0.78752  0.65190  0.68655  1.0000
  H   H1433     1.0  0.77226  0.67363  0.66675  1.0000
  H   H1434     1.0  0.79884  0.66291  0.65513  1.0000
  H   H1435     1.0  0.82149  0.69615  0.76283  1.0000
  H   H1436     1.0  0.83552  0.69384  0.72910  1.0000
  H   H1437     1.0  0.83406  0.71957  0.74740  1.0000
  H   H1438     1.0  0.77433  0.73590  0.69230  1.0000
  H   H1439     1.0  0.74708  0.72758  0.68504  1.0000
  H   H1440     1.0  0.77006  0.71484  0.66630  1.0000
  H   H1441     1.0  0.75898  0.67926  0.76649  1.0000
  H   H1442     1.0  0.77977  0.69887  0.77283  1.0000
  H   H1443     1.0  0.78486  0.67077  0.78315  1.0000
  C   C853      1.0  0.83163  0.57618  0.90785  1.0000
  H   H1444     1.0  0.67190  0.87364  0.71815  1.0000
  H   H1445     1.0  0.69714  0.91083  0.57194  1.0000
  H   H1446     1.0  0.83761  0.72222  0.48713  1.0000
  C   C854      1.0  0.66806  0.71044  0.73246  1.0000
  N   N59       1.0  0.84413  0.59168  0.88921  1.0000
  H   H1447     1.0  0.69035  0.97479  0.55886  1.0000
  H   H1448     1.0  0.77241  0.80811  0.59506  1.0000
  H   H1449     1.0  0.86943  0.56839  0.87228  1.0000
  C   C855      1.0  0.77619  0.83363  0.56344  1.0000
  C   C856      1.0  0.85530  0.57950  0.86490  1.0000
  C   C857      1.0  0.74051  0.89790  0.53267  1.0000
  H   H1450     1.0  0.73345  0.78434  0.59151  1.0000
  C   C858      1.0  0.76394  0.77124  0.56996  1.0000
  H   H1451     1.0  0.65868  0.71800  0.68871  1.0000
  H   H1452     1.0  0.73368  0.84051  0.48931  1.0000
  C   C859      1.0  0.76386  0.49184  0.83507  1.0000
  H   H1453     1.0  0.94557  0.71770  0.53920  1.0000
  H   H1454     1.0  0.74889  0.81472  0.57537  1.0000
  C   C860      1.0  0.68618  0.97186  0.62983  1.0000
  H   H1455     1.0  0.67374  0.69162  0.69397  1.0000
  H   H1456     1.0  0.65931  0.89743  0.53657  1.0000
  C   C861      1.0  0.69652  0.94678  0.53080  1.0000
  H   H1457     1.0  0.67947  0.94999  0.52284  1.0000
  H   H1458     1.0  0.66562  0.91579  0.49491  1.0000
  C   C862      1.0  0.65724  0.70624  0.91481  1.0000
  H   H1459     1.0  0.69625  0.89036  0.54642  1.0000
  C   C863      1.0  0.84032  0.56544  0.84692  1.0000
  H   H1460     1.0  0.64573  0.67731  0.89564  1.0000
  H   H1461     1.0  0.66337  0.89345  0.74417  1.0000
  C   C864      1.0  0.66038  0.72073  0.78137  1.0000
  H   H1462     1.0  0.82852  0.63398  0.91197  1.0000
  C   C865      1.0  0.66523  0.91370  0.69376  1.0000
  H   H1463     1.0  0.70827  0.48632  0.83500  1.0000
  C   C866      1.0  0.81121  0.78408  0.57555  1.0000
  H   H1464     1.0  0.71949  0.49613  0.89354  1.0000
  H   H1465     1.0  0.71297  0.53874  0.92858  1.0000
  H   H1466     1.0  0.68122  0.74265  0.80402  1.0000
  H   H1467     1.0  0.68553  0.94871  0.57511  1.0000
  H   H1468     1.0  0.66974  0.70567  0.78941  1.0000
  H   H1469     1.0  0.64735  0.72487  0.79761  1.0000
  C   C867      1.0  0.65723  0.88364  0.72649  1.0000
  H   H1470     1.0  0.88642  0.62678  0.90664  1.0000
  H   H1471     1.0  0.67925  0.90389  0.68367  1.0000
  C   C868      1.0  0.77075  0.80656  0.50303  1.0000
  H   H1472     1.0  0.67983  0.69726  0.74108  1.0000
  C   C869      1.0  0.70221  0.91430  0.49960  1.0000
  H   H1473     1.0  0.72358  0.52836  0.97370  1.0000
  C   C870      1.0  0.65638  0.68547  0.84170  1.0000
  H   H1474     1.0  0.68681  0.91839  0.73022  1.0000
  H   H1475     1.0  0.95898  0.64381  0.58027  1.0000
  H   H1476     1.0  0.76438  0.49833  0.96188  1.0000
  H   H1477     1.0  0.75773  0.89851  0.54050  1.0000
  H   H1478     1.0  0.97030  0.66161  0.54460  1.0000
  H   H1479     1.0  0.79247  0.50335  0.90726  1.0000
  H   H1480     1.0  0.67003  0.75526  0.77290  1.0000
  C   C871      1.0  0.64683  0.68344  0.91746  1.0000
  C   C872      1.0  0.97384  0.69771  0.57857  1.0000
  H   H1481     1.0  0.83259  0.55212  0.85917  1.0000
  H   H1482     1.0  0.77203  0.76894  0.59070  1.0000
  C   C873      1.0  0.93844  0.66619  0.52567  1.0000
  H   H1483     1.0  0.67192  0.70458  0.90052  1.0000
  H   H1484     1.0  0.76431  0.84283  0.54930  1.0000
  C   C874      1.0  0.97463  0.72571  0.65371  1.0000
  H   H1485     1.0  0.70696  0.95683  0.51660  1.0000
  C   C875      1.0  0.74149  0.52669  0.96814  1.0000
  C   C876      1.0  0.93305  0.72670  0.58028  1.0000
  H   H1486     1.0  0.73270  0.88451  0.54464  1.0000
  H   H1487     1.0  0.76854  0.75582  0.55799  1.0000
  H   H1488     1.0  0.82892  0.78318  0.56893  1.0000
  H   H1489     1.0  0.73050  0.92478  0.55977  1.0000
  H   H1490     1.0  0.92742  0.67943  0.51611  1.0000
  C   C877      1.0  0.75968  0.79377  0.52720  1.0000
  N   N60       1.0  0.95292  0.68914  0.56649  1.0000
  C   C878      1.0  0.72828  0.92079  0.53717  1.0000
  H   H1491     1.0  0.75669  0.77713  0.51839  1.0000
  H   H1492     1.0  0.85920  0.55999  0.93210  1.0000
  C   C879      1.0  0.73876  0.77138  0.57611  1.0000
  S   S256      1.0  0.65765  0.82678  0.67408  1.0000
  H   H1493     1.0  0.73773  0.93315  0.52500  1.0000
  C   C880      1.0  0.76709  0.81136  0.57306  1.0000
  H   H1494     1.0  0.75199  0.53652  0.91134  1.0000
  H   H1495     1.0  0.72866  0.77339  0.55681  1.0000
  C   C881      1.0  0.72580  0.48162  0.83568  1.0000
  C   C882      1.0  0.75861  0.51930  0.90763  1.0000
  H   H1496     1.0  0.65405  0.66819  0.74403  1.0000
  N   N61       1.0  0.77204  0.79141  0.55469  1.0000
  H   H1497     1.0  0.67865  0.72475  0.72870  1.0000
  H   H1498     1.0  0.74289  0.80193  0.53056  1.0000
  C   C883      1.0  0.79655  0.78708  0.54923  1.0000
  H   H1499     1.0  0.87475  0.58912  0.91262  1.0000
  C   C884      1.0  0.67538  0.92829  0.71624  1.0000
  H   H1500     1.0  0.77485  0.82349  0.50909  1.0000
  H   H1501     1.0  0.92868  0.65584  0.54013  1.0000
  H   H1502     1.0  0.67397  0.80454  0.77325  1.0000
  C   C885      1.0  0.85024  0.70898  0.48950  1.0000
  H   H1503     1.0  0.81693  0.57031  0.89682  1.0000
  H   H1504     1.0  0.79944  0.77188  0.53624  1.0000
  C   C886      1.0  0.96446  0.68768  0.65787  1.0000
  H   H1505     1.0  0.94810  0.73457  0.58762  1.0000
  H   H1506     1.0  0.88311  0.61499  0.87278  1.0000
  H   H1507     1.0  0.85106  0.54433  0.90195  1.0000
  H   H1508     1.0  0.79270  0.83206  0.55330  1.0000
  H   H1509     1.0  0.82732  0.57586  0.83611  1.0000
  H   H1510     1.0  0.89393  0.66031  0.49866  1.0000
  H   H1511     1.0  0.83571  0.61949  0.86108  1.0000
  H   H1512     1.0  0.85056  0.55718  0.83008  1.0000
  C   C887      1.0  0.86167  0.60189  0.90645  1.0000
  H   H1513     1.0  0.80614  0.63787  0.88814  1.0000
  H   H1514     1.0  0.78649  0.52172  0.93695  1.0000
  H   H1515     1.0  0.96699  0.68620  0.52460  1.0000
  C   C888      1.0  0.84504  0.55551  0.91908  1.0000
  C   C889      1.0  0.66615  0.91039  0.54989  1.0000
  H   H1516     1.0  0.85465  0.60833  0.92674  1.0000
  H   H1517     1.0  0.81417  0.60136  0.86668  1.0000
  C   C890      1.0  0.81657  0.62501  0.89947  1.0000
  H   H1518     1.0  0.65699  0.67393  0.78094  1.0000
  H   H1519     1.0  0.86268  0.63528  0.88652  1.0000
  H   H1520     1.0  0.65678  0.87467  0.67166  1.0000
  H   H1521     1.0  0.65874  0.92551  0.67727  1.0000
  H   H1522     1.0  0.86271  0.59142  0.84994  1.0000
  H   H1523     1.0  0.97075  0.70389  0.60028  1.0000
  H   H1524     1.0  0.74598  0.54109  0.95515  1.0000
  N   N62       1.0  0.74550  0.50230  0.92314  1.0000
  H   H1525     1.0  0.65904  0.92682  0.54322  1.0000
  C   C891      1.0  0.82786  0.60920  0.87763  1.0000
  H   H1526     1.0  0.66988  0.96921  0.62174  1.0000
  H   H1527     1.0  0.96132  0.65427  0.61552  1.0000
  H   H1528     1.0  0.96993  0.74328  0.65284  1.0000
  C   C892      1.0  0.66082  0.70335  0.70302  1.0000
  H   H1529     1.0  0.64870  0.74976  0.73478  1.0000
  C   C893      1.0  0.72150  0.50425  0.91430  1.0000
  N   N63       1.0  0.64986  0.71655  0.75332  1.0000
  C   C894      1.0  0.95837  0.67582  0.54039  1.0000
  H   H1530     1.0  0.66343  0.71190  0.93528  1.0000
  H   H1531     1.0  0.71089  0.49528  0.92946  1.0000
  H   H1532     1.0  0.80530  0.61614  0.91378  1.0000
  C   C895      1.0  0.71666  0.84668  0.48741  1.0000
  H   H1533     1.0  0.71585  0.92054  0.48617  1.0000
  H   H1534     1.0  0.75654  0.47867  0.89124  1.0000
  H   H1535     1.0  0.65137  0.85648  0.75548  1.0000
  C   C896      1.0  0.64533  0.67466  0.76314  1.0000
  N   N64       1.0  0.64743  0.89865  0.70369  1.0000
  H   H1536     1.0  0.64604  0.90601  0.64141  1.0000
