data_image0
_chemical_formula_structural       FeS2FeS2FeSFeS3FeS2FeS2FeHFeHS2H2FeS2FeSH2NH6C2H2CH4C6H4C6H4CH2CHCHCHC2HCH4C3H4CHC3HCH4C2HCH3CHC2H6CH2SH5CH2C2H3CH3NCHC3SCH2C3H3CHSC2H7CNC2H3NH2CHC2H8CH7CH6CH2C2H3SCHSFeHNSHC3HSFeSFeSFeS2FeSHFeS3C3H3C4HCH4C5H8C2HC2HS2FeS2FeSHFeSC3H2CH2CH3SCHC7H6CHCH2CHCHCH5C3H4CH3CNH2N2H2NC5HC2H11CH10CHCH2CH3CH2C2HC2H2C2H2CHC2H2NCH7C2HCHC2HCH2CH2C2H3CH2C2HCH2CH2CH3CH3SH4CH4FeS2FeS2FeHFeS3FeS2FeS2FeCFeHS2CH3FeS2FeSH2CHSCH5CH2CH5C6H4C6H4CH2SH4CHNSH3C2H5CHCH2C2HFeH3CH2CH3CH3CHCH3CH3C3SHCHC2HCHCHCHCH3SH2NCHCHCHNCHCHCH4C2HCH5CH6CH3NC2FeCHCHCHC3FeHC2SNH2CH2CHSC2H3SH2CH5CHC2H2SCH3FeS2FeS2FeSFeS3FeS2FeS2FeHFeCS2H2FeS2FeSH4C4H2CH2CH4C6H4C6H4CH3C3HCHCHCH7CHC2HC3SH2CH9CHC3HCH3NCH3CH3C2H2C2HFeH2CH2SCNH5C2H3CH3CH3NC4H2C2H6C2HCH6CH3CH4SH2CHCH3CNCH4CH2CSH2CH2CH2CNH2CHCHSCNSH2CH3CFeH2FeSFeSFeS2FeSHFeS3C3H5SC4H2C6H7CHCHCH2S2FeS2FeSHFeSC3H5CHCH5C5H6SH2CHC2NC2HCH2CHCH7CHCH5C2H2CH6CH7CHCHCH4CH2NHC2HC4H5CHCHCHC3H3CH6NCH4CHC5HNC2H2CHCH2CH4CHC2HCHCHCH2NHCH4FeS2FeS2FeSFeS3FeS2FeS2FeCFeHS2H3CFeS2FeSCH2FeC2HC2NH2C5H2C7H4C6H5CH3CH2SH2C3HCH5C3HCH2C2H7CH2CH3SH11CH3C2HSHNH2NHC4H5C4H3NCH2CH3CHCH3NHCHCH3C2H4FeHCHCH4C3H5CH2C3H2SH4CSH2CH5C4S2H3FeSHFeSCFeSFeS3FeS2FeS2FeSFeS3FeSH2FeS2H2SH2CH5CSH5NHC6H4CHCHCH2CNC3H3C6H6C2SH2CH2SHC2H2C3HNC6HCH4CH3CH2CHCH4SH3C2H2SHCH4C2SH5SCH2CHCH7NCH8CH2CH4SC2H3FeCH4CNC8H8C3HCH2C3HCNH3FeSHFeSFeS2FeS2FeS3H2C3H2C6H3CHCHCHCHCHCFeSHSFeS2FeSHCH2CH2C4H2NC6H4CH2C3H2CHCH2CNCHC2H5C2H2CH3CH4CH4C2HCH10C2H3CHNC2HC3H6C2H3CH4C2HCH2CHCHCH7CH2NC4SHCH7C2H5SC2H4CH5NHCSH2FeSHFeSHFeSFeS3FeS2FeS2FeSFeS3FeSH2CHCHFeS2H3SHC2H4C3H2C6H5CH2CSC2HC2H4C6H2CHCH2C3H2CH2CH7C2HCFeH2C3H2NCHNCHCH4CH3C2HCH6CH6CHNH2C2HC3SCHSH7CH2CH9FeNC7H15SNC3HCH2C2H2C2H2CHSCHCH2C2H3CH3CSH2CSH4C2FeC2H7FeSHFeSHFeSFeS3FeS2FeS2FeSFeS3FeSCHFeS2H2CNHCH2C2H2NC3H3C7H6CH4C2H4CHC6H4NH7CHCH5FeHCHC2H2C2H2CH4CH7C2H2NC4HC3H8CHFeH3SCHNCH4CH2CHCHC3HC3H3CSH3CH2C2NH3CH3C6HNHC2H3CH3CH6CH3CH8S2HCH8C2H4CH2FeSHFeSFeS2FeS2FeS3HC4H3C5H6CH2C2HC2FeS3FeS2FeSH6CHC3H2C6H6C3H3CH3CHCH2C2H3C2HCH11NCHCH6CH3C3HC2H10CH6NC8H8C2H10NC2HCH2CHCHCHCH3CH3CH5C2HNC4H4CH5CH2CHC2H4CH3NC2HFeSCFeSHFeSFeS3FeS2FeS2FeSFeS3FeSCHCH3FeS2H5C3H2C3HCHC6H4CH4C3H5C6HNC3H2C4H7C3H9C2H4CHSC2H2CH4CHCH8NCHCHSH2C2H2CH5SFe2H3C3HCH5NHCH3NC8H17C2NH3C3H5CH2SHSH2CH2CSHC2HSCH
_chemical_formula_sum              "Fe128 S256 H1536 N64 C896"
_cell_length_a       45.5622
_cell_length_b       32.3673
_cell_length_c       49.2178
_cell_angle_alpha    89.9503
_cell_angle_beta     89.7715
_cell_angle_gamma    89.8972

_space_group_name_H-M_alt    "P 1"
_space_group_IT_number       1

loop_
  _space_group_symop_operation_xyz
  'x, y, z'

loop_
  _atom_site_type_symbol
  _atom_site_label
  _atom_site_symmetry_multiplicity
  _atom_site_fract_x
  _atom_site_fract_y
  _atom_site_fract_z
  _atom_site_occupancy
  Fe  Fe1       1.0  0.43137  0.09529  0.23526  1.0000
  S   S1        1.0  0.44033  0.16391  0.23448  1.0000
  S   S2        1.0  0.46822  0.05239  0.21950  1.0000
  Fe  Fe2       1.0  0.36642  0.10960  0.25108  1.0000
  S   S3        1.0  0.37147  0.17869  0.25159  1.0000
  S   S4        1.0  0.32396  0.07327  0.25974  1.0000
  Fe  Fe3       1.0  0.39747  0.17083  0.21275  1.0000
  S   S5        1.0  0.38823  0.21958  0.18015  1.0000
  Fe  Fe4       1.0  0.41406  0.16719  0.27336  1.0000
  S   S6        1.0  0.43250  0.21300  0.30438  1.0000
  S   S7        1.0  0.38968  0.10225  0.21075  1.0000
  S   S8        1.0  0.40783  0.09800  0.27568  1.0000
  Fe  Fe5       1.0  0.08050  0.10629  0.24557  1.0000
  S   S9        1.0  0.07449  0.03691  0.24600  1.0000
  S   S10       1.0  0.03921  0.14360  0.23402  1.0000
  Fe  Fe6       1.0  0.14712  0.09746  0.25364  1.0000
  S   S11       1.0  0.14515  0.02859  0.25450  1.0000
  S   S12       1.0  0.19005  0.13388  0.25569  1.0000
  Fe  Fe7       1.0  0.11426  0.03344  0.21914  1.0000
  H   H1        1.0  0.01765  0.46417  0.23458  1.0000
  Fe  Fe8       1.0  0.10557  0.03637  0.28133  1.0000
  H   H2        1.0  0.10703  0.41557  0.25464  1.0000
  S   S13       1.0  0.11885  0.10246  0.21623  1.0000
  S   S14       1.0  0.10910  0.10592  0.28311  1.0000
  H   H3        1.0  0.00954  0.06489  0.25056  1.0000
  H   H4        1.0  0.17490  0.01040  0.15049  1.0000
  Fe  Fe9       1.0  0.42126  0.29643  0.02885  1.0000
  S   S15       1.0  0.44014  0.25348  0.06145  1.0000
  S   S16       1.0  0.41549  0.36568  0.02960  1.0000
  Fe  Fe10      1.0  0.11598  0.42814  0.01536  1.0000
  S   S17       1.0  0.11783  0.35946  0.02263  1.0000
  H   H5        1.0  0.06730  0.40800  0.28233  1.0000
  H   H6        1.0  0.48348  0.43745  0.28864  1.0000
  N   N1        1.0  0.19982  0.43177  0.08071  1.0000
  H   H7        1.0  0.04838  0.20142  0.27963  1.0000
  H   H8        1.0  0.26955  0.13683  0.17478  1.0000
  H   H9        1.0  0.03270  0.31244  0.21733  1.0000
  H   H10       1.0  0.48356  0.09767  0.00908  1.0000
  H   H11       1.0  0.25010  0.36503  0.07042  1.0000
  H   H12       1.0  0.23012  0.39914  0.10679  1.0000
  C   C1        1.0  0.09664  0.44601  0.12314  1.0000
  C   C2        1.0  0.09875  0.44560  0.09455  1.0000
  H   H13       1.0  0.16381  0.41029  0.05590  1.0000
  H   H14       1.0  0.42506  0.31743  0.17259  1.0000
  C   C3        1.0  0.17870  0.02067  0.32074  1.0000
  H   H15       1.0  0.08902  0.41872  0.13372  1.0000
  H   H16       1.0  0.09273  0.41821  0.08329  1.0000
  H   H17       1.0  0.07206  0.34313  0.26414  1.0000
  H   H18       1.0  0.01942  0.44703  0.19986  1.0000
  C   C4        1.0  0.40194  0.22605  0.14657  1.0000
  C   C5        1.0  0.38895  0.25618  0.12983  1.0000
  C   C6        1.0  0.40008  0.26450  0.10362  1.0000
  C   C7        1.0  0.42466  0.24310  0.09396  1.0000
  C   C8        1.0  0.43779  0.21308  0.11073  1.0000
  C   C9        1.0  0.42633  0.20423  0.13679  1.0000
  H   H19       1.0  0.37020  0.27342  0.13727  1.0000
  H   H20       1.0  0.38982  0.28780  0.09104  1.0000
  H   H21       1.0  0.45702  0.19666  0.10363  1.0000
  H   H22       1.0  0.43666  0.18116  0.14949  1.0000
  C   C10       1.0  0.28688  0.09083  0.25845  1.0000
  C   C11       1.0  0.27964  0.13246  0.25471  1.0000
  C   C12       1.0  0.24995  0.14503  0.25431  1.0000
  C   C13       1.0  0.22707  0.11621  0.25727  1.0000
  C   C14       1.0  0.23425  0.07450  0.26082  1.0000
  C   C15       1.0  0.26396  0.06199  0.26158  1.0000
  H   H23       1.0  0.29696  0.15504  0.25230  1.0000
  H   H24       1.0  0.24472  0.17737  0.25146  1.0000
  H   H25       1.0  0.21698  0.05187  0.26288  1.0000
  H   H26       1.0  0.26930  0.02970  0.26443  1.0000
  C   C16       1.0  0.02090  0.41442  0.28786  1.0000
  H   H27       1.0  0.47009  0.23024  0.18226  1.0000
  H   H28       1.0  0.05219  0.45045  0.26502  1.0000
  C   C17       1.0  0.01019  0.44009  0.22030  1.0000
  H   H29       1.0  0.05960  0.28501  0.23615  1.0000
  C   C18       1.0  0.02162  0.19049  0.24448  1.0000
  H   H30       1.0  0.46533  0.36601  0.17848  1.0000
  C   C19       1.0  0.25032  0.39910  0.06765  1.0000
  H   H31       1.0  0.48825  0.36642  0.22194  1.0000
  C   C20       1.0  0.03016  0.21247  0.26760  1.0000
  C   C21       1.0  0.19514  0.01428  0.13840  1.0000
  H   H32       1.0  0.50632  0.19376  0.27160  1.0000
  C   C22       1.0  0.47082  0.27257  0.24079  1.0000
  H   H33       1.0  0.30716  0.30929  0.01520  1.0000
  H   H34       1.0  0.20750  0.11174  0.31983  1.0000
  H   H35       1.0  0.19832  0.39466  0.04368  1.0000
  H   H36       1.0  0.06903  0.44039  0.22104  1.0000
  C   C23       1.0  0.48156  0.17960  0.00328  1.0000
  C   C24       1.0  0.08551  0.99996  0.11362  1.0000
  C   C25       1.0  0.46077  0.29605  0.21515  1.0000
  H   H37       1.0  0.44539  0.27510  0.20448  1.0000
  H   H38       1.0  0.47029  0.10983  0.05142  1.0000
  H   H39       1.0  0.20074  0.99335  0.21998  1.0000
  H   H40       1.0  0.50085  0.28514  0.03776  1.0000
  C   C26       1.0  0.23726  0.34343  0.00176  1.0000
  H   H41       1.0  0.24941  0.07443  0.19163  1.0000
  C   C27       1.0  0.07142  0.40666  0.22489  1.0000
  C   C28       1.0  0.18587  0.39958  0.06275  1.0000
  C   C29       1.0  0.01492  0.24874  0.27536  1.0000
  H   H42       1.0  0.25516  0.28593  0.01643  1.0000
  C   C30       1.0  0.18170  0.35661  0.07578  1.0000
  H   H43       1.0  0.50401  0.34504  0.07793  1.0000
  H   H44       1.0  0.18201  0.40628  0.11821  1.0000
  H   H45       1.0  0.18772  0.46728  0.27004  1.0000
  H   H46       1.0  0.10892  0.36696  0.23634  1.0000
  C   C31       1.0  0.26027  0.31687  0.00958  1.0000
  C   C32       1.0  0.21298  0.01090  0.20419  1.0000
  H   H47       1.0  0.06412  0.24756  0.00984  1.0000
  C   C33       1.0  0.44471  0.31506  0.15923  1.0000
  H   H48       1.0  0.50002  0.16444  0.01430  1.0000
  H   H49       1.0  0.20193  0.34526  0.08574  1.0000
  H   H50       1.0  0.48207  0.29306  0.25546  1.0000
  C   C34       1.0  0.02802  0.20415  0.00691  1.0000
  H   H51       1.0  0.45113  0.26026  0.25147  1.0000
  C   C35       1.0  0.04832  0.41718  0.26946  1.0000
  C   C36       1.0  0.10312  0.40016  0.23489  1.0000
  H   H52       1.0  0.19031  0.06770  0.21366  1.0000
  H   H53       1.0  0.02173  0.26527  0.29335  1.0000
  H   H54       1.0  0.50639  0.32775  0.01679  1.0000
  H   H55       1.0  0.17586  0.33400  0.05972  1.0000
  H   H56       1.0  0.11847  0.41434  0.21997  1.0000
  H   H57       1.0  0.44808  0.28265  0.15325  1.0000
  C   C37       1.0  0.45886  0.14002  0.05273  1.0000
  H   H58       1.0  0.08382  0.03052  0.15274  1.0000
  H   H59       1.0  0.23683  0.15302  0.15853  1.0000
  S   S18       1.0  0.20028  0.32554  0.00404  1.0000
  H   H60       1.0  0.14366  0.06762  0.16307  1.0000
  H   H61       1.0  0.16938  0.10397  0.31123  1.0000
  H   H62       1.0  0.00983  0.01460  0.32890  1.0000
  H   H63       1.0  0.48968  0.24422  0.15151  1.0000
  H   H64       1.0  0.18540  0.03868  0.30249  1.0000
  C   C38       1.0  0.49316  0.45697  0.27318  1.0000
  H   H65       1.0  0.02526  0.43124  0.30710  1.0000
  H   H66       1.0  0.47098  0.01174  0.27314  1.0000
  C   C39       1.0  0.49504  0.34463  0.05715  1.0000
  C   C40       1.0  0.49160  0.23944  0.17378  1.0000
  H   H67       1.0  0.16322  0.35668  0.09054  1.0000
  H   H68       1.0  0.44675  0.32238  0.22198  1.0000
  H   H69       1.0  0.20672  0.98404  0.13841  1.0000
  C   C41       1.0  0.43990  0.14913  0.02745  1.0000
  H   H70       1.0  0.03841  0.18151  0.01990  1.0000
  H   H71       1.0  0.18833  0.02011  0.11707  1.0000
  H   H72       1.0  0.47496  0.16497  0.05665  1.0000
  N   N2        1.0  0.20643  0.07411  0.17244  1.0000
  C   C42       1.0  0.23276  0.09654  0.18383  1.0000
  H   H73       1.0  0.01528  0.39986  0.00211  1.0000
  C   C43       1.0  0.18407  0.10643  0.16462  1.0000
  C   C44       1.0  0.21606  0.04895  0.14820  1.0000
  C   C45       1.0  0.24968  0.12523  0.16418  1.0000
  S   S19       1.0  0.12312  0.98258  0.18803  1.0000
  C   C46       1.0  0.15563  0.09110  0.15106  1.0000
  H   H74       1.0  0.23770  0.03408  0.15230  1.0000
  H   H75       1.0  0.24512  0.40661  0.04641  1.0000
  C   C47       1.0  0.48729  0.99780  0.25997  1.0000
  C   C48       1.0  0.28983  0.33004  0.00890  1.0000
  C   C49       1.0  0.19414  0.04823  0.19533  1.0000
  H   H76       1.0  0.17758  0.12493  0.18283  1.0000
  H   H77       1.0  0.19347  0.12877  0.14987  1.0000
  H   H78       1.0  0.22002  0.06958  0.13045  1.0000
  C   C50       1.0  0.04275  0.24166  0.00119  1.0000
  H   H79       1.0  0.06110  0.01698  0.01310  1.0000
  S   S20       1.0  0.09899  0.98524  0.31267  1.0000
  C   C51       1.0  0.18101  0.43520  0.10599  1.0000
  C   C52       1.0  0.23073  0.42070  0.08913  1.0000
  H   H80       1.0  0.49018  0.02799  0.03053  1.0000
  H   H81       1.0  0.23402  0.02031  0.21349  1.0000
  H   H82       1.0  0.21732  0.98915  0.18730  1.0000
  H   H83       1.0  0.15984  0.07944  0.13024  1.0000
  H   H84       1.0  0.14037  0.11770  0.14883  1.0000
  H   H85       1.0  0.15758  0.43908  0.10046  1.0000
  H   H86       1.0  0.22619  0.11586  0.20156  1.0000
  C   C53       1.0  0.47207  0.33406  0.17261  1.0000
  N   N3        1.0  0.04756  0.39172  0.24377  1.0000
  C   C54       1.0  0.05204  0.34705  0.25150  1.0000
  C   C55       1.0  0.50022  0.00709  0.01608  1.0000
  H   H87       1.0  0.07151  0.32388  0.21296  1.0000
  H   H88       1.0  0.06985  0.02079  0.10436  1.0000
  H   H89       1.0  0.50609  0.21237  0.17717  1.0000
  N   N4        1.0  0.48496  0.31149  0.19671  1.0000
  H   H90       1.0  0.03380  0.33617  0.26469  1.0000
  H   H91       1.0  0.07322  0.06681  0.00281  1.0000
  C   C56       1.0  0.50276  0.34234  0.21273  1.0000
  H   H92       1.0  0.49389  0.37661  0.04899  1.0000
  C   C57       1.0  0.01858  0.39590  0.22939  1.0000
  C   C58       1.0  0.09337  0.00556  0.14106  1.0000
  H   H93       1.0  0.44425  0.13862  0.07085  1.0000
  H   H94       1.0  0.01536  0.38213  0.29336  1.0000
  H   H95       1.0  0.00957  0.02852  0.27783  1.0000
  H   H96       1.0  0.43949  0.33244  0.14037  1.0000
  H   H97       1.0  0.24261  0.44871  0.09625  1.0000
  H   H98       1.0  0.47224  0.33315  0.05965  1.0000
  H   H99       1.0  0.48492  0.24571  0.23574  1.0000
  H   H100      1.0  0.20894  0.45323  0.02423  1.0000
  C   C59       1.0  0.49010  0.01154  0.23313  1.0000
  H   H101      1.0  0.42842  0.17902  0.03132  1.0000
  H   H102      1.0  0.06951  0.39228  0.20443  1.0000
  H   H103      1.0  0.23106  0.04622  0.31927  1.0000
  H   H104      1.0  0.17215  0.03604  0.19072  1.0000
  H   H105      1.0  0.01593  0.42253  0.04598  1.0000
  H   H106      1.0  0.25755  0.10893  0.14574  1.0000
  H   H107      1.0  0.01855  0.37723  0.21043  1.0000
  C   C60       1.0  0.05408  0.31597  0.22780  1.0000
  H   H108      1.0  0.49970  0.12556  0.23693  1.0000
  H   H109      1.0  0.27352  0.40848  0.07077  1.0000
  H   H110      1.0  0.42238  0.12523  0.02741  1.0000
  H   H111      1.0  0.48880  0.33773  0.15623  1.0000
  H   H112      1.0  0.15448  0.02481  0.32237  1.0000
  H   H113      1.0  0.02731  0.98653  0.20590  1.0000
  C   C61       1.0  0.19887  0.47304  0.06643  1.0000
  H   H114      1.0  0.20324  0.45032  0.30124  1.0000
  H   H115      1.0  0.47513  0.20690  0.01583  1.0000
  C   C62       1.0  0.29681  0.37024  0.00061  1.0000
  C   C63       1.0  0.18863  0.47049  0.12582  1.0000
  H   H116      1.0  0.17601  0.46606  0.14499  1.0000
  H   H117      1.0  0.21224  0.47092  0.13114  1.0000
  H   H118      1.0  0.44879  0.08374  0.99785  1.0000
  S   S21       1.0  0.33364  0.38899  0.99984  1.0000
  C   C64       1.0  0.21573  0.47653  0.03937  1.0000
  H   H119      1.0  0.16888  0.47868  0.30088  1.0000
  S   S22       1.0  0.38178  0.28520  0.00252  1.0000
  Fe  Fe11      1.0  0.37776  0.35431  0.00031  1.0000
  H   H120      1.0  0.49927  0.13618  0.18819  1.0000
  N   N5        1.0  0.45595  0.15028  0.00051  1.0000
  S   S23       1.0  0.10432  0.47920  0.29926  1.0000
  H   H121      1.0  0.23980  0.47536  0.04257  1.0000
  C   C65       1.0  0.19099  0.47606  0.29163  1.0000
  C   C66       1.0  0.18482  0.11067  0.32802  1.0000
  C   C67       1.0  0.50539  0.27742  0.18761  1.0000
  H   H122      1.0  0.01218  0.02060  0.04782  1.0000
  S   S24       1.0  0.10113  0.47996  0.17401  1.0000
  Fe  Fe12      1.0  0.43864  0.35368  0.48407  1.0000
  S   S25       1.0  0.48270  0.38528  0.47344  1.0000
  Fe  Fe13      1.0  0.37145  0.35054  0.49188  1.0000
  S   S26       1.0  0.32930  0.38976  0.49100  1.0000
  Fe  Fe14      1.0  0.40242  0.28257  0.45914  1.0000
  S   S27       1.0  0.39309  0.23173  0.42833  1.0000
  S   S28       1.0  0.40071  0.35153  0.45458  1.0000
  Fe  Fe15      1.0  0.10768  0.42794  0.46034  1.0000
  S   S29       1.0  0.11389  0.35840  0.46063  1.0000
  H   H123      1.0  0.48725  0.08216  0.48990  1.0000
  Fe  Fe16      1.0  0.08310  0.35772  0.49695  1.0000
  S   S30       1.0  0.04268  0.31898  0.50944  1.0000
  S   S31       1.0  0.14556  0.44000  0.48848  1.0000
  S   S32       1.0  0.07467  0.42637  0.49444  1.0000
  C   C68       1.0  0.29174  0.37421  0.49247  1.0000
  C   C69       1.0  0.26969  0.40289  0.48555  1.0000
  C   C70       1.0  0.23968  0.39183  0.48602  1.0000
  H   H124      1.0  0.27590  0.43385  0.47957  1.0000
  H   H125      1.0  0.22310  0.41411  0.48028  1.0000
  H   H126      1.0  0.49609  0.05966  0.54151  1.0000
  C   C71       1.0  0.10820  0.44303  0.34959  1.0000
  C   C72       1.0  0.10706  0.44193  0.37823  1.0000
  C   C73       1.0  0.10494  0.44789  0.60265  1.0000
  C   C74       1.0  0.21893  0.39476  0.56011  1.0000
  H   H127      1.0  0.28639  0.05355  0.66028  1.0000
  C   C75       1.0  0.18565  0.45388  0.56093  1.0000
  H   H128      1.0  0.11034  0.41309  0.38894  1.0000
  H   H129      1.0  0.02673  0.01185  0.44972  1.0000
  H   H130      1.0  0.17378  0.34896  0.58128  1.0000
  H   H131      1.0  0.20188  0.37813  0.54822  1.0000
  C   C76       1.0  0.02866  0.09767  0.50805  1.0000
  C   C77       1.0  0.39671  0.19166  0.37931  1.0000
  C   C78       1.0  0.40387  0.22771  0.39376  1.0000
  C   C79       1.0  0.41867  0.25953  0.38029  1.0000
  C   C80       1.0  0.42679  0.25483  0.35277  1.0000
  H   H132      1.0  0.45943  0.45880  0.50187  1.0000
  H   H133      1.0  0.38508  0.16695  0.38950  1.0000
  H   H134      1.0  0.42361  0.28777  0.39104  1.0000
  H   H135      1.0  0.25080  0.09490  0.34674  1.0000
  H   H136      1.0  0.07350  0.01559  0.60821  1.0000
  H   H137      1.0  0.19108  0.09371  0.36959  1.0000
  H   H138      1.0  0.50588  0.34266  0.56231  1.0000
  H   H139      1.0  0.23552  0.07520  0.37814  1.0000
  C   C81       1.0  0.50277  0.98689  0.46994  1.0000
  C   C82       1.0  0.08023  0.08121  0.51422  1.0000
  H   H140      1.0  0.10626  0.05159  0.40276  1.0000
  C   C83       1.0  0.02491  0.27232  0.49894  1.0000
  C   C84       1.0  0.22939  0.45216  0.59112  1.0000
  H   H141      1.0  0.05156  0.26132  0.46352  1.0000
  S   S33       1.0  0.44201  0.28389  0.48604  1.0000
  S   S34       1.0  0.37111  0.28161  0.49450  1.0000
  Fe  Fe17      1.0  0.41070  0.28736  0.52147  1.0000
  S   S35       1.0  0.41435  0.23597  0.55339  1.0000
  S   S36       1.0  0.40947  0.35732  0.52144  1.0000
  Fe  Fe18      1.0  0.11275  0.43441  0.52253  1.0000
  S   S37       1.0  0.11957  0.36615  0.52750  1.0000
  H   H142      1.0  0.49972  0.11543  0.45239  1.0000
  Fe  Fe19      1.0  0.15009  0.37111  0.49130  1.0000
  S   S38       1.0  0.19386  0.33564  0.49408  1.0000
  C   C85       1.0  0.23128  0.35186  0.49357  1.0000
  C   C86       1.0  0.25330  0.32328  0.50071  1.0000
  C   C87       1.0  0.28330  0.33435  0.50027  1.0000
  H   H143      1.0  0.24711  0.29234  0.50675  1.0000
  H   H144      1.0  0.29987  0.31213  0.50612  1.0000
  C   C88       1.0  0.20674  0.11658  0.66241  1.0000
  H   H145      1.0  0.05799  0.00414  0.52918  1.0000
  H   H146      1.0  0.24203  0.02505  0.65015  1.0000
  C   C89       1.0  0.48784  0.10245  0.50811  1.0000
  H   H147      1.0  0.47369  0.30620  0.37865  1.0000
  H   H148      1.0  0.49857  0.23238  0.34747  1.0000
  H   H149      1.0  0.34294  0.37600  0.43091  1.0000
  S   S39       1.0  0.09789  0.47825  0.42886  1.0000
  C   C90       1.0  0.43955  0.12961  0.49616  1.0000
  H   H150      1.0  0.42851  0.11519  0.51404  1.0000
  C   C91       1.0  0.42930  0.22640  0.64603  1.0000
  C   C92       1.0  0.41846  0.19293  0.63122  1.0000
  C   C93       1.0  0.41389  0.19665  0.60297  1.0000
  C   C94       1.0  0.41952  0.23403  0.58923  1.0000
  C   C95       1.0  0.43013  0.26764  0.60408  1.0000
  C   C96       1.0  0.43524  0.26366  0.63226  1.0000
  C   C97       1.0  0.48551  0.14332  0.45225  1.0000
  H   H151      1.0  0.40579  0.17039  0.59169  1.0000
  H   H152      1.0  0.43473  0.29649  0.59384  1.0000
  H   H153      1.0  0.44374  0.28972  0.64347  1.0000
  H   H154      1.0  0.48866  0.29825  0.33423  1.0000
  H   H155      1.0  0.24082  0.43366  0.60699  1.0000
  H   H156      1.0  0.17475  0.43233  0.61189  1.0000
  C   C98       1.0  0.42000  0.21852  0.33840  1.0000
  H   H157      1.0  0.21926  0.02013  0.40032  1.0000
  C   C99       1.0  0.02239  0.03138  0.46786  1.0000
  H   H158      1.0  0.23327  0.40936  0.54445  1.0000
  H   H159      1.0  0.08112  0.09561  0.53472  1.0000
  C   C100      1.0  0.10563  0.02281  0.39160  1.0000
  H   H160      1.0  0.18601  0.99825  0.41252  1.0000
  C   C101      1.0  0.49972  0.17472  0.54250  1.0000
  H   H161      1.0  0.18376  0.10816  0.65722  1.0000
  C   C102      1.0  0.10165  0.00624  0.64290  1.0000
  H   H162      1.0  0.47876  0.38000  0.36348  1.0000
  H   H163      1.0  0.25758  0.37659  0.58426  1.0000
  H   H164      1.0  0.46568  0.09239  0.54812  1.0000
  H   H165      1.0  0.06452  0.05978  0.46688  1.0000
  H   H166      1.0  0.10139  0.05270  0.35240  1.0000
  C   C103      1.0  0.49713  0.43570  0.48025  1.0000
  C   C104      1.0  0.10658  0.05113  0.51281  1.0000
  C   C105      1.0  0.01784  0.21447  0.46784  1.0000
  H   H167      1.0  0.49029  0.31821  0.53344  1.0000
  H   H168      1.0  0.46182  0.05073  0.52424  1.0000
  H   H169      1.0  0.32835  0.36212  0.39873  1.0000
  H   H170      1.0  0.18593  0.05138  0.40396  1.0000
  C   C106      1.0  0.18705  0.40806  0.60051  1.0000
  H   H171      1.0  0.00966  0.99420  0.36329  1.0000
  H   H172      1.0  0.15744  0.07709  0.35621  1.0000
  H   H173      1.0  0.35333  0.28757  0.38407  1.0000
  C   C107      1.0  0.19512  0.02107  0.39782  1.0000
  N   N6        1.0  0.20529  0.42718  0.57814  1.0000
  H   H174      1.0  0.15220  0.36450  0.60982  1.0000
  H   H175      1.0  0.23840  0.06911  0.62960  1.0000
  N   N7        1.0  0.47060  0.14146  0.50310  1.0000
  N   N8        1.0  0.19375  0.03676  0.34590  1.0000
  H   H176      1.0  0.00968  0.41937  0.53572  1.0000
  H   H177      1.0  0.39927  0.15900  0.34097  1.0000
  N   N9        1.0  0.30141  0.28675  0.41820  1.0000
  C   C108      1.0  0.30581  0.24374  0.42946  1.0000
  C   C109      1.0  0.30488  0.28429  0.38771  1.0000
  C   C110      1.0  0.27066  0.30085  0.42563  1.0000
  C   C111      1.0  0.32416  0.31449  0.43081  1.0000
  C   C112      1.0  0.29907  0.23800  0.46005  1.0000
  H   H178      1.0  0.09120  0.02999  0.65501  1.0000
  C   C113      1.0  0.25508  0.33104  0.40606  1.0000
  C   C114      1.0  0.32457  0.35955  0.42090  1.0000
  H   H179      1.0  0.29199  0.22108  0.41825  1.0000
  H   H180      1.0  0.32891  0.23331  0.42667  1.0000
  H   H181      1.0  0.30153  0.31481  0.37794  1.0000
  H   H182      1.0  0.28764  0.26383  0.37904  1.0000
  H   H183      1.0  0.25540  0.27404  0.42712  1.0000
  H   H184      1.0  0.27038  0.31533  0.44610  1.0000
  H   H185      1.0  0.32117  0.31617  0.45318  1.0000
  H   H186      1.0  0.34657  0.30154  0.42781  1.0000
  H   H187      1.0  0.27610  0.24586  0.46550  1.0000
  H   H188      1.0  0.30242  0.20500  0.46547  1.0000
  H   H189      1.0  0.31422  0.25595  0.47294  1.0000
  C   C115      1.0  0.22647  0.03707  0.34073  1.0000
  H   H190      1.0  0.43808  0.27960  0.34239  1.0000
  H   H191      1.0  0.22558  0.34434  0.58993  1.0000
  H   H192      1.0  0.24819  0.31494  0.38721  1.0000
  H   H193      1.0  0.26847  0.35819  0.40053  1.0000
  H   H194      1.0  0.23477  0.34276  0.41606  1.0000
  H   H195      1.0  0.16842  0.43486  0.55105  1.0000
  H   H196      1.0  0.01985  0.10226  0.55222  1.0000
  H   H197      1.0  0.30433  0.37613  0.42705  1.0000
  H   H198      1.0  0.50686  0.30488  0.49131  1.0000
  H   H199      1.0  0.09821  0.41907  0.64176  1.0000
  C   C116      1.0  0.23810  0.36234  0.57466  1.0000
  H   H200      1.0  0.49516  0.16474  0.43701  1.0000
  C   C117      1.0  0.22739  0.05176  0.64635  1.0000
  H   H201      1.0  0.17926  0.14210  0.33552  1.0000
  H   H202      1.0  0.49695  0.19803  0.55890  1.0000
  C   C118      1.0  0.10296  0.02355  0.36306  1.0000
  H   H203      1.0  0.20226  0.45785  0.51900  1.0000
  H   H204      1.0  0.49730  0.31446  0.40622  1.0000
  H   H205      1.0  0.09930  0.42049  0.59125  1.0000
  C   C119      1.0  0.05178  0.04096  0.48183  1.0000
  H   H206      1.0  0.21636  0.13046  0.64364  1.0000
  H   H207      1.0  0.46330  0.13519  0.44492  1.0000
  C   C120      1.0  0.03329  0.25044  0.47564  1.0000
  C   C121      1.0  0.41954  0.16535  0.48680  1.0000
  H   H208      1.0  0.10466  0.02564  0.52775  1.0000
  C   C122      1.0  0.49366  0.32349  0.38466  1.0000
  C   C123      1.0  0.47011  0.16906  0.52784  1.0000
  H   H209      1.0  0.01161  0.06001  0.46035  1.0000
  H   H210      1.0  0.46238  0.20061  0.52236  1.0000
  C   C124      1.0  0.40461  0.18711  0.35175  1.0000
  C   C125      1.0  0.50538  0.23413  0.36904  1.0000
  H   H211      1.0  0.08477  0.10662  0.49946  1.0000
  H   H212      1.0  0.20392  0.01279  0.61769  1.0000
  C   C126      1.0  0.12487  0.98335  0.65376  1.0000
  H   H213      1.0  0.45385  0.15831  0.54325  1.0000
  C   C127      1.0  0.16394  0.37616  0.59153  1.0000
  C   C128      1.0  0.19864  0.03360  0.63498  1.0000
  H   H214      1.0  0.47426  0.19571  0.47730  1.0000
  H   H215      1.0  0.18368  0.05771  0.62700  1.0000
  N   N10       1.0  0.05040  0.06250  0.50905  1.0000
  C   C129      1.0  0.18596  0.00803  0.36902  1.0000
  H   H216      1.0  0.48574  0.23821  0.38216  1.0000
  H   H217      1.0  0.10978  0.03822  0.49215  1.0000
  H   H218      1.0  0.01052  0.39168  0.49137  1.0000
  H   H219      1.0  0.20120  0.39277  0.61595  1.0000
  H   H220      1.0  0.41789  0.19012  0.50224  1.0000
  H   H221      1.0  0.24643  0.33995  0.55934  1.0000
  H   H222      1.0  0.16184  0.00290  0.36970  1.0000
  C   C130      1.0  0.18135  0.07922  0.35140  1.0000
  C   C131      1.0  0.04409  0.03213  0.53164  1.0000
  H   H223      1.0  0.26654  0.05138  0.36279  1.0000
  C   C132      1.0  0.10418  0.44725  0.63128  1.0000
  H   H224      1.0  0.12694  0.06825  0.51784  1.0000
  C   C133      1.0  0.10107  0.47798  0.39287  1.0000
  C   C134      1.0  0.01240  0.01590  0.53475  1.0000
  H   H225      1.0  0.41395  0.16402  0.64144  1.0000
  C   C135      1.0  0.47697  0.07500  0.53180  1.0000
  H   H226      1.0  0.33860  0.23551  0.38254  1.0000
  H   H227      1.0  0.06382  0.01110  0.48348  1.0000
  C   C136      1.0  0.48490  0.16503  0.48017  1.0000
  H   H228      1.0  0.18699  0.01462  0.65033  1.0000
  H   H229      1.0  0.05095  0.04443  0.55179  1.0000
  C   C137      1.0  0.48508  0.36963  0.38412  1.0000
  C   C138      1.0  0.24516  0.06651  0.35836  1.0000
  H   H230      1.0  0.42683  0.17867  0.46716  1.0000
  H   H231      1.0  0.39699  0.15338  0.48359  1.0000
  H   H232      1.0  0.11243  0.41482  0.33846  1.0000
  C   C139      1.0  0.33474  0.26831  0.37710  1.0000
  H   H233      1.0  0.14711  0.39025  0.57832  1.0000
  H   H234      1.0  0.43913  0.10533  0.48015  1.0000
  C   C140      1.0  0.09168  0.99801  0.61633  1.0000
  C   C141      1.0  0.02497  0.12240  0.53462  1.0000
  H   H235      1.0  0.03482  0.11994  0.49168  1.0000
  C   C142      1.0  0.48131  0.46577  0.49458  1.0000
  H   H236      1.0  0.01814  0.41889  0.44678  1.0000
  H   H237      1.0  0.00976  0.98625  0.52387  1.0000
  C   C143      1.0  0.10746  0.98513  0.40582  1.0000
  H   H238      1.0  0.02456  0.19798  0.44974  1.0000
  H   H239      1.0  0.49811  0.99883  0.44987  1.0000
  C   C144      1.0  0.20075  0.47748  0.53745  1.0000
  H   H240      1.0  0.46566  0.37431  0.39755  1.0000
  H   H241      1.0  0.23575  0.00540  0.34290  1.0000
  H   H242      1.0  0.50807  0.17216  0.48514  1.0000
  C   C145      1.0  0.10214  0.98649  0.34851  1.0000
  H   H243      1.0  0.50270  0.38977  0.39211  1.0000
  H   H244      1.0  0.33489  0.26970  0.35453  1.0000
  H   H245      1.0  0.04452  0.14161  0.53896  1.0000
  S   S40       1.0  0.11161  0.98597  0.44160  1.0000
  H   H246      1.0  0.03265  0.45875  0.59916  1.0000
  H   H247      1.0  0.24699  0.45994  0.57624  1.0000
  H   H248      1.0  0.50714  0.14576  0.55242  1.0000
  H   H249      1.0  0.21618  0.47738  0.34093  1.0000
  C   C146      1.0  0.10360  0.48014  0.33531  1.0000
  H   H250      1.0  0.17279  0.47619  0.57341  1.0000
  H   H251      1.0  0.50554  0.34720  0.33187  1.0000
  H   H252      1.0  0.02504  0.46672  0.64732  1.0000
  H   H253      1.0  0.50117  0.22081  0.66301  1.0000
  Fe  Fe20      1.0  0.44767  0.10504  0.75037  1.0000
  S   S41       1.0  0.45680  0.17310  0.74744  1.0000
  S   S42       1.0  0.48996  0.06834  0.75975  1.0000
  Fe  Fe21      1.0  0.38106  0.12170  0.74642  1.0000
  S   S43       1.0  0.38654  0.19083  0.74336  1.0000
  S   S44       1.0  0.33745  0.08570  0.74614  1.0000
  Fe  Fe22      1.0  0.42338  0.17640  0.71410  1.0000
  H   H254      1.0  0.47615  0.06601  0.96056  1.0000
  Fe  Fe23      1.0  0.41978  0.18329  0.77683  1.0000
  S   S45       1.0  0.42972  0.23468  0.80737  1.0000
  S   S46       1.0  0.41638  0.10732  0.71484  1.0000
  S   S47       1.0  0.41228  0.11506  0.78204  1.0000
  Fe  Fe24      1.0  0.09319  0.11525  0.74365  1.0000
  S   S48       1.0  0.08584  0.04620  0.74347  1.0000
  S   S49       1.0  0.05297  0.15434  0.73079  1.0000
  Fe  Fe25      1.0  0.15931  0.10329  0.75539  1.0000
  S   S50       1.0  0.15572  0.03420  0.75635  1.0000
  S   S51       1.0  0.20237  0.13988  0.75924  1.0000
  Fe  Fe26      1.0  0.12737  0.04071  0.71916  1.0000
  C   C147      1.0  0.02620  0.41951  0.79513  1.0000
  Fe  Fe27      1.0  0.11441  0.04394  0.78073  1.0000
  H   H255      1.0  0.23462  0.01744  0.71930  1.0000
  S   S52       1.0  0.13335  0.10954  0.71653  1.0000
  S   S53       1.0  0.11935  0.11341  0.78259  1.0000
  C   C148      1.0  0.05774  0.06446  0.90455  1.0000
  H   H256      1.0  0.32767  0.31722  0.96038  1.0000
  H   H257      1.0  0.06003  0.20989  0.77806  1.0000
  H   H258      1.0  0.29823  0.07564  0.69148  1.0000
  Fe  Fe28      1.0  0.41203  0.29205  0.96646  1.0000
  S   S54       1.0  0.40634  0.24029  0.93535  1.0000
  S   S55       1.0  0.40654  0.36089  0.96285  1.0000
  Fe  Fe29      1.0  0.12788  0.41885  0.95369  1.0000
  S   S56       1.0  0.13056  0.34946  0.95666  1.0000
  H   H259      1.0  0.11657  0.43984  0.77847  1.0000
  H   H260      1.0  0.02844  0.00994  0.97449  1.0000
  C   C149      1.0  0.05614  0.42789  0.78157  1.0000
  H   H261      1.0  0.45589  0.37899  0.77883  1.0000
  S   S57       1.0  0.48914  0.40130  0.98901  1.0000
  C   C150      1.0  0.04221  0.22143  0.76571  1.0000
  H   H262      1.0  0.02410  0.43923  0.81351  1.0000
  H   H263      1.0  0.07344  0.10855  0.96421  1.0000
  H   H264      1.0  0.07580  0.08722  0.90216  1.0000
  H   H265      1.0  0.02286  0.05143  0.79667  1.0000
  H   H266      1.0  0.03034  0.46768  0.73981  1.0000
  C   C151      1.0  0.12598  0.47303  0.88636  1.0000
  H   H267      1.0  0.50647  0.37284  0.77938  1.0000
  H   H268      1.0  0.44271  0.12100  0.84019  1.0000
  C   C152      1.0  0.08446  0.47756  0.85548  1.0000
  H   H269      1.0  0.41324  0.10757  0.96844  1.0000
  H   H270      1.0  0.06185  0.03865  0.89012  1.0000
  H   H271      1.0  0.12584  0.38848  0.76622  1.0000
  H   H272      1.0  0.49561  0.30633  0.67090  1.0000
  H   H273      1.0  0.09484  0.40351  0.72379  1.0000
  C   C153      1.0  0.42225  0.23602  0.84281  1.0000
  C   C154      1.0  0.42995  0.27144  0.85772  1.0000
  C   C155      1.0  0.42515  0.27348  0.88603  1.0000
  C   C156      1.0  0.41286  0.23982  0.89976  1.0000
  C   C157      1.0  0.40527  0.20434  0.88486  1.0000
  C   C158      1.0  0.40973  0.20251  0.85652  1.0000
  H   H274      1.0  0.43970  0.29752  0.84732  1.0000
  H   H275      1.0  0.43112  0.30096  0.89721  1.0000
  H   H276      1.0  0.39562  0.17819  0.89526  1.0000
  H   H277      1.0  0.40348  0.17521  0.84530  1.0000
  C   C159      1.0  0.30023  0.10181  0.75102  1.0000
  C   C160      1.0  0.29181  0.14343  0.75103  1.0000
  C   C161      1.0  0.26188  0.15445  0.75385  1.0000
  C   C162      1.0  0.23991  0.12415  0.75675  1.0000
  C   C163      1.0  0.24838  0.08258  0.75718  1.0000
  C   C164      1.0  0.27825  0.07153  0.75410  1.0000
  H   H278      1.0  0.30832  0.16715  0.74864  1.0000
  H   H279      1.0  0.25571  0.18674  0.75365  1.0000
  H   H280      1.0  0.23190  0.05897  0.76005  1.0000
  H   H281      1.0  0.28443  0.03925  0.75429  1.0000
  C   C165      1.0  0.32677  0.29273  0.94455  1.0000
  H   H282      1.0  0.01896  0.15579  0.94419  1.0000
  H   H283      1.0  0.05234  0.01334  0.93250  1.0000
  S   S58       1.0  0.04647  0.32041  0.97732  1.0000
  H   H284      1.0  0.31476  0.22641  0.94496  1.0000
  H   H285      1.0  0.48140  0.08851  0.70107  1.0000
  H   H286      1.0  0.26585  0.28924  0.93519  1.0000
  H   H287      1.0  0.29338  0.25834  0.96801  1.0000
  C   C166      1.0  0.50350  0.31956  0.75182  1.0000
  H   H288      1.0  0.12869  0.04966  0.85027  1.0000
  N   N11       1.0  0.03701  0.06827  0.95402  1.0000
  S   S59       1.0  0.09915  0.99511  0.81137  1.0000
  H   H289      1.0  0.42990  0.40060  0.75524  1.0000
  H   H290      1.0  0.18360  0.05569  0.68908  1.0000
  H   H291      1.0  0.29201  0.24849  0.90605  1.0000
  C   C167      1.0  0.03468  0.20057  0.74183  1.0000
  C   C168      1.0  0.25939  0.34244  0.91002  1.0000
  H   H292      1.0  0.04497  0.38068  0.71944  1.0000
  H   H293      1.0  0.04056  0.11939  0.98233  1.0000
  H   H294      1.0  0.42676  0.19781  0.98564  1.0000
  H   H295      1.0  0.47154  0.00467  0.72038  1.0000
  H   H296      1.0  0.35012  0.28753  0.93875  1.0000
  C   C169      1.0  0.21806  0.01502  0.70295  1.0000
  H   H297      1.0  0.04903  0.34414  0.77567  1.0000
  C   C170      1.0  0.27841  0.31775  0.93017  1.0000
  H   H298      1.0  0.50399  0.10417  0.96633  1.0000
  H   H299      1.0  0.46984  0.11691  0.94951  1.0000
  C   C171      1.0  0.04914  0.10999  0.96199  1.0000
  C   C172      1.0  0.33590  0.25382  0.89004  1.0000
  H   H300      1.0  0.50075  0.17417  0.96180  1.0000
  Fe  Fe30      1.0  0.09072  0.35371  0.98431  1.0000
  H   H301      1.0  0.33131  0.23101  0.87375  1.0000
  H   H302      1.0  0.20896  0.99858  0.95575  1.0000
  H   H303      1.0  0.08512  0.35807  0.78466  1.0000
  C   C173      1.0  0.04248  0.14681  0.94306  1.0000
  H   H304      1.0  0.45742  0.26915  0.75719  1.0000
  H   H305      1.0  0.44947  0.31360  0.77605  1.0000
  C   C174      1.0  0.50736  0.33860  0.78023  1.0000
  H   H306      1.0  0.06196  0.46992  0.85075  1.0000
  H   H307      1.0  0.49178  0.16459  0.88657  1.0000
  H   H308      1.0  0.05675  0.46116  0.77618  1.0000
  C   C175      1.0  0.20742  0.05813  0.69380  1.0000
  H   H309      1.0  0.47171  0.09207  0.82517  1.0000
  H   H310      1.0  0.47932  0.22049  0.96745  1.0000
  H   H311      1.0  0.08007  0.04803  0.94089  1.0000
  C   C176      1.0  0.50340  0.45283  0.99090  1.0000
  H   H312      1.0  0.25226  0.10678  0.70139  1.0000
  C   C177      1.0  0.12150  0.02219  0.86090  1.0000
  H   H313      1.0  0.26799  0.37410  0.90677  1.0000
  H   H314      1.0  0.48682  0.38714  0.72776  1.0000
  H   H315      1.0  0.13655  0.43331  0.74756  1.0000
  C   C178      1.0  0.06490  0.03692  0.99503  1.0000
  H   H316      1.0  0.19273  0.14155  0.70212  1.0000
  H   H317      1.0  0.01941  0.07755  0.75139  1.0000
  H   H318      1.0  0.27879  0.33517  0.94959  1.0000
  C   C179      1.0  0.10694  0.99101  0.84667  1.0000
  C   C180      1.0  0.02972  0.27146  0.98449  1.0000
  C   C181      1.0  0.11869  0.41991  0.76022  1.0000
  S   S60       1.0  0.15699  0.42906  0.98993  1.0000
  H   H319      1.0  0.34716  0.33597  0.90239  1.0000
  C   C182      1.0  0.03576  0.04185  0.97935  1.0000
  H   H320      1.0  0.01920  0.38411  0.74560  1.0000
  C   C183      1.0  0.09699  0.46292  0.87986  1.0000
  C   C184      1.0  0.41972  0.30296  0.74322  1.0000
  H   H321      1.0  0.33044  0.24523  0.97561  1.0000
  C   C185      1.0  0.45109  0.30225  0.75491  1.0000
  H   H322      1.0  0.19840  0.99726  0.86510  1.0000
  C   C186      1.0  0.50518  0.01988  0.74920  1.0000
  H   H323      1.0  0.23695  0.34593  0.91872  1.0000
  C   C187      1.0  0.46639  0.10702  0.99436  1.0000
  H   H324      1.0  0.45093  0.37378  0.71738  1.0000
  C   C188      1.0  0.47990  0.09887  0.96609  1.0000
  H   H325      1.0  0.30829  0.38671  0.94070  1.0000
  H   H326      1.0  0.44498  0.17100  0.95952  1.0000
  H   H327      1.0  0.20758  0.07766  0.71236  1.0000
  S   S61       1.0  0.45163  0.29828  0.99283  1.0000
  H   H328      1.0  0.46432  0.42459  0.76043  1.0000
  H   H329      1.0  0.08422  0.44408  0.89367  1.0000
  N   N12       1.0  0.30903  0.30715  0.92058  1.0000
  C   C189      1.0  0.27381  0.39675  0.99269  1.0000
  H   H330      1.0  0.35156  0.27647  0.88137  1.0000
  C   C190      1.0  0.09021  0.41946  0.74338  1.0000
  H   H331      1.0  0.31405  0.35346  0.88863  1.0000
  C   C191      1.0  0.49944  0.32015  0.69124  1.0000
  H   H332      1.0  0.07291  0.42437  0.79781  1.0000
  N   N13       1.0  0.06368  0.40135  0.75735  1.0000
  C   C192      1.0  0.06948  0.35803  0.76734  1.0000
  H   H333      1.0  0.40423  0.29096  0.75884  1.0000
  C   C193      1.0  0.03887  0.40006  0.73723  1.0000
  H   H334      1.0  0.48510  0.12471  0.67405  1.0000
  C   C194      1.0  0.45350  0.39392  0.75881  1.0000
  H   H335      1.0  0.47245  0.16582  0.81152  1.0000
  H   H336      1.0  0.13721  0.04275  0.89992  1.0000
  H   H337      1.0  0.47307  0.10671  0.86078  1.0000
  H   H338      1.0  0.47907  0.27033  0.71340  1.0000
  C   C195      1.0  0.49189  0.99484  0.72964  1.0000
  C   C196      1.0  0.30673  0.27392  0.89920  1.0000
  H   H339      1.0  0.04342  0.45010  0.70725  1.0000
  C   C197      1.0  0.31535  0.25338  0.95878  1.0000
  H   H340      1.0  0.08566  0.29714  0.75631  1.0000
  H   H341      1.0  0.41239  0.33445  0.73764  1.0000
  H   H342      1.0  0.08602  0.45219  0.73755  1.0000
  H   H343      1.0  0.04888  0.14108  0.92174  1.0000
  H   H344      1.0  0.03698  0.07846  0.89764  1.0000
  C   C198      1.0  0.24429  0.38334  0.99293  1.0000
  H   H345      1.0  0.29626  0.28634  0.88050  1.0000
  H   H346      1.0  0.19094  0.17726  0.67477  1.0000
  H   H347      1.0  0.39438  0.15317  0.95787  1.0000
  H   H348      1.0  0.50377  0.07488  0.67297  1.0000
  H   H349      1.0  0.03255  0.27271  0.79241  1.0000
  H   H350      1.0  0.22697  0.40406  0.98658  1.0000
  C   C199      1.0  0.11691  0.98279  0.90334  1.0000
  H   H351      1.0  0.27345  0.03334  0.69253  1.0000
  H   H352      1.0  0.45445  0.30771  0.69998  1.0000
  H   H353      1.0  0.34740  0.38107  0.93883  1.0000
  N   N14       1.0  0.22408  0.07896  0.67106  1.0000
  C   C200      1.0  0.25383  0.09355  0.68059  1.0000
  C   C201      1.0  0.47557  0.30425  0.71104  1.0000
  Fe  Fe31      1.0  0.44450  0.36739  0.99231  1.0000
  C   C202      1.0  0.32699  0.38247  0.92662  1.0000
  H   H354      1.0  0.41774  0.28219  0.72540  1.0000
  C   C203      1.0  0.46684  0.37013  0.73437  1.0000
  H   H355      1.0  0.32744  0.41078  0.91387  1.0000
  C   C204      1.0  0.08113  0.32706  0.74603  1.0000
  H   H356      1.0  0.49157  0.32633  0.79537  1.0000
  C   C205      1.0  0.05694  0.04711  0.93377  1.0000
  C   C206      1.0  0.12628  0.01815  0.88909  1.0000
  C   C207      1.0  0.02651  0.25719  0.77380  1.0000
  Fe  Fe32      1.0  0.15754  0.36046  0.99444  1.0000
  H   H357      1.0  0.34658  0.23649  0.90673  1.0000
  C   C208      1.0  0.43460  0.16640  0.97969  1.0000
  C   C209      1.0  0.32423  0.34402  0.90822  1.0000
  S   S62       1.0  0.43733  0.22283  0.68133  1.0000
  N   N15       1.0  0.47399  0.32500  0.73851  1.0000
  H   H358      1.0  0.25714  0.32641  0.89025  1.0000
  H   H359      1.0  0.02379  0.38699  0.80183  1.0000
  C   C210      1.0  0.48132  0.15822  0.83194  1.0000
  H   H360      1.0  0.22677  0.99555  0.68639  1.0000
  H   H361      1.0  0.06460  0.32040  0.73015  1.0000
  C   C211      1.0  0.02945  0.44204  0.72505  1.0000
  H   H362      1.0  0.49411  0.22128  0.79399  1.0000
  S   S63       1.0  0.13805  0.99140  0.68730  1.0000
  C   C212      1.0  0.49721  0.10120  0.68603  1.0000
  C   C213      1.0  0.46691  0.11687  0.84009  1.0000
  H   H363      1.0  0.27887  0.42787  0.98616  1.0000
  H   H364      1.0  0.47248  0.18264  0.84562  1.0000
  H   H365      1.0  0.10202  0.33713  0.73657  1.0000
  S   S64       1.0  0.08669  0.42317  0.97881  1.0000
  H   H366      1.0  0.05508  0.17414  0.95010  1.0000
  H   H367      1.0  0.22585  0.16506  0.68896  1.0000
  C   C214      1.0  0.40729  0.13939  0.97473  1.0000
  H   H368      1.0  0.19904  0.99739  0.71107  1.0000
  H   H369      1.0  0.49881  0.35417  0.68868  1.0000
  H   H370      1.0  0.39254  0.13860  0.99269  1.0000
  H   H371      1.0  0.01926  0.05448  0.99402  1.0000
  H   H372      1.0  0.08208  0.02145  0.98266  1.0000
  C   C215      1.0  0.27900  0.06164  0.68112  1.0000
  H   H373      1.0  0.01825  0.40908  0.95506  1.0000
  C   C216      1.0  0.20425  0.15174  0.68349  1.0000
  C   C217      1.0  0.49455  0.19786  0.97687  1.0000
  H   H374      1.0  0.01721  0.47695  0.91943  1.0000
  H   H375      1.0  0.50276  0.19846  0.69543  1.0000
  S   S65       1.0  0.14266  0.45782  0.91738  1.0000
  C   C218      1.0  0.01117  0.21620  0.72629  1.0000
  H   H376      1.0  0.02069  0.04652  0.70755  1.0000
  H   H377      1.0  0.21689  0.98930  0.90920  1.0000
  H   H378      1.0  0.26197  0.11924  0.66747  1.0000
  Fe  Fe33      1.0  0.43363  0.60697  0.24701  1.0000
  S   S66       1.0  0.44079  0.67576  0.25013  1.0000
  S   S67       1.0  0.47640  0.57035  0.23832  1.0000
  Fe  Fe34      1.0  0.36641  0.61928  0.24919  1.0000
  S   S68       1.0  0.36966  0.68845  0.25225  1.0000
  S   S69       1.0  0.32365  0.58144  0.24711  1.0000
  Fe  Fe35      1.0  0.40455  0.68360  0.21986  1.0000
  S   S70       1.0  0.41065  0.73772  0.19046  1.0000
  Fe  Fe36      1.0  0.40587  0.67697  0.28242  1.0000
  S   S71       1.0  0.41297  0.72732  0.31452  1.0000
  S   S72       1.0  0.39915  0.61501  0.21442  1.0000
  S   S73       1.0  0.40082  0.60737  0.28177  1.0000
  Fe  Fe37      1.0  0.07720  0.60311  0.23530  1.0000
  S   S74       1.0  0.07156  0.53391  0.23562  1.0000
  S   S75       1.0  0.03263  0.63583  0.22995  1.0000
  Fe  Fe38      1.0  0.14445  0.59349  0.23822  1.0000
  S   S76       1.0  0.14263  0.52425  0.23783  1.0000
  S   S77       1.0  0.18704  0.63022  0.24443  1.0000
  Fe  Fe39      1.0  0.10836  0.53114  0.20529  1.0000
  H   H379      1.0  0.05035  0.52669  0.09570  1.0000
  Fe  Fe40      1.0  0.10586  0.53136  0.26807  1.0000
  C   C219      1.0  0.04235  0.73845  0.01337  1.0000
  S   S78       1.0  0.11261  0.60049  0.20296  1.0000
  S   S79       1.0  0.10896  0.60073  0.27044  1.0000
  H   H380      1.0  0.49100  0.86980  0.27191  1.0000
  H   H381      1.0  0.03384  0.53152  0.17673  1.0000
  Fe  Fe41      1.0  0.41228  0.78717  0.02904  1.0000
  S   S80       1.0  0.41520  0.73618  0.06101  1.0000
  S   S81       1.0  0.40914  0.85667  0.03006  1.0000
  Fe  Fe42      1.0  0.10597  0.91915  0.03137  1.0000
  S   S82       1.0  0.11270  0.85001  0.03096  1.0000
  H   H382      1.0  0.01147  0.95071  0.28723  1.0000
  H   H383      1.0  0.06945  0.87980  0.16963  1.0000
  H   H384      1.0  0.02436  0.84730  0.15951  1.0000
  H   H385      1.0  0.05948  0.70980  0.25458  1.0000
  C   C220      1.0  0.02930  0.70069  0.02140  1.0000
  C   C221      1.0  0.03414  0.92030  0.13194  1.0000
  C   C222      1.0  0.11614  0.51609  0.09564  1.0000
  C   C223      1.0  0.27060  0.89714  0.00931  1.0000
  H   H386      1.0  0.46168  0.87683  0.20205  1.0000
  H   H387      1.0  0.49623  0.64128  0.01307  1.0000
  C   C224      1.0  0.11777  0.94082  0.11031  1.0000
  H   H388      1.0  0.03118  0.94615  0.11733  1.0000
  H   H389      1.0  0.36940  0.81546  0.07469  1.0000
  C   C225      1.0  0.11408  0.51646  0.12422  1.0000
  H   H390      1.0  0.45391  0.85865  0.27783  1.0000
  H   H391      1.0  0.12715  0.91566  0.09867  1.0000
  H   H392      1.0  0.12374  0.54339  0.08505  1.0000
  H   H393      1.0  0.12012  0.54383  0.13550  1.0000
  C   C226      1.0  0.41098  0.73681  0.15446  1.0000
  C   C227      1.0  0.40690  0.70032  0.13982  1.0000
  C   C228      1.0  0.40779  0.70097  0.11121  1.0000
  C   C229      1.0  0.41284  0.73798  0.09695  1.0000
  C   C230      1.0  0.41657  0.77460  0.11155  1.0000
  C   C231      1.0  0.41565  0.77396  0.14019  1.0000
  H   H394      1.0  0.40314  0.67160  0.15055  1.0000
  H   H395      1.0  0.40458  0.67253  0.10010  1.0000
  H   H396      1.0  0.42054  0.80327  0.10084  1.0000
  H   H397      1.0  0.41876  0.80237  0.15137  1.0000
  C   C232      1.0  0.28603  0.59658  0.24436  1.0000
  C   C233      1.0  0.27651  0.63691  0.24970  1.0000
  C   C234      1.0  0.24624  0.64662  0.24925  1.0000
  C   C235      1.0  0.22503  0.61640  0.24319  1.0000
  C   C236      1.0  0.23458  0.57625  0.23730  1.0000
  C   C237      1.0  0.26482  0.56642  0.23806  1.0000
  H   H398      1.0  0.29242  0.66047  0.25464  1.0000
  H   H399      1.0  0.23919  0.67781  0.25377  1.0000
  H   H400      1.0  0.21870  0.55273  0.23223  1.0000
  H   H401      1.0  0.27189  0.53515  0.23380  1.0000
  C   C238      1.0  0.47937  0.49486  0.26647  1.0000
  H   H402      1.0  0.03803  0.96298  0.16468  1.0000
  H   H403      1.0  0.26168  0.82788  0.05520  1.0000
  H   H404      1.0  0.41313  0.84079  0.25913  1.0000
  C   C239      1.0  0.02537  0.93983  0.30439  1.0000
  C   C240      1.0  0.01953  0.68687  0.23707  1.0000
  C   C241      1.0  0.03704  0.71707  0.24926  1.0000
  H   H405      1.0  0.50409  0.70298  0.28889  1.0000
  C   C242      1.0  0.18429  0.97486  0.31368  1.0000
  H   H406      1.0  0.01145  0.89756  0.22449  1.0000
  C   C243      1.0  0.29290  0.86875  0.00244  1.0000
  H   H407      1.0  0.23002  0.51062  0.28317  1.0000
  C   C244      1.0  0.23260  0.84539  0.00186  1.0000
  H   H408      1.0  0.49686  0.68852  0.22007  1.0000
  H   H409      1.0  0.14063  0.92482  0.14718  1.0000
  H   H410      1.0  0.50345  0.79168  0.23591  1.0000
  H   H411      1.0  0.27322  0.56343  0.33036  1.0000
  H   H412      1.0  0.23786  0.78471  0.05501  1.0000
  H   H413      1.0  0.15248  0.55064  0.29916  1.0000
  H   H414      1.0  0.05773  0.91190  0.13127  1.0000
  C   C245      1.0  0.09768  0.96763  0.09809  1.0000
  H   H415      1.0  0.03546  0.57107  0.05480  1.0000
  C   C246      1.0  0.03695  0.55383  0.15980  1.0000
  C   C247      1.0  0.01308  0.92136  0.20817  1.0000
  H   H416      1.0  0.06515  0.57147  0.11099  1.0000
  C   C248      1.0  0.32602  0.70020  0.07505  1.0000
  C   C249      1.0  0.25764  0.79762  0.06508  1.0000
  C   C250      1.0  0.48662  0.96870  0.01072  1.0000
  S   S83       1.0  0.37505  0.77913  0.99973  1.0000
  H   H417      1.0  0.02076  0.89416  0.12451  1.0000
  H   H418      1.0  0.43480  0.65259  0.03941  1.0000
  C   C251      1.0  0.50064  0.81660  0.19597  1.0000
  H   H419      1.0  0.21094  0.50716  0.03017  1.0000
  H   H420      1.0  0.45170  0.68377  0.01327  1.0000
  H   H421      1.0  0.32475  0.81850  0.04354  1.0000
  H   H422      1.0  0.07365  0.56905  0.06186  1.0000
  H   H423      1.0  0.22392  0.90753  0.01499  1.0000
  H   H424      1.0  0.03756  0.49694  0.00755  1.0000
  H   H425      1.0  0.50614  0.79990  0.28179  1.0000
  H   H426      1.0  0.01981  0.50968  0.13182  1.0000
  H   H427      1.0  0.39855  0.80337  0.23658  1.0000
  C   C252      1.0  0.49690  0.70219  0.04991  1.0000
  H   H428      1.0  0.34604  0.68074  0.07297  1.0000
  C   C253      1.0  0.20827  0.51699  0.29264  1.0000
  C   C254      1.0  0.44575  0.80963  0.23122  1.0000
  C   C255      1.0  0.24069  0.88557  0.00910  1.0000
  H   H429      1.0  0.01194  0.64320  0.07875  1.0000
  C   C256      1.0  0.46509  0.88078  0.22426  1.0000
  H   H430      1.0  0.05993  0.92456  0.27557  1.0000
  H   H431      1.0  0.29464  0.80800  0.11197  1.0000
  H   H432      1.0  0.46984  0.58244  0.07358  1.0000
  N   N16       1.0  0.47006  0.83960  0.23792  1.0000
  C   C257      1.0  0.49157  0.52076  0.24663  1.0000
  H   H433      1.0  0.44174  0.63171  0.00636  1.0000
  H   H434      1.0  0.01259  0.84232  0.19365  1.0000
  H   H435      1.0  0.28902  0.75367  0.11142  1.0000
  C   C258      1.0  0.01495  0.85030  0.05640  1.0000
  H   H436      1.0  0.30962  0.68770  0.06063  1.0000
  H   H437      1.0  0.45404  0.77724  0.23257  1.0000
  H   H438      1.0  0.09113  0.86367  0.21321  1.0000
  C   C259      1.0  0.05220  0.58015  0.06988  1.0000
  C   C260      1.0  0.47389  0.84598  0.26808  1.0000
  H   H439      1.0  0.47496  0.71636  0.04662  1.0000
  H   H440      1.0  0.31786  0.69661  0.09614  1.0000
  C   C261      1.0  0.05956  0.89543  0.18758  1.0000
  C   C262      1.0  0.45977  0.60867  0.08452  1.0000
  H   H441      1.0  0.45984  0.60032  0.10643  1.0000
  Fe  Fe43      1.0  0.15132  0.86378  0.00274  1.0000
  H   H442      1.0  0.41766  0.89183  0.22895  1.0000
  H   H443      1.0  0.01111  0.50196  0.07354  1.0000
  C   C263      1.0  0.12531  0.94606  0.13783  1.0000
  H   H444      1.0  0.35557  0.86581  0.06796  1.0000
  H   H445      1.0  0.30510  0.84348  0.07016  1.0000
  S   S84       1.0  0.14630  0.93270  0.00625  1.0000
  C   C264      1.0  0.45067  0.65240  0.02231  1.0000
  N   N17       1.0  0.02739  0.90392  0.18301  1.0000
  H   H446      1.0  0.34683  0.77377  0.32037  1.0000
  H   H447      1.0  0.25198  0.80217  0.08679  1.0000
  H   H448      1.0  0.21890  0.59435  0.29934  1.0000
  H   H449      1.0  0.03824  0.90350  0.04169  1.0000
  H   H450      1.0  0.06025  0.88247  0.23177  1.0000
  C   C265      1.0  0.04686  0.56058  0.09797  1.0000
  C   C266      1.0  0.01706  0.89751  0.05234  1.0000
  H   H451      1.0  0.27652  0.92827  0.01507  1.0000
  H   H452      1.0  0.19735  0.53894  0.27846  1.0000
  H   H453      1.0  0.43991  0.91420  0.25609  1.0000
  C   C267      1.0  0.32175  0.81916  0.06602  1.0000
  H   H454      1.0  0.32882  0.79124  0.14373  1.0000
  H   H455      1.0  0.06023  0.55119  0.15349  1.0000
  H   H456      1.0  0.46643  0.96048  0.02102  1.0000
  C   C268      1.0  0.10855  0.48069  0.08067  1.0000
  H   H457      1.0  0.05371  0.61419  0.07116  1.0000
  H   H458      1.0  0.45945  0.50418  0.27684  1.0000
  H   H459      1.0  0.33174  0.73911  0.13350  1.0000
  N   N18       1.0  0.31154  0.77748  0.07602  1.0000
  C   C269      1.0  0.28355  0.76730  0.06106  1.0000
  C   C270      1.0  0.33396  0.74530  0.06806  1.0000
  C   C271      1.0  0.47524  0.65092  0.08087  1.0000
  C   C272      1.0  0.30523  0.77821  0.10618  1.0000
  H   H460      1.0  0.26686  0.55178  0.29498  1.0000
  H   H461      1.0  0.47897  0.81314  0.30645  1.0000
  C   C273      1.0  0.43879  0.90667  0.23417  1.0000
  C   C274      1.0  0.33157  0.77126  0.12555  1.0000
  H   H462      1.0  0.28774  0.76497  0.03876  1.0000
  H   H463      1.0  0.27496  0.73660  0.06739  1.0000
  H   H464      1.0  0.35552  0.75126  0.07733  1.0000
  H   H465      1.0  0.33833  0.74656  0.04578  1.0000
  H   H466      1.0  0.45742  0.67444  0.08099  1.0000
  H   H467      1.0  0.04094  0.68048  0.03517  1.0000
  C   C275      1.0  0.02548  0.75682  0.25469  1.0000
  C   C276      1.0  0.35034  0.83608  0.07820  1.0000
  H   H468      1.0  0.18179  0.50100  0.11768  1.0000
  C   C277      1.0  0.48247  0.80711  0.28445  1.0000
  H   H469      1.0  0.01498  0.96998  0.23844  1.0000
  H   H470      1.0  0.07201  0.92481  0.18972  1.0000
  H   H471      1.0  0.20819  0.49779  0.07943  1.0000
  H   H472      1.0  0.41866  0.78601  0.26490  1.0000
  H   H473      1.0  0.06486  0.90024  0.30753  1.0000
  H   H474      1.0  0.34776  0.84333  0.10008  1.0000
  C   C278      1.0  0.02451  0.93514  0.16039  1.0000
  H   H475      1.0  0.43912  0.93684  0.22333  1.0000
  H   H476      1.0  0.35337  0.77853  0.11705  1.0000
  H   H477      1.0  0.03693  0.62637  0.12598  1.0000
  C   C279      1.0  0.49870  0.82256  0.22706  1.0000
  H   H478      1.0  0.03760  0.88099  0.28389  1.0000
  H   H479      1.0  0.02336  0.54838  0.00804  1.0000
  H   H480      1.0  0.03928  0.77975  0.26420  1.0000
  H   H481      1.0  0.17035  0.59858  0.30836  1.0000
  S   S85       1.0  0.08582  0.96068  0.06411  1.0000
  H   H482      1.0  0.17565  0.48215  0.06237  1.0000
  H   H483      1.0  0.48825  0.65682  0.09958  1.0000
  C   C280      1.0  0.06695  0.86801  0.21233  1.0000
  H   H484      1.0  0.05701  0.83687  0.21090  1.0000
  C   C281      1.0  0.41790  0.81088  0.24933  1.0000
  H   H485      1.0  0.06376  0.74693  0.02096  1.0000
  H   H486      1.0  0.43859  0.81373  0.20977  1.0000
  H   H487      1.0  0.43622  0.61105  0.07896  1.0000
  C   C282      1.0  0.04798  0.90908  0.29244  1.0000
  N   N19       1.0  0.21190  0.53613  0.32036  1.0000
  C   C283      1.0  0.02765  0.96014  0.22026  1.0000
  H   H488      1.0  0.02008  0.97897  0.07015  1.0000
  H   H489      1.0  0.20800  0.96721  0.31310  1.0000
  H   H490      1.0  0.24954  0.49640  0.32844  1.0000
  H   H491      1.0  0.01997  0.91157  0.07264  1.0000
  C   C284      1.0  0.01237  0.86386  0.17598  1.0000
  H   H492      1.0  0.02210  0.83382  0.03775  1.0000
  H   H493      1.0  0.14152  0.57797  0.32896  1.0000
  C   C285      1.0  0.01554  0.54278  0.13659  1.0000
  S   S86       1.0  0.33032  0.88504  0.00355  1.0000
  H   H494      1.0  0.05047  0.95419  0.22693  1.0000
  H   H495      1.0  0.17523  0.96832  0.29321  1.0000
  C   C286      1.0  0.48131  0.63671  0.03082  1.0000
  H   H496      1.0  0.48214  0.79808  0.18793  1.0000
  H   H497      1.0  0.27007  0.60406  0.30603  1.0000
  C   C287      1.0  0.50565  0.96593  0.26984  1.0000
  H   H498      1.0  0.47960  0.60280  0.03283  1.0000
  H   H499      1.0  0.03822  0.96709  0.31106  1.0000
  C   C288      1.0  0.22800  0.57657  0.31679  1.0000
  N   N20       1.0  0.01758  0.56919  0.11128  1.0000
  H   H500      1.0  0.17254  0.95400  0.32796  1.0000
  H   H501      1.0  0.50149  0.72370  0.09251  1.0000
  C   C289      1.0  0.26138  0.57319  0.31178  1.0000
  H   H502      1.0  0.02024  0.96273  0.01852  1.0000
  C   C290      1.0  0.10425  0.48140  0.13811  1.0000
  H   H503      1.0  0.46910  0.77977  0.27901  1.0000
  S   S87       1.0  0.19531  0.82852  0.00210  1.0000
  C   C291      1.0  0.01513  0.61405  0.11978  1.0000
  N   N21       1.0  0.49413  0.65652  0.05585  1.0000
  S   S88       1.0  0.11095  0.48234  0.04477  1.0000
  H   H504      1.0  0.48491  0.90055  0.22634  1.0000
  H   H505      1.0  0.50315  0.95555  0.29062  1.0000
  C   C292      1.0  0.16078  0.56946  0.31626  1.0000
  H   H506      1.0  0.03007  0.84060  0.07287  1.0000
  H   H507      1.0  0.03284  0.58505  0.16833  1.0000
  H   H508      1.0  0.50204  0.84663  0.18515  1.0000
  C   C293      1.0  0.11322  0.97843  0.15333  1.0000
  Fe  Fe44      1.0  0.37331  0.84830  0.99850  1.0000
  H   H509      1.0  0.01070  0.89358  0.99948  1.0000
  H   H510      1.0  0.50803  0.76189  0.06721  1.0000
  Fe  Fe45      1.0  0.43424  0.85320  0.50618  1.0000
  S   S89       1.0  0.47319  0.89348  0.51947  1.0000
  Fe  Fe46      1.0  0.36891  0.84233  0.49173  1.0000
  S   S90       1.0  0.32691  0.87722  0.48051  1.0000
  Fe  Fe47      1.0  0.41378  0.77808  0.47301  1.0000
  S   S91       1.0  0.42446  0.72550  0.44364  1.0000
  S   S92       1.0  0.41039  0.84681  0.46619  1.0000
  Fe  Fe48      1.0  0.11368  0.93003  0.47002  1.0000
  S   S93       1.0  0.12013  0.86217  0.46198  1.0000
  H   H511      1.0  0.18540  0.56181  0.35290  1.0000
  Fe  Fe49      1.0  0.08302  0.85077  0.49186  1.0000
  S   S94       1.0  0.04222  0.81281  0.47951  1.0000
  S   S95       1.0  0.14559  0.93222  0.50494  1.0000
  S   S96       1.0  0.07498  0.91896  0.49726  1.0000
  C   C294      1.0  0.28965  0.86210  0.48541  1.0000
  C   C295      1.0  0.26769  0.89271  0.48652  1.0000
  C   C296      1.0  0.23786  0.88218  0.49027  1.0000
  H   H512      1.0  0.27380  0.92490  0.48479  1.0000
  H   H513      1.0  0.22133  0.90614  0.49160  1.0000
  H   H514      1.0  0.17148  0.51522  0.33966  1.0000
  H   H515      1.0  0.37246  0.87872  0.41729  1.0000
  H   H516      1.0  0.48135  0.70702  0.60044  1.0000
  S   S97       1.0  0.11242  0.48745  0.55300  1.0000
  C   C297      1.0  0.09667  0.51516  0.37855  1.0000
  C   C298      1.0  0.09792  0.51629  0.34993  1.0000
  C   C299      1.0  0.11811  0.51925  0.63265  1.0000
  C   C300      1.0  0.03894  0.53472  0.51011  1.0000
  H   H517      1.0  0.09200  0.54325  0.38962  1.0000
  H   H518      1.0  0.46801  0.60401  0.56627  1.0000
  C   C301      1.0  0.41534  0.72577  0.35047  1.0000
  C   C302      1.0  0.42219  0.76242  0.36442  1.0000
  C   C303      1.0  0.42449  0.76299  0.39296  1.0000
  C   C304      1.0  0.41974  0.72688  0.40791  1.0000
  C   C305      1.0  0.41275  0.69023  0.39401  1.0000
  C   C306      1.0  0.41054  0.68963  0.36543  1.0000
  H   H519      1.0  0.42613  0.79049  0.35301  1.0000
  H   H520      1.0  0.43054  0.79115  0.40333  1.0000
  H   H521      1.0  0.40919  0.66206  0.40540  1.0000
  H   H522      1.0  0.40520  0.66124  0.35496  1.0000
  H   H523      1.0  0.02188  0.62302  0.48075  1.0000
  H   H524      1.0  0.46487  0.63104  0.42171  1.0000
  H   H525      1.0  0.43141  0.63774  0.54240  1.0000
  C   C307      1.0  0.49224  0.93708  0.50586  1.0000
  H   H526      1.0  0.27774  0.75374  0.53175  1.0000
  C   C308      1.0  0.29570  0.79906  0.38527  1.0000
  H   H527      1.0  0.47203  0.67130  0.39832  1.0000
  C   C309      1.0  0.02478  0.76698  0.49201  1.0000
  H   H528      1.0  0.02964  0.50470  0.50372  1.0000
  H   H529      1.0  0.28655  0.82536  0.37330  1.0000
  S   S98       1.0  0.44051  0.78418  0.51123  1.0000
  S   S99       1.0  0.37117  0.77370  0.49600  1.0000
  Fe  Fe50      1.0  0.39758  0.78498  0.53373  1.0000
  S   S100      1.0  0.38236  0.74388  0.56859  1.0000
  S   S101      1.0  0.39248  0.85392  0.53120  1.0000
  Fe  Fe51      1.0  0.10705  0.91690  0.53195  1.0000
  S   S102      1.0  0.11281  0.84770  0.52837  1.0000
  H   H530      1.0  0.44005  0.60696  0.60804  1.0000
  Fe  Fe52      1.0  0.14975  0.86341  0.49880  1.0000
  S   S103      1.0  0.19258  0.82545  0.49890  1.0000
  C   C310      1.0  0.22955  0.84073  0.49256  1.0000
  C   C311      1.0  0.25144  0.81005  0.49065  1.0000
  C   C312      1.0  0.28131  0.82060  0.48730  1.0000
  H   H531      1.0  0.24520  0.77789  0.49213  1.0000
  H   H532      1.0  0.29780  0.79662  0.48605  1.0000
  H   H533      1.0  0.03788  0.52132  0.40854  1.0000
  H   H534      1.0  0.05493  0.52797  0.52653  1.0000
  H   H535      1.0  0.19589  0.97695  0.36590  1.0000
  C   C313      1.0  0.02591  0.91387  0.35100  1.0000
  H   H536      1.0  0.10309  0.92003  0.35164  1.0000
  C   C314      1.0  0.10641  0.94813  0.39123  1.0000
  H   H537      1.0  0.44804  0.70434  0.56382  1.0000
  H   H538      1.0  0.13866  0.92066  0.59895  1.0000
  H   H539      1.0  0.35285  0.73396  0.43811  1.0000
  H   H540      1.0  0.36384  0.78657  0.43705  1.0000
  H   H541      1.0  0.33156  0.88297  0.54411  1.0000
  C   C315      1.0  0.39665  0.69656  0.64387  1.0000
  C   C316      1.0  0.38432  0.70652  0.61849  1.0000
  C   C317      1.0  0.39839  0.73424  0.60072  1.0000
  C   C318      1.0  0.42478  0.75247  0.60871  1.0000
  C   C319      1.0  0.43719  0.74235  0.63407  1.0000
  H   H542      1.0  0.23870  0.50673  0.61541  1.0000
  H   H543      1.0  0.36392  0.69218  0.61247  1.0000
  H   H544      1.0  0.43573  0.77405  0.59529  1.0000
  H   H545      1.0  0.37401  0.86994  0.38148  1.0000
  H   H546      1.0  0.02152  0.55438  0.51919  1.0000
  H   H547      1.0  0.50034  0.70816  0.42861  1.0000
  S   S104      1.0  0.09109  0.95798  0.56702  1.0000
  H   H548      1.0  0.47014  0.66375  0.46025  1.0000
  H   H549      1.0  0.02714  0.89656  0.39356  1.0000
  C   C320      1.0  0.29805  0.81297  0.60474  1.0000
  H   H550      1.0  0.28260  0.76797  0.42325  1.0000
  C   C321      1.0  0.05525  0.55709  0.48677  1.0000
  C   C322      1.0  0.33594  0.84215  0.40213  1.0000
  N   N22       1.0  0.03744  0.56617  0.46161  1.0000
  C   C323      1.0  0.23806  0.78655  0.57815  1.0000
  C   C324      1.0  0.01034  0.90128  0.37753  1.0000
  H   H551      1.0  0.23848  0.75516  0.56913  1.0000
  C   C325      1.0  0.01956  0.71023  0.52439  1.0000
  H   H552      1.0  0.45285  0.61173  0.37526  1.0000
  H   H553      1.0  0.32837  0.73672  0.39539  1.0000
  C   C326      1.0  0.01335  0.59594  0.46930  1.0000
  H   H554      1.0  0.36497  0.80847  0.35871  1.0000
  C   C327      1.0  0.03352  0.56516  0.65016  1.0000
  H   H555      1.0  0.50221  0.62613  0.53353  1.0000
  H   H556      1.0  0.12442  0.54825  0.59357  1.0000
  H   H557      1.0  0.31560  0.73782  0.53242  1.0000
  H   H558      1.0  0.07650  0.56225  0.43672  1.0000
  H   H559      1.0  0.32297  0.86852  0.39385  1.0000
  H   H560      1.0  0.25646  0.50945  0.37423  1.0000
  H   H561      1.0  0.08681  0.62427  0.46575  1.0000
  C   C328      1.0  0.34170  0.76457  0.40021  1.0000
  H   H562      1.0  0.47998  0.57796  0.38866  1.0000
  C   C329      1.0  0.36845  0.85527  0.40124  1.0000
  H   H563      1.0  0.48113  0.52797  0.51051  1.0000
  H   H564      1.0  0.42990  0.65242  0.58992  1.0000
  H   H565      1.0  0.18774  0.50563  0.53267  1.0000
  H   H566      1.0  0.09389  0.54490  0.33921  1.0000
  H   H567      1.0  0.32038  0.88241  0.57889  1.0000
  C   C330      1.0  0.48036  0.64087  0.40545  1.0000
  C   C331      1.0  0.05638  0.59900  0.64383  1.0000
  H   H568      1.0  0.38349  0.82895  0.40478  1.0000
  H   H569      1.0  0.49972  0.75333  0.56368  1.0000
  C   C332      1.0  0.29448  0.73726  0.54381  1.0000
  H   H570      1.0  0.08558  0.63695  0.43065  1.0000
  H   H571      1.0  0.28934  0.77054  0.37418  1.0000
  H   H572      1.0  0.36373  0.75758  0.39159  1.0000
  H   H573      1.0  0.50485  0.69951  0.37020  1.0000
  H   H574      1.0  0.15599  0.93445  0.64593  1.0000
  H   H575      1.0  0.04027  0.94070  0.35571  1.0000
  C   C333      1.0  0.34597  0.76523  0.43125  1.0000
  H   H576      1.0  0.32954  0.84055  0.42390  1.0000
  H   H577      1.0  0.32113  0.74667  0.57855  1.0000
  H   H578      1.0  0.32952  0.81791  0.63770  1.0000
  H   H579      1.0  0.04255  0.48919  0.57088  1.0000
  H   H580      1.0  0.29131  0.84559  0.60838  1.0000
  H   H581      1.0  0.05359  0.75702  0.52590  1.0000
  H   H582      1.0  0.06392  0.58601  0.49589  1.0000
  C   C334      1.0  0.10496  0.96720  0.60021  1.0000
  H   H583      1.0  0.49425  0.69833  0.47699  1.0000
  C   C335      1.0  0.48653  0.95292  0.47996  1.0000
  H   H584      1.0  0.33695  0.77536  0.61592  1.0000
  C   C336      1.0  0.46354  0.68751  0.55021  1.0000
  H   H585      1.0  0.47343  0.71182  0.53711  1.0000
  H   H586      1.0  0.28671  0.70483  0.54535  1.0000
  H   H587      1.0  0.04573  0.62853  0.63794  1.0000
  H   H588      1.0  0.34567  0.82755  0.60533  1.0000
  C   C337      1.0  0.32944  0.80794  0.61611  1.0000
  H   H589      1.0  0.05277  0.54670  0.59571  1.0000
  H   H590      1.0  0.42976  0.68031  0.51954  1.0000
  N   N23       1.0  0.29385  0.80116  0.57537  1.0000
  H   H591      1.0  0.04749  0.58876  0.42083  1.0000
  C   C338      1.0  0.44849  0.63686  0.60016  1.0000
  C   C339      1.0  0.02477  0.52574  0.45158  1.0000
  H   H592      1.0  0.22468  0.59741  0.33451  1.0000
  C   C340      1.0  0.10373  0.94886  0.36273  1.0000
  C   C341      1.0  0.49362  0.67052  0.46384  1.0000
  C   C342      1.0  0.29846  0.75525  0.57262  1.0000
  C   C343      1.0  0.34057  0.80650  0.35860  1.0000
  H   H593      1.0  0.05698  0.50924  0.62177  1.0000
  H   H594      1.0  0.31202  0.81451  0.53563  1.0000
  H   H595      1.0  0.38580  0.67467  0.65716  1.0000
  H   H596      1.0  0.05507  0.65056  0.45158  1.0000
  H   H597      1.0  0.28347  0.79423  0.61810  1.0000
  C   C344      1.0  0.26321  0.81368  0.56709  1.0000
  H   H598      1.0  0.29345  0.88304  0.55169  1.0000
  C   C345      1.0  0.22865  0.50663  0.33820  1.0000
  H   H599      1.0  0.28467  0.73745  0.58723  1.0000
  C   C346      1.0  0.18257  0.54447  0.33355  1.0000
  H   H600      1.0  0.45522  0.65507  0.61816  1.0000
  C   C347      1.0  0.31563  0.82288  0.55724  1.0000
  C   C348      1.0  0.23504  0.52202  0.36732  1.0000
  C   C349      1.0  0.44514  0.66021  0.53107  1.0000
  H   H601      1.0  0.21674  0.80067  0.57224  1.0000
  H   H602      1.0  0.49383  0.78799  0.46600  1.0000
  H   H603      1.0  0.50228  0.59046  0.44078  1.0000
  C   C350      1.0  0.12835  0.94457  0.61102  1.0000
  H   H604      1.0  0.33843  0.81235  0.56141  1.0000
  H   H605      1.0  0.32588  0.77352  0.44266  1.0000
  H   H606      1.0  0.50361  0.64494  0.47565  1.0000
  H   H607      1.0  0.23834  0.78436  0.60062  1.0000
  H   H608      1.0  0.49177  0.61363  0.59379  1.0000
  H   H609      1.0  0.07485  0.53783  0.48153  1.0000
  N   N24       1.0  0.01800  0.54646  0.62597  1.0000
  C   C351      1.0  0.42329  0.71414  0.65167  1.0000
  H   H610      1.0  0.25470  0.79821  0.40793  1.0000
  H   H611      1.0  0.07242  0.58932  0.62809  1.0000
  H   H612      1.0  0.26096  0.81483  0.54466  1.0000
  H   H613      1.0  0.22298  0.48859  0.54250  1.0000
  C   C352      1.0  0.27860  0.79740  0.41234  1.0000
  H   H614      1.0  0.48971  0.61777  0.36399  1.0000
  C   C353      1.0  0.11223  0.48429  0.58891  1.0000
  C   C354      1.0  0.47469  0.62841  0.58094  1.0000
  C   C355      1.0  0.31490  0.87050  0.55844  1.0000
  C   C356      1.0  0.05817  0.58424  0.44079  1.0000
  C   C357      1.0  0.11884  0.51989  0.60404  1.0000
  H   H615      1.0  0.12311  0.54692  0.64405  1.0000
  N   N25       1.0  0.32864  0.80273  0.38721  1.0000
  C   C358      1.0  0.07193  0.62635  0.44805  1.0000
  C   C359      1.0  0.01755  0.52243  0.42104  1.0000
  H   H616      1.0  0.10781  0.91895  0.40193  1.0000
  H   H617      1.0  0.28297  0.82419  0.42573  1.0000
  C   C360      1.0  0.03454  0.74586  0.51511  1.0000
  H   H618      1.0  0.25826  0.84585  0.57370  1.0000
  C   C361      1.0  0.02901  0.48952  0.58972  1.0000
  H   H619      1.0  0.45779  0.75620  0.63999  1.0000
  H   H620      1.0  0.21754  0.51175  0.38162  1.0000
  C   C362      1.0  0.47609  0.61015  0.38200  1.0000
  H   H621      1.0  0.04027  0.49971  0.45554  1.0000
  H   H622      1.0  0.23689  0.55601  0.36884  1.0000
  H   H623      1.0  0.46964  0.93901  0.46761  1.0000
  H   H624      1.0  0.20244  0.48739  0.62071  1.0000
  C   C363      1.0  0.11060  0.48294  0.64640  1.0000
  H   H625      1.0  0.21156  0.51572  0.59006  1.0000
  C   C364      1.0  0.04038  0.52429  0.60854  1.0000
  C   C365      1.0  0.49914  0.69505  0.58709  1.0000
  H   H626      1.0  0.01949  0.88651  0.52180  1.0000
  C   C366      1.0  0.13809  0.95248  0.63769  1.0000
  H   H627      1.0  0.33269  0.83557  0.34884  1.0000
  C   C367      1.0  0.21955  0.49267  0.60501  1.0000
  H   H628      1.0  0.45889  0.64373  0.51594  1.0000
  C   C368      1.0  0.49374  0.50510  0.49947  1.0000
  H   H629      1.0  0.04118  0.88808  0.34606  1.0000
  H   H630      1.0  0.33916  0.73989  0.34802  1.0000
  N   N26       1.0  0.48698  0.66555  0.56632  1.0000
  H   H631      1.0  0.02740  0.69433  0.54230  1.0000
  C   C369      1.0  0.33345  0.77040  0.33920  1.0000
  H   H632      1.0  0.06898  0.60569  0.66261  1.0000
  H   H633      1.0  0.02029  0.60364  0.60294  1.0000
  H   H634      1.0  0.04566  0.54105  0.66179  1.0000
  H   H635      1.0  0.31012  0.77076  0.33284  1.0000
  Fe  Fe53      1.0  0.43873  0.59514  0.75779  1.0000
  S   S105      1.0  0.44942  0.66266  0.75352  1.0000
  S   S106      1.0  0.47585  0.55318  0.77357  1.0000
  Fe  Fe54      1.0  0.37322  0.61223  0.74608  1.0000
  S   S107      1.0  0.38008  0.68061  0.74070  1.0000
  S   S108      1.0  0.32913  0.57811  0.74635  1.0000
  Fe  Fe55      1.0  0.42027  0.66251  0.71674  1.0000
  S   S109      1.0  0.44089  0.70007  0.68235  1.0000
  Fe  Fe56      1.0  0.40881  0.67583  0.77774  1.0000
  S   S110      1.0  0.40783  0.73058  0.80678  1.0000
  S   S111      1.0  0.41192  0.59379  0.71937  1.0000
  S   S112      1.0  0.39959  0.60866  0.78485  1.0000
  Fe  Fe57      1.0  0.08518  0.61854  0.72883  1.0000
  S   S113      1.0  0.07560  0.55131  0.73545  1.0000
  S   S114      1.0  0.04370  0.65406  0.71545  1.0000
  Fe  Fe58      1.0  0.15118  0.60215  0.73882  1.0000
  S   S115      1.0  0.14489  0.53384  0.74646  1.0000
  S   S116      1.0  0.19498  0.63757  0.73853  1.0000
  Fe  Fe59      1.0  0.11491  0.53655  0.71009  1.0000
  C   C370      1.0  0.03810  0.94073  0.74478  1.0000
  Fe  Fe60      1.0  0.10567  0.55354  0.77140  1.0000
  H   H636      1.0  0.44814  0.86876  0.77316  1.0000
  S   S117      1.0  0.12318  0.60350  0.70077  1.0000
  S   S118      1.0  0.11335  0.62200  0.76633  1.0000
  H   H637      1.0  0.47866  0.51451  0.71936  1.0000
  H   H638      1.0  0.39814  0.78210  0.75586  1.0000
  H   H639      1.0  0.06037  0.71663  0.75617  1.0000
  C   C371      1.0  0.01178  0.54505  0.92197  1.0000
  Fe  Fe61      1.0  0.40896  0.78386  0.96646  1.0000
  S   S119      1.0  0.41305  0.73041  0.93628  1.0000
  S   S120      1.0  0.40480  0.85310  0.96271  1.0000
  Fe  Fe62      1.0  0.11711  0.92734  0.96949  1.0000
  S   S121      1.0  0.12384  0.85896  0.96465  1.0000
  C   C372      1.0  0.01968  0.50501  0.90675  1.0000
  H   H640      1.0  0.30398  0.58627  0.80034  1.0000
  H   H641      1.0  0.08975  0.91797  0.69623  1.0000
  Fe  Fe63      1.0  0.08510  0.85003  0.99305  1.0000
  C   C373      1.0  0.46599  0.85219  0.73234  1.0000
  C   C374      1.0  0.03983  0.72595  0.74703  1.0000
  H   H642      1.0  0.40914  0.83156  0.74366  1.0000
  C   C375      1.0  0.08136  0.52471  0.93954  1.0000
  C   C376      1.0  0.03720  0.52660  0.99617  1.0000
  N   N27       1.0  0.02866  0.55423  0.94760  1.0000
  H   H643      1.0  0.30160  0.80635  0.98971  1.0000
  H   H644      1.0  0.06293  0.58024  0.92209  1.0000
  C   C377      1.0  0.27593  0.65272  0.81055  1.0000
  C   C378      1.0  0.49519  0.72486  0.86638  1.0000
  C   C379      1.0  0.11817  0.90063  0.74395  1.0000
  C   C380      1.0  0.19951  0.96634  0.90441  1.0000
  C   C381      1.0  0.07097  0.93383  0.70602  1.0000
  H   H645      1.0  0.02311  0.60740  0.75978  1.0000
  H   H646      1.0  0.01106  0.49523  0.67623  1.0000
  C   C382      1.0  0.01533  0.59265  0.96008  1.0000
  C   C383      1.0  0.41000  0.72977  0.84274  1.0000
  C   C384      1.0  0.40705  0.76715  0.85706  1.0000
  C   C385      1.0  0.40797  0.76798  0.88568  1.0000
  C   C386      1.0  0.41180  0.73133  0.90028  1.0000
  C   C387      1.0  0.41509  0.69397  0.88594  1.0000
  C   C388      1.0  0.41431  0.69315  0.85730  1.0000
  H   H647      1.0  0.40378  0.79566  0.84598  1.0000
  H   H648      1.0  0.40551  0.79694  0.89644  1.0000
  H   H649      1.0  0.41808  0.66544  0.89707  1.0000
  H   H650      1.0  0.41669  0.66419  0.84655  1.0000
  C   C389      1.0  0.29205  0.59500  0.74242  1.0000
  C   C390      1.0  0.26918  0.56688  0.74776  1.0000
  C   C391      1.0  0.23943  0.57904  0.74614  1.0000
  C   C392      1.0  0.23209  0.61970  0.73923  1.0000
  C   C393      1.0  0.25497  0.64778  0.73366  1.0000
  C   C394      1.0  0.28475  0.63552  0.73505  1.0000
  H   H651      1.0  0.27449  0.53542  0.75337  1.0000
  H   H652      1.0  0.22219  0.55706  0.75053  1.0000
  H   H653      1.0  0.24959  0.67929  0.72825  1.0000
  H   H654      1.0  0.30197  0.65752  0.73069  1.0000
  H   H655      1.0  0.01803  0.93685  0.73221  1.0000
  C   C395      1.0  0.21950  0.96850  0.96059  1.0000
  H   H656      1.0  0.50722  0.70350  0.96883  1.0000
  H   H657      1.0  0.21589  0.94764  0.86378  1.0000
  H   H658      1.0  0.20713  0.90431  0.96043  1.0000
  C   C396      1.0  0.48789  0.69271  0.95744  1.0000
  H   H659      1.0  0.01167  0.54156  0.73005  1.0000
  H   H660      1.0  0.30080  0.69422  0.85026  1.0000
  S   S122      1.0  0.08373  0.52088  0.80736  1.0000
  H   H661      1.0  0.49414  0.82265  0.77732  1.0000
  H   H662      1.0  0.07370  0.81174  0.72136  1.0000
  C   C397      1.0  0.49723  0.51209  0.75943  1.0000
  C   C398      1.0  0.06064  0.56256  0.94142  1.0000
  C   C399      1.0  0.20171  0.93238  0.94854  1.0000
  H   H663      1.0  0.25144  0.62808  0.84583  1.0000
  C   C400      1.0  0.02721  0.70119  0.72692  1.0000
  H   H664      1.0  0.04498  0.94128  0.78924  1.0000
  H   H665      1.0  0.23026  0.63570  0.81575  1.0000
  H   H666      1.0  0.25441  0.59268  0.81701  1.0000
  H   H667      1.0  0.31349  0.54031  0.83725  1.0000
  H   H668      1.0  0.09346  0.95421  0.75576  1.0000
  C   C401      1.0  0.18260  0.89518  0.90905  1.0000
  C   C402      1.0  0.41493  0.79828  0.74336  1.0000
  C   C403      1.0  0.44548  0.79019  0.75572  1.0000
  H   H669      1.0  0.03616  0.78202  0.77063  1.0000
  C   C404      1.0  0.18492  0.85103  0.92050  1.0000
  H   H670      1.0  0.14279  0.53026  0.82974  1.0000
  H   H671      1.0  0.44498  0.80125  0.77712  1.0000
  C   C405      1.0  0.10275  0.95133  0.88906  1.0000
  C   C406      1.0  0.02856  0.93061  0.77420  1.0000
  H   H672      1.0  0.50452  0.66381  0.88030  1.0000
  H   H673      1.0  0.16014  0.90705  0.91383  1.0000
  H   H674      1.0  0.18331  0.89113  0.88664  1.0000
  H   H675      1.0  0.26887  0.68523  0.81400  1.0000
  H   H676      1.0  0.50316  0.77136  0.67957  1.0000
  H   H677      1.0  0.12645  0.91194  0.72410  1.0000
  H   H678      1.0  0.46855  0.70847  0.96656  1.0000
  C   C407      1.0  0.30986  0.66234  0.84877  1.0000
  H   H679      1.0  0.09532  0.92400  0.89972  1.0000
  H   H680      1.0  0.24254  0.96881  0.95330  1.0000
  C   C408      1.0  0.34148  0.66369  0.85990  1.0000
  H   H681      1.0  0.16500  0.83351  0.91455  1.0000
  H   H682      1.0  0.18591  0.85005  0.94294  1.0000
  H   H683      1.0  0.20387  0.83431  0.91153  1.0000
  S   S123      1.0  0.48494  0.89019  0.98670  1.0000
  H   H684      1.0  0.33926  0.72926  0.78526  1.0000
  H   H685      1.0  0.30067  0.72377  0.78979  1.0000
  H   H686      1.0  0.17824  0.93860  0.95344  1.0000
  H   H687      1.0  0.02853  0.55756  0.77420  1.0000
  H   H688      1.0  0.03489  0.90399  0.68328  1.0000
  H   H689      1.0  0.44752  0.75605  0.75760  1.0000
  H   H690      1.0  0.03031  0.86915  0.72563  1.0000
  H   H691      1.0  0.32532  0.65627  0.78021  1.0000
  H   H692      1.0  0.49176  0.74475  0.77704  1.0000
  H   H693      1.0  0.09340  0.52007  0.95889  1.0000
  H   H694      1.0  0.48423  0.65930  0.96132  1.0000
  C   C409      1.0  0.48824  0.70175  0.92653  1.0000
  H   H695      1.0  0.48157  0.89490  0.76387  1.0000
  H   H696      1.0  0.35136  0.69458  0.85632  1.0000
  H   H697      1.0  0.25090  0.93793  0.90687  1.0000
  C   C410      1.0  0.32220  0.71617  0.79897  1.0000
  C   C411      1.0  0.02765  0.60816  0.80280  1.0000
  H   H698      1.0  0.09263  0.85330  0.70555  1.0000
  S   S124      1.0  0.04318  0.81279  0.98395  1.0000
  H   H699      1.0  0.24897  0.78579  0.98940  1.0000
  N   N28       1.0  0.20551  0.92560  0.91841  1.0000
  H   H700      1.0  0.01479  0.57011  0.90674  1.0000
  H   H701      1.0  0.50741  0.61762  0.74290  1.0000
  N   N29       1.0  0.30694  0.64595  0.82030  1.0000
  H   H702      1.0  0.23978  0.85681  0.93855  1.0000
  C   C412      1.0  0.49449  0.49945  0.73238  1.0000
  C   C413      1.0  0.46048  0.88255  0.75604  1.0000
  C   C414      1.0  0.07064  0.84255  0.71177  1.0000
  C   C415      1.0  0.50495  0.95687  0.72200  1.0000
  H   H703      1.0  0.17615  0.95230  0.86639  1.0000
  H   H704      1.0  0.47395  0.73164  0.87652  1.0000
  H   H705      1.0  0.41310  0.78592  0.72244  1.0000
  H   H706      1.0  0.47513  0.67651  0.91711  1.0000
  H   H707      1.0  0.45599  0.78644  0.70096  1.0000
  C   C416      1.0  0.04597  0.93432  0.68497  1.0000
  C   C417      1.0  0.10085  0.50199  0.83725  1.0000
  C   C418      1.0  0.25202  0.62541  0.82339  1.0000
  C   C419      1.0  0.31522  0.60071  0.81799  1.0000
  H   H708      1.0  0.44808  0.85541  0.71715  1.0000
  H   H709      1.0  0.32469  0.73200  0.81878  1.0000
  H   H710      1.0  0.08386  0.90766  0.77281  1.0000
  N   N30       1.0  0.47120  0.80779  0.74016  1.0000
  C   C420      1.0  0.12994  0.51147  0.84353  1.0000
  H   H711      1.0  0.03611  0.63853  0.93263  1.0000
  H   H712      1.0  0.27451  0.64775  0.78828  1.0000
  C   C421      1.0  0.08892  0.92076  0.75242  1.0000
  H   H713      1.0  0.02911  0.64214  0.79997  1.0000
  H   H714      1.0  0.25930  0.90187  0.94971  1.0000
  H   H715      1.0  0.35054  0.66455  0.80669  1.0000
  C   C422      1.0  0.19752  0.96516  0.87311  1.0000
  H   H716      1.0  0.11674  0.86646  0.74432  1.0000
  C   C423      1.0  0.02429  0.51941  0.96761  1.0000
  H   H717      1.0  0.47536  0.73057  0.92313  1.0000
  H   H718      1.0  0.07862  0.96632  0.70842  1.0000
  H   H719      1.0  0.02394  0.89727  0.77712  1.0000
  N   N31       1.0  0.06329  0.91557  0.73339  1.0000
  H   H720      1.0  0.07019  0.58263  0.95751  1.0000
  C   C424      1.0  0.48538  0.48770  0.99357  1.0000
  H   H721      1.0  0.05724  0.83674  0.69335  1.0000
  C   C425      1.0  0.01611  0.58695  0.77676  1.0000
  H   H722      1.0  0.28693  0.57510  0.85098  1.0000
  H   H723      1.0  0.49004  0.71059  0.84643  1.0000
  H   H724      1.0  0.48541  0.86474  0.72143  1.0000
  C   C426      1.0  0.47522  0.78269  0.71461  1.0000
  C   C427      1.0  0.23607  0.91121  0.91080  1.0000
  H   H725      1.0  0.04347  0.97426  0.74419  1.0000
  H   H726      1.0  0.09871  0.53135  0.92421  1.0000
  H   H727      1.0  0.33900  0.59670  0.81321  1.0000
  H   H728      1.0  0.13508  0.90918  0.75915  1.0000
  Fe  Fe64      1.0  0.44069  0.85710  0.99436  1.0000
  H   H729      1.0  0.50190  0.66420  0.70559  1.0000
  C   C428      1.0  0.25249  0.88392  0.93164  1.0000
  H   H730      1.0  0.35592  0.63995  0.85058  1.0000
  C   C429      1.0  0.32710  0.66911  0.80117  1.0000
  H   H731      1.0  0.34137  0.65734  0.88209  1.0000
  H   H732      1.0  0.05467  0.85621  0.75225  1.0000
  H   H733      1.0  0.29593  0.64512  0.86345  1.0000
  H   H734      1.0  0.23564  0.89392  0.89125  1.0000
  C   C430      1.0  0.14234  0.49723  0.86801  1.0000
  C   C431      1.0  0.49952  0.94072  0.99257  1.0000
  C   C432      1.0  0.49808  0.80592  0.75788  1.0000
  H   H735      1.0  0.27299  0.87197  0.92219  1.0000
  H   H736      1.0  0.07105  0.49543  0.93329  1.0000
  H   H737      1.0  0.44682  0.90878  0.74877  1.0000
  H   H738      1.0  0.02758  0.60219  0.97857  1.0000
  H   H739      1.0  0.03365  0.48992  0.96021  1.0000
  C   C433      1.0  0.30961  0.57305  0.84307  1.0000
  H   H740      1.0  0.08629  0.93132  0.85014  1.0000
  H   H741      1.0  0.16476  0.50522  0.87285  1.0000
  C   C434      1.0  0.02603  0.76315  0.75516  1.0000
  C   C435      1.0  0.05379  0.87094  0.73180  1.0000
  C   C436      1.0  0.02782  0.76489  0.99532  1.0000
  H   H742      1.0  0.02953  0.95864  0.68970  1.0000
  H   H743      1.0  0.04195  0.50682  0.89770  1.0000
  S   S125      1.0  0.07665  0.91866  0.99475  1.0000
  H   H744      1.0  0.05069  0.59818  0.80613  1.0000
  H   H745      1.0  0.32515  0.58018  0.85970  1.0000
  H   H746      1.0  0.47605  0.74908  0.71933  1.0000
  H   H747      1.0  0.06006  0.53823  0.99538  1.0000
  C   C437      1.0  0.09767  0.95558  0.86092  1.0000
  S   S126      1.0  0.44628  0.78781  0.99596  1.0000
  H   H748      1.0  0.49444  0.93802  0.70675  1.0000
  H   H749      1.0  0.01556  0.60067  0.82165  1.0000
  C   C438      1.0  0.50246  0.79289  0.69713  1.0000
  H   H750      1.0  0.05528  0.94193  0.66465  1.0000
  H   H751      1.0  0.01739  0.57883  0.66474  1.0000
  H   H752      1.0  0.50157  0.82459  0.68861  1.0000
  H   H753      1.0  0.21973  0.96585  0.98308  1.0000
  H   H754      1.0  0.50689  0.75417  0.86197  1.0000
  C   C439      1.0  0.25490  0.81701  0.99495  1.0000
  C   C440      1.0  0.01442  0.63133  0.94172  1.0000
  C   C441      1.0  0.28481  0.82855  0.99519  1.0000
  C   C442      1.0  0.49783  0.52772  0.99453  1.0000
  S   S127      1.0  0.12324  0.97999  0.93893  1.0000
  S   S128      1.0  0.10792  0.48111  0.68227  1.0000
  H   H755      1.0  0.48348  0.55422  0.99601  1.0000
  H   H756      1.0  0.46182  0.48386  0.99454  1.0000
  H   H757      1.0  0.17873  0.98025  0.91204  1.0000
  Fe  Fe65      1.0  0.89686  0.41977  0.28540  1.0000
  S   S129      1.0  0.89201  0.35080  0.28621  1.0000
  H   H758      1.0  0.55892  0.06359  0.28250  1.0000
  Fe  Fe66      1.0  0.90996  0.42003  0.22361  1.0000
  S   S130      1.0  0.90566  0.35063  0.22021  1.0000
  C   C443      1.0  0.91875  0.47164  0.15778  1.0000
  Fe  Fe67      1.0  0.86568  0.35860  0.24775  1.0000
  S   S131      1.0  0.82234  0.32238  0.24550  1.0000
  Fe  Fe68      1.0  0.93206  0.34792  0.25899  1.0000
  S   S132      1.0  0.97329  0.31049  0.27076  1.0000
  S   S133      1.0  0.86863  0.42769  0.24829  1.0000
  S   S134      1.0  0.93840  0.41713  0.26091  1.0000
  Fe  Fe69      1.0  0.57759  0.36029  0.25722  1.0000
  S   S135      1.0  0.56893  0.29226  0.25311  1.0000
  S   S136      1.0  0.53591  0.39626  0.27004  1.0000
  Fe  Fe70      1.0  0.64399  0.34474  0.24921  1.0000
  S   S137      1.0  0.63885  0.27574  0.24494  1.0000
  S   S138      1.0  0.68749  0.38077  0.24739  1.0000
  Fe  Fe71      1.0  0.60043  0.29111  0.21797  1.0000
  S   S139      1.0  0.58280  0.24828  0.18466  1.0000
  Fe  Fe72      1.0  0.60742  0.28135  0.28031  1.0000
  S   S140      1.0  0.60021  0.22872  0.31060  1.0000
  S   S141      1.0  0.60684  0.36030  0.21999  1.0000
  S   S142      1.0  0.61484  0.34928  0.28661  1.0000
  Fe  Fe73      1.0  0.90351  0.04579  0.02664  1.0000
  S   S143      1.0  0.90009  0.11537  0.02672  1.0000
  H   H759      1.0  0.56983  0.41526  0.04461  1.0000
  H   H760      1.0  0.91200  0.04031  0.21377  1.0000
  Fe  Fe74      1.0  0.61748  0.17710  0.02824  1.0000
  S   S144      1.0  0.62255  0.10814  0.03083  1.0000
  S   S145      1.0  0.62455  0.22616  0.06121  1.0000
  H   H761      1.0  0.76816  0.27773  0.25121  1.0000
  H   H762      1.0  0.67390  0.18353  0.09575  1.0000
  S   S146      1.0  0.57841  0.17320  0.00072  1.0000
  H   H763      1.0  0.53995  0.39453  0.06350  1.0000
  H   H764      1.0  0.61020  0.19163  0.24812  1.0000
  C   C444      1.0  0.55944  0.35240  0.03267  1.0000
  H   H765      1.0  0.54449  0.20944  0.27534  1.0000
  H   H766      1.0  0.52448  0.18871  0.30334  1.0000
  H   H767      1.0  0.51408  0.00339  0.19564  1.0000
  H   H768      1.0  0.71202  0.20349  0.01157  1.0000
  H   H769      1.0  0.71561  0.29890  0.25202  1.0000
  C   C445      1.0  0.99093  0.26370  0.26021  1.0000
  S   S147      1.0  0.89326  0.99690  0.05868  1.0000
  H   H770      1.0  0.56675  0.08452  0.22180  1.0000
  H   H771      1.0  0.00431  0.08190  0.28521  1.0000
  H   H772      1.0  0.98247  0.99714  0.06536  1.0000
  H   H773      1.0  0.91944  0.00672  0.24256  1.0000
  H   H774      1.0  0.57593  0.15451  0.21356  1.0000
  N   N32       1.0  0.54448  0.31250  0.04066  1.0000
  H   H775      1.0  0.98026  0.11345  0.22594  1.0000
  C   C446      1.0  0.59612  0.24123  0.15090  1.0000
  C   C447      1.0  0.58623  0.20716  0.13569  1.0000
  C   C448      1.0  0.59526  0.20130  0.10846  1.0000
  C   C449      1.0  0.61386  0.22998  0.09596  1.0000
  C   C450      1.0  0.62376  0.26398  0.11118  1.0000
  C   C451      1.0  0.61516  0.26944  0.13852  1.0000
  H   H776      1.0  0.57140  0.18519  0.14499  1.0000
  H   H777      1.0  0.58736  0.17506  0.09704  1.0000
  H   H778      1.0  0.63804  0.28651  0.10173  1.0000
  H   H779      1.0  0.62287  0.29588  0.14987  1.0000
  C   C452      1.0  0.80528  0.47220  0.29349  1.0000
  H   H780      1.0  0.56245  0.19467  0.23352  1.0000
  C   C453      1.0  0.53875  0.25999  0.07989  1.0000
  H   H781      1.0  0.74780  0.21356  0.02625  1.0000
  C   C454      1.0  0.97029  0.34725  0.00821  1.0000
  H   H782      1.0  0.90871  0.40307  0.02859  1.0000
  H   H783      1.0  0.53627  0.26443  0.31874  1.0000
  C   C455      1.0  0.92877  0.01135  0.10360  1.0000
  N   N33       1.0  0.96827  0.39384  0.00875  1.0000
  C   C456      1.0  0.90971  0.43810  0.11438  1.0000
  C   C457      1.0  0.91229  0.43604  0.14290  1.0000
  C   C458      1.0  0.53139  0.46997  0.24023  1.0000
  H   H784      1.0  0.94006  0.03422  0.09142  1.0000
  H   H785      1.0  0.90496  0.41027  0.10308  1.0000
  H   H786      1.0  0.90960  0.40683  0.15332  1.0000
  C   C459      1.0  0.78494  0.33918  0.24465  1.0000
  C   C460      1.0  0.77707  0.38063  0.24087  1.0000
  C   C461      1.0  0.74717  0.39251  0.24120  1.0000
  C   C462      1.0  0.72468  0.36331  0.24537  1.0000
  C   C463      1.0  0.73253  0.32181  0.24883  1.0000
  C   C464      1.0  0.76242  0.30990  0.24841  1.0000
  H   H787      1.0  0.79400  0.40351  0.23764  1.0000
  H   H788      1.0  0.74141  0.42464  0.23826  1.0000
  H   H789      1.0  0.95687  0.04626  0.28869  1.0000
  H   H790      1.0  0.70674  0.14490  0.03427  1.0000
  H   H791      1.0  0.67360  0.16088  0.05019  1.0000
  H   H792      1.0  0.93518  0.33920  0.04029  1.0000
  C   C465      1.0  0.57001  0.16200  0.23494  1.0000
  C   C466      1.0  0.91134  0.39474  0.00691  1.0000
  S   S148      1.0  0.88367  0.46400  0.31958  1.0000
  H   H793      1.0  0.81645  0.45465  0.27710  1.0000
  H   H794      1.0  0.54490  0.25595  0.10154  1.0000
  C   C467      1.0  0.53182  0.29788  0.31631  1.0000
  H   H795      1.0  0.96334  0.02498  0.21522  1.0000
  H   H796      1.0  0.52467  0.09599  0.19508  1.0000
  S   S149      1.0  0.92389  0.47044  0.19354  1.0000
  H   H797      1.0  0.93739  0.16809  0.23921  1.0000
  C   C468      1.0  0.56139  0.38663  0.05437  1.0000
  C   C469      1.0  0.55438  0.08889  0.24116  1.0000
  H   H798      1.0  0.54810  0.32420  0.08419  1.0000
  H   H799      1.0  0.99087  0.18903  0.21128  1.0000
  C   C470      1.0  0.55312  0.29991  0.06905  1.0000
  C   C471      1.0  0.52710  0.36521  0.19675  1.0000
  C   C472      1.0  0.76651  0.19926  0.08496  1.0000
  H   H800      1.0  0.90800  0.36112  0.00390  1.0000
  N   N34       1.0  0.94917  0.08435  0.25322  1.0000
  C   C473      1.0  0.59927  0.16120  0.25048  1.0000
  C   C474      1.0  0.96576  0.05050  0.26772  1.0000
  C   C475      1.0  0.91700  0.07346  0.25265  1.0000
  C   C476      1.0  0.96064  0.09308  0.22494  1.0000
  C   C477      1.0  0.93463  0.16114  0.26112  1.0000
  C   C478      1.0  0.99761  0.40266  0.05315  1.0000
  H   H801      1.0  0.78869  0.19209  0.07672  1.0000
  C   C479      1.0  0.96980  0.05552  0.20730  1.0000
  H   H802      1.0  0.96635  0.44566  0.03648  1.0000
  H   H803      1.0  0.98591  0.44291  0.21947  1.0000
  H   H804      1.0  0.55145  0.46086  0.23003  1.0000
  H   H805      1.0  0.54333  0.24963  0.02513  1.0000
  C   C480      1.0  0.00378  0.99044  0.05532  1.0000
  H   H806      1.0  0.57740  0.29583  0.07026  1.0000
  H   H807      1.0  0.94417  0.11107  0.21314  1.0000
  H   H808      1.0  0.96265  0.01988  0.25825  1.0000
  C   C481      1.0  0.93833  0.00248  0.13021  1.0000
  H   H809      1.0  0.57892  0.27197  0.02554  1.0000
  H   H810      1.0  0.51951  0.26632  0.20456  1.0000
  C   C482      1.0  0.75906  0.38016  0.31688  1.0000
  H   H811      1.0  0.94586  0.29375  0.02259  1.0000
  C   C483      1.0  0.98245  0.24179  0.23704  1.0000
  H   H812      1.0  0.97584  0.13336  0.27039  1.0000
  H   H813      1.0  0.80307  0.06647  0.00461  1.0000
  H   H814      1.0  0.68131  0.08662  0.05456  1.0000
  H   H815      1.0  0.57724  0.37822  0.07056  1.0000
  S   S150      1.0  0.98300  0.14711  0.00369  1.0000
  H   H816      1.0  0.75325  0.15680  0.05327  1.0000
  H   H817      1.0  0.74546  0.14083  0.08637  1.0000
  H   H818      1.0  0.96987  0.31398  0.04722  1.0000
  C   C484      1.0  0.51160  0.99300  0.21643  1.0000
  C   C485      1.0  0.52079  0.12957  0.19784  1.0000
  H   H819      1.0  0.72264  0.42244  0.30547  1.0000
  H   H820      1.0  0.00161  0.42934  0.27833  1.0000
  S   S151      1.0  0.91173  0.98137  0.30234  1.0000
  H   H821      1.0  0.95071  0.40065  0.04990  1.0000
  C   C486      1.0  0.55532  0.27908  0.02164  1.0000
  H   H822      1.0  0.55275  0.31528  0.31633  1.0000
  H   H823      1.0  0.51986  0.12051  0.28068  1.0000
  H   H824      1.0  0.54684  0.23224  0.06895  1.0000
  H   H825      1.0  0.52209  0.30202  0.29583  1.0000
  C   C487      1.0  0.95421  0.32329  0.03108  1.0000
  C   C488      1.0  0.90484  0.99009  0.09273  1.0000
  S   S152      1.0  0.94318  0.04473  0.99957  1.0000
  H   H826      1.0  0.94249  0.18867  0.27246  1.0000
  H   H827      1.0  0.95702  0.01879  0.13837  1.0000
  H   H828      1.0  0.61412  0.13693  0.24231  1.0000
  H   H829      1.0  0.90381  0.09907  0.24388  1.0000
  H   H830      1.0  0.76618  0.43989  0.28536  1.0000
  S   S153      1.0  0.91025  0.47619  0.06448  1.0000
  C   C489      1.0  0.53784  0.14182  0.27426  1.0000
  H   H831      1.0  0.91100  0.15780  0.26618  1.0000
  H   H832      1.0  0.69045  0.25351  0.10324  1.0000
  C   C490      1.0  0.95254  0.12301  0.27018  1.0000
  H   H833      1.0  0.53759  0.14751  0.18657  1.0000
  C   C491      1.0  0.51937  0.44431  0.26029  1.0000
  H   H834      1.0  0.94656  0.11689  0.29182  1.0000
  H   H835      1.0  0.53433  0.06948  0.23933  1.0000
  H   H836      1.0  0.71593  0.09244  0.07032  1.0000
  H   H837      1.0  0.51399  0.32725  0.23011  1.0000
  H   H838      1.0  0.68246  0.10840  0.08775  1.0000
  H   H839      1.0  0.57896  0.03661  0.25698  1.0000
  H   H840      1.0  0.51829  0.38376  0.17969  1.0000
  N   N35       1.0  0.54600  0.13377  0.24497  1.0000
  C   C492      1.0  0.52775  0.18618  0.28102  1.0000
  H   H841      1.0  0.76258  0.23176  0.07921  1.0000
  H   H842      1.0  0.70531  0.16158  0.11151  1.0000
  H   H843      1.0  0.59681  0.15725  0.27264  1.0000
  H   H844      1.0  0.72591  0.23629  0.11547  1.0000
  H   H845      1.0  0.95962  0.05830  0.18688  1.0000
  H   H846      1.0  0.68675  0.23128  0.05204  1.0000
  H   H847      1.0  0.81126  0.38261  0.29010  1.0000
  H   H848      1.0  0.55616  0.13494  0.28830  1.0000
  C   C493      1.0  0.96922  0.41146  0.03712  1.0000
  H   H849      1.0  0.90858  0.06861  0.27374  1.0000
  H   H850      1.0  0.76030  0.36667  0.29613  1.0000
  C   C494      1.0  0.51898  0.14205  0.22812  1.0000
  H   H851      1.0  0.69313  0.22467  0.13390  1.0000
  H   H852      1.0  0.52164  0.28939  0.17264  1.0000
  H   H853      1.0  0.96422  0.25286  0.22503  1.0000
  H   H854      1.0  0.71167  0.37263  0.31651  1.0000
  S   S154      1.0  0.54276  0.06748  0.01109  1.0000
  C   C495      1.0  0.57238  0.06803  0.26386  1.0000
  C   C496      1.0  0.77837  0.44814  0.30414  1.0000
  H   H855      1.0  0.59270  0.08486  0.26888  1.0000
  H   H856      1.0  0.71993  0.24918  0.06555  1.0000
  H   H857      1.0  0.88445  0.02985  0.23849  1.0000
  Fe  Fe75      1.0  0.58503  0.10388  0.00098  1.0000
  C   C497      1.0  0.90836  0.03532  0.23582  1.0000
  H   H858      1.0  0.53810  0.38732  0.21059  1.0000
  H   H859      1.0  0.51318  0.17545  0.22829  1.0000
  H   H860      1.0  0.54444  0.34386  0.18937  1.0000
  H   H861      1.0  0.72358  0.25496  0.01769  1.0000
  C   C498      1.0  0.52683  0.01834  0.00335  1.0000
  N   N36       1.0  0.71290  0.18281  0.07017  1.0000
  C   C499      1.0  0.69642  0.15031  0.05443  1.0000
  C   C500      1.0  0.71029  0.22275  0.05449  1.0000
  C   C501      1.0  0.69820  0.18690  0.09766  1.0000
  C   C502      1.0  0.74427  0.16846  0.07296  1.0000
  C   C503      1.0  0.69416  0.10732  0.06798  1.0000
  C   C504      1.0  0.72441  0.22304  0.02596  1.0000
  C   C505      1.0  0.70258  0.22783  0.11314  1.0000
  C   C506      1.0  0.51169  0.31596  0.03736  1.0000
  H   H862      1.0  0.51443  0.26130  0.07927  1.0000
  H   H863      1.0  0.76732  0.19660  0.10745  1.0000
  H   H864      1.0  0.00440  0.36981  0.05192  1.0000
  H   H865      1.0  0.54852  0.36638  0.01461  1.0000
  H   H866      1.0  0.75136  0.04259  0.00890  1.0000
  H   H867      1.0  0.58261  0.34639  0.02637  1.0000
  H   H868      1.0  0.76396  0.47045  0.31513  1.0000
  H   H869      1.0  0.99390  0.05561  0.20379  1.0000
  C   C507      1.0  0.75590  0.07267  0.00024  1.0000
  C   C508      1.0  0.99767  0.20549  0.22929  1.0000
  C   C509      1.0  0.72771  0.39778  0.32040  1.0000
  H   H870      1.0  0.99389  0.41015  0.07492  1.0000
  C   C510      1.0  0.99914  0.05730  0.27030  1.0000
  H   H871      1.0  0.99368  0.33746  0.00964  1.0000
  H   H872      1.0  0.00020  0.38230  0.24139  1.0000
  C   C511      1.0  0.91299  0.47581  0.10047  1.0000
  C   C512      1.0  0.78531  0.08611  0.99780  1.0000
  C   C513      1.0  0.81197  0.38889  0.31232  1.0000
  H   H873      1.0  0.82145  0.47972  0.30933  1.0000
  C   C514      1.0  0.81902  0.34750  0.32647  1.0000
  N   N37       1.0  0.78403  0.41009  0.32130  1.0000
  H   H874      1.0  0.83146  0.40892  0.31508  1.0000
  H   H875      1.0  0.84087  0.33658  0.31952  1.0000
  H   H876      1.0  0.80330  0.32293  0.32068  1.0000
  Fe  Fe76      1.0  0.90460  0.03676  0.46147  1.0000
  S   S155      1.0  0.89603  0.10522  0.45793  1.0000
  H   H877      1.0  0.66285  0.17350  0.42541  1.0000
  Fe  Fe77      1.0  0.93555  0.11425  0.48519  1.0000
  S   S156      1.0  0.97533  0.15394  0.47208  1.0000
  Fe  Fe78      1.0  0.87008  0.09787  0.49703  1.0000
  S   S157      1.0  0.82654  0.13191  0.50532  1.0000
  S   S158      1.0  0.87600  0.02895  0.49860  1.0000
  Fe  Fe79      1.0  0.60964  0.17297  0.46801  1.0000
  S   S159      1.0  0.61908  0.10641  0.45898  1.0000
  S   S160      1.0  0.61010  0.22909  0.43978  1.0000
  Fe  Fe80      1.0  0.58165  0.09024  0.48722  1.0000
  S   S161      1.0  0.54441  0.04861  0.47176  1.0000
  S   S162      1.0  0.57037  0.15722  0.49343  1.0000
  S   S163      1.0  0.63986  0.17604  0.50407  1.0000
  H   H878      1.0  0.54451  0.09320  0.65270  1.0000
  H   H879      1.0  0.60829  0.31399  0.52628  1.0000
  C   C515      1.0  0.78946  0.11470  0.50250  1.0000
  C   C516      1.0  0.76664  0.14049  0.51192  1.0000
  C   C517      1.0  0.73689  0.12886  0.50938  1.0000
  H   H880      1.0  0.77206  0.16966  0.52135  1.0000
  H   H881      1.0  0.71973  0.14897  0.51695  1.0000
  C   C518      1.0  0.91372  0.47853  0.59720  1.0000
  C   C519      1.0  0.59888  0.19276  0.36110  1.0000
  C   C520      1.0  0.60099  0.19197  0.38966  1.0000
  C   C521      1.0  0.60887  0.22767  0.40378  1.0000
  C   C522      1.0  0.61518  0.26386  0.38903  1.0000
  C   C523      1.0  0.61320  0.26461  0.36045  1.0000
  H   H882      1.0  0.59236  0.16510  0.35037  1.0000
  H   H883      1.0  0.59604  0.16391  0.40074  1.0000
  H   H884      1.0  0.62166  0.29151  0.39976  1.0000
  C   C524      1.0  0.81671  0.42934  0.63756  1.0000
  H   H885      1.0  0.54886  0.25906  0.36295  1.0000
  C   C525      1.0  0.99262  0.41216  0.48391  1.0000
  H   H886      1.0  0.67909  0.13677  0.37984  1.0000
  C   C526      1.0  0.58222  0.33978  0.47466  1.0000
  H   H887      1.0  0.93858  0.43831  0.34615  1.0000
  C   C527      1.0  0.53069  0.98965  0.51147  1.0000
  H   H888      1.0  0.72378  0.17498  0.38273  1.0000
  C   C528      1.0  0.91304  0.01829  0.35254  1.0000
  H   H889      1.0  0.80880  0.45161  0.38319  1.0000
  C   C529      1.0  0.54519  0.33958  0.37103  1.0000
  Fe  Fe81      1.0  0.91652  0.04192  0.52302  1.0000
  S   S164      1.0  0.90935  0.11094  0.52423  1.0000
  H   H890      1.0  0.76945  0.14952  0.44954  1.0000
  S   S165      1.0  0.94531  0.04602  0.48598  1.0000
  Fe  Fe82      1.0  0.60101  0.15547  0.52920  1.0000
  S   S166      1.0  0.61040  0.08714  0.52436  1.0000
  S   S167      1.0  0.57962  0.18976  0.56487  1.0000
  Fe  Fe83      1.0  0.64753  0.10824  0.49653  1.0000
  S   S168      1.0  0.69228  0.07626  0.49123  1.0000
  H   H891      1.0  0.78447  0.39237  0.36376  1.0000
  C   C530      1.0  0.84162  0.45220  0.62251  1.0000
  H   H892      1.0  0.52029  0.15813  0.64905  1.0000
  H   H893      1.0  0.91761  0.04640  0.34142  1.0000
  C   C531      1.0  0.53225  0.26770  0.46474  1.0000
  H   H894      1.0  0.70161  0.25372  0.44150  1.0000
  H   H895      1.0  0.54974  0.24391  0.46408  1.0000
  C   C532      1.0  0.68001  0.14937  0.42415  1.0000
  C   C533      1.0  0.72946  0.09146  0.49693  1.0000
  C   C534      1.0  0.75229  0.06552  0.48772  1.0000
  C   C535      1.0  0.78206  0.07696  0.49049  1.0000
  H   H896      1.0  0.74693  0.03644  0.47814  1.0000
  H   H897      1.0  0.79927  0.05677  0.48310  1.0000
  N   N38       1.0  0.51931  0.31140  0.36687  1.0000
  C   C536      1.0  0.59351  0.24690  0.63747  1.0000
  C   C537      1.0  0.58153  0.23453  0.61234  1.0000
  C   C538      1.0  0.59670  0.20690  0.59520  1.0000
  C   C539      1.0  0.62413  0.19206  0.60329  1.0000
  C   C540      1.0  0.63586  0.20389  0.62856  1.0000
  C   C541      1.0  0.92171  0.98742  0.64623  1.0000
  H   H898      1.0  0.56024  0.24610  0.60631  1.0000
  H   H899      1.0  0.63599  0.17065  0.59041  1.0000
  H   H900      1.0  0.58311  0.31061  0.46310  1.0000
  H   H901      1.0  0.86665  0.38265  0.63972  1.0000
  C   C542      1.0  0.92664  0.45864  0.35971  1.0000
  H   H902      1.0  0.78890  0.36039  0.65581  1.0000
  H   H903      1.0  0.83212  0.43231  0.35709  1.0000
  C   C543      1.0  0.91694  0.44103  0.61141  1.0000
  C   C544      1.0  0.92048  0.44049  0.63988  1.0000
  C   C545      1.0  0.52854  0.26802  0.37406  1.0000
  H   H904      1.0  0.56449  0.32827  0.35923  1.0000
  H   H905      1.0  0.91674  0.41219  0.60031  1.0000
  C   C546      1.0  0.90598  0.98323  0.39582  1.0000
  H   H906      1.0  0.99505  0.03755  0.52833  1.0000
  C   C547      1.0  0.71487  0.18991  0.45102  1.0000
  H   H907      1.0  0.70016  0.24038  0.47654  1.0000
  H   H908      1.0  0.59370  0.28094  0.55283  1.0000
  C   C548      1.0  0.76445  0.14097  0.42822  1.0000
  N   N39       1.0  0.71060  0.16704  0.42464  1.0000
  C   C549      1.0  0.69578  0.22850  0.45577  1.0000
  H   H909      1.0  0.64855  0.11709  0.39872  1.0000
  C   C550      1.0  0.73161  0.13078  0.42448  1.0000
  C   C551      1.0  0.81059  0.44731  0.36085  1.0000
  H   H910      1.0  0.91066  0.05359  0.59278  1.0000
  H   H911      1.0  0.77213  0.16549  0.41419  1.0000
  H   H912      1.0  0.68154  0.20917  0.37194  1.0000
  H   H913      1.0  0.71079  0.16874  0.46842  1.0000
  H   H914      1.0  0.56970  0.36084  0.51426  1.0000
  C   C552      1.0  0.91170  0.01938  0.38116  1.0000
  C   C553      1.0  0.52559  0.44571  0.47096  1.0000
  H   H915      1.0  0.58154  0.26786  0.65056  1.0000
  H   H916      1.0  0.94562  0.30039  0.47507  1.0000
  C   C554      1.0  0.89949  0.47479  0.35175  1.0000
  H   H917      1.0  0.80104  0.45319  0.64454  1.0000
  H   H918      1.0  0.98791  0.46000  0.65867  1.0000
  H   H919      1.0  0.51215  0.36470  0.52949  1.0000
  C   C555      1.0  0.99667  0.99816  0.34447  1.0000
  H   H920      1.0  0.51720  0.18610  0.52874  1.0000
  H   H921      1.0  0.51541  0.25525  0.50474  1.0000
  H   H922      1.0  0.55469  0.32391  0.55127  1.0000
  H   H923      1.0  0.54029  0.35942  0.49091  1.0000
  C   C556      1.0  0.00092  0.25745  0.51428  1.0000
  H   H924      1.0  0.91518  0.04812  0.39189  1.0000
  H   H925      1.0  0.73783  0.20095  0.45311  1.0000
  H   H926      1.0  0.51169  0.10879  0.51077  1.0000
  H   H927      1.0  0.58001  0.14094  0.63246  1.0000
  C   C557      1.0  0.60481  0.22907  0.34635  1.0000
  C   C558      1.0  0.71726  0.19434  0.40049  1.0000
  H   H928      1.0  0.67201  0.22179  0.45503  1.0000
  C   C559      1.0  0.91399  0.02351  0.63199  1.0000
  H   H929      1.0  0.55191  0.18743  0.65338  1.0000
  H   H930      1.0  0.00620  0.14407  0.53228  1.0000
  H   H931      1.0  0.53804  0.42303  0.45964  1.0000
  H   H932      1.0  0.72562  0.10806  0.44060  1.0000
  H   H933      1.0  0.61798  0.29268  0.34933  1.0000
  H   H934      1.0  0.95946  0.45643  0.39124  1.0000
  H   H935      1.0  0.70153  0.25247  0.38337  1.0000
  H   H936      1.0  0.65684  0.19150  0.63488  1.0000
  H   H937      1.0  0.59659  0.09233  0.63932  1.0000
  H   H938      1.0  0.54760  0.00357  0.52380  1.0000
  C   C560      1.0  0.91647  0.02552  0.60346  1.0000
  C   C561      1.0  0.67265  0.12224  0.39933  1.0000
  H   H939      1.0  0.53765  0.29415  0.45139  1.0000
  H   H940      1.0  0.92334  0.41147  0.65048  1.0000
  H   H941      1.0  0.73020  0.11348  0.40500  1.0000
  C   C562      1.0  0.99368  0.19986  0.48303  1.0000
  H   H942      1.0  0.57001  0.31726  0.40655  1.0000
  N   N40       1.0  0.96353  0.39978  0.49634  1.0000
  C   C563      1.0  0.96245  0.41675  0.52495  1.0000
  C   C564      1.0  0.93856  0.41935  0.48091  1.0000
  H   H943      1.0  0.60480  0.13488  0.66093  1.0000
  C   C565      1.0  0.96083  0.35344  0.49815  1.0000
  C   C566      1.0  0.62064  0.23118  0.64586  1.0000
  C   C567      1.0  0.90743  0.40903  0.49124  1.0000
  H   H944      1.0  0.56920  0.37282  0.40231  1.0000
  H   H945      1.0  0.68304  0.09130  0.40105  1.0000
  H   H946      1.0  0.96063  0.45112  0.52465  1.0000
  H   H947      1.0  0.94261  0.40562  0.53598  1.0000
  H   H948      1.0  0.93888  0.41115  0.45906  1.0000
  H   H949      1.0  0.57699  0.36454  0.45981  1.0000
  C   C568      1.0  0.51000  0.33503  0.54061  1.0000
  C   C569      1.0  0.69210  0.22259  0.39022  1.0000
  H   H950      1.0  0.87348  0.31494  0.65612  1.0000
  H   H951      1.0  0.94237  0.34398  0.51168  1.0000
  H   H952      1.0  0.77767  0.11279  0.42395  1.0000
  C   C570      1.0  0.98882  0.40602  0.54338  1.0000
  H   H953      1.0  0.98889  0.38307  0.44316  1.0000
  H   H954      1.0  0.90305  0.37537  0.49090  1.0000
  H   H955      1.0  0.90320  0.42169  0.51181  1.0000
  H   H956      1.0  0.89120  0.42390  0.47753  1.0000
  C   C571      1.0  0.92720  0.99159  0.58892  1.0000
  C   C572      1.0  0.95821  0.32925  0.47130  1.0000
  H   H957      1.0  0.98026  0.32034  0.46351  1.0000
  C   C573      1.0  0.98535  0.22166  0.50637  1.0000
  H   H958      1.0  0.99149  0.37226  0.54629  1.0000
  H   H959      1.0  0.90613  0.05020  0.64308  1.0000
  C   C574      1.0  0.78462  0.42089  0.35112  1.0000
  H   H960      1.0  0.94079  0.45361  0.48124  1.0000
  C   C575      1.0  0.59998  0.28267  0.53104  1.0000
  H   H961      1.0  0.53458  0.26594  0.39592  1.0000
  C   C576      1.0  0.55617  0.34396  0.40056  1.0000
  H   H962      1.0  0.00718  0.01414  0.48113  1.0000
  H   H963      1.0  0.67499  0.23024  0.40535  1.0000
  H   H964      1.0  0.96697  0.21087  0.51840  1.0000
  H   H965      1.0  0.72360  0.40913  0.34130  1.0000
  H   H966      1.0  0.98031  0.34022  0.50843  1.0000
  H   H967      1.0  0.80420  0.41166  0.62200  1.0000
  H   H968      1.0  0.00777  0.01007  0.55662  1.0000
  C   C577      1.0  0.99496  0.41271  0.45263  1.0000
  H   H969      1.0  0.73656  0.21433  0.40484  1.0000
  H   H970      1.0  0.67638  0.13001  0.44257  1.0000
  N   N41       1.0  0.54969  0.30067  0.51009  1.0000
  C   C578      1.0  0.53800  0.30818  0.53848  1.0000
  C   C579      1.0  0.57436  0.26977  0.51247  1.0000
  C   C580      1.0  0.52500  0.28220  0.49376  1.0000
  C   C581      1.0  0.55952  0.34141  0.49817  1.0000
  S   S169      1.0  0.93264  0.99325  0.55323  1.0000
  H   H971      1.0  0.60453  0.34713  0.48227  1.0000
  C   C582      1.0  0.92116  0.47759  0.65440  1.0000
  H   H972      1.0  0.61845  0.26060  0.52826  1.0000
  H   H973      1.0  0.53324  0.27829  0.54895  1.0000
  H   H974      1.0  0.83522  0.35421  0.62952  1.0000
  H   H975      1.0  0.58418  0.26178  0.49258  1.0000
  H   H976      1.0  0.56572  0.23993  0.52030  1.0000
  H   H977      1.0  0.94591  0.34568  0.45530  1.0000
  H   H978      1.0  0.53823  0.34759  0.41556  1.0000
  C   C583      1.0  0.52499  0.00548  0.48556  1.0000
  C   C584      1.0  0.84600  0.36852  0.64751  1.0000
  H   H979      1.0  0.98483  0.41950  0.56382  1.0000
  H   H980      1.0  0.85718  0.46722  0.63661  1.0000
  H   H981      1.0  0.85379  0.43113  0.60869  1.0000
  H   H982      1.0  0.98163  0.43802  0.44377  1.0000
  H   H983      1.0  0.99861  0.44403  0.49036  1.0000
  S   S170      1.0  0.90913  0.47726  0.56141  1.0000
  C   C585      1.0  0.50985  0.31446  0.33759  1.0000
  C   C586      1.0  0.58697  0.12015  0.64915  1.0000
  H   H984      1.0  0.82022  0.35057  0.34884  1.0000
  H   H985      1.0  0.76446  0.43811  0.35705  1.0000
  H   H986      1.0  0.83211  0.47686  0.60950  1.0000
  H   H987      1.0  0.00642  0.08723  0.50228  1.0000
  C   C587      1.0  0.93841  0.46896  0.38532  1.0000
  H   H988      1.0  0.97802  0.01889  0.34970  1.0000
  H   H989      1.0  0.82227  0.02233  0.64762  1.0000
  H   H990      1.0  0.99427  0.27374  0.53247  1.0000
  H   H991      1.0  0.54130  0.37100  0.36246  1.0000
  H   H992      1.0  0.51509  0.20363  0.37426  1.0000
  N   N42       1.0  0.82635  0.40096  0.66021  1.0000
  H   H993      1.0  0.51235  0.25323  0.45594  1.0000
  C   C588      1.0  0.90848  0.98121  0.33828  1.0000
  S   S171      1.0  0.90490  0.98231  0.43185  1.0000
  H   H994      1.0  0.81020  0.47860  0.35181  1.0000
  H   H995      1.0  0.76053  0.35344  0.33105  1.0000
  Fe  Fe84      1.0  0.91115  0.43200  0.78430  1.0000
  S   S172      1.0  0.90520  0.36294  0.78716  1.0000
  H   H996      1.0  0.55119  0.14736  0.85828  1.0000
  Fe  Fe85      1.0  0.92004  0.42930  0.72201  1.0000
  S   S173      1.0  0.91559  0.36000  0.72035  1.0000
  H   H997      1.0  0.81756  0.00707  0.97099  1.0000
  Fe  Fe86      1.0  0.87726  0.36940  0.74944  1.0000
  S   S174      1.0  0.83439  0.33453  0.74078  1.0000
  Fe  Fe87      1.0  0.94383  0.35797  0.75805  1.0000
  S   S175      1.0  0.98472  0.31905  0.76931  1.0000
  S   S176      1.0  0.88051  0.43844  0.74873  1.0000
  S   S177      1.0  0.95091  0.42713  0.75749  1.0000
  Fe  Fe88      1.0  0.59094  0.36118  0.73818  1.0000
  S   S178      1.0  0.58303  0.29210  0.73610  1.0000
  S   S179      1.0  0.55334  0.40450  0.72481  1.0000
  Fe  Fe89      1.0  0.65680  0.34901  0.74997  1.0000
  S   S180      1.0  0.65296  0.28023  0.74848  1.0000
  S   S181      1.0  0.69940  0.38306  0.76071  1.0000
  Fe  Fe90      1.0  0.62463  0.28902  0.71154  1.0000
  S   S182      1.0  0.63575  0.24222  0.67826  1.0000
  Fe  Fe91      1.0  0.61178  0.28764  0.77324  1.0000
  S   S183      1.0  0.60398  0.23521  0.80378  1.0000
  S   S184      1.0  0.63133  0.35799  0.71121  1.0000
  S   S185      1.0  0.61681  0.35676  0.77725  1.0000
  Fe  Fe92      1.0  0.91202  0.04221  0.96439  1.0000
  S   S186      1.0  0.90974  0.11135  0.95975  1.0000
  H   H998      1.0  0.79019  0.11619  0.92372  1.0000
  H   H999      1.0  0.78042  0.29323  0.72807  1.0000
  C   C589      1.0  0.77618  0.40641  0.68522  1.0000
  H   H1000     1.0  0.72779  0.31123  0.73476  1.0000
  C   C590      1.0  0.91747  0.02630  0.88364  1.0000
  H   H1001     1.0  0.71481  0.28598  0.86811  1.0000
  Fe  Fe93      1.0  0.61026  0.17458  0.96555  1.0000
  S   S187      1.0  0.61470  0.10499  0.96390  1.0000
  S   S188      1.0  0.60188  0.22481  0.93356  1.0000
  H   H1002     1.0  0.75338  0.42458  0.77310  1.0000
  H   H1003     1.0  0.51854  0.09785  0.81358  1.0000
  H   H1004     1.0  0.56830  0.08085  0.68012  1.0000
  S   S189      1.0  0.87255  0.03881  0.99153  1.0000
  H   H1005     1.0  0.80604  0.40678  0.76612  1.0000
  C   C591      1.0  0.77461  0.32196  0.73797  1.0000
  C   C592      1.0  0.74469  0.33208  0.74175  1.0000
  H   H1006     1.0  0.84411  0.43857  0.93085  1.0000
  H   H1007     1.0  0.00509  0.20058  0.70773  1.0000
  H   H1008     1.0  0.91689  0.05387  0.84366  1.0000
  H   H1009     1.0  0.84484  0.44384  0.96678  1.0000
  C   C593      1.0  0.53283  0.44665  0.73873  1.0000
  C   C594      1.0  0.00051  0.05802  0.75795  1.0000
  C   C595      1.0  0.57046  0.15900  0.70169  1.0000
  H   H1010     1.0  0.86680  0.42611  0.67624  1.0000
  H   H1011     1.0  0.95905  0.17411  0.76078  1.0000
  C   C596      1.0  0.60538  0.23344  0.83988  1.0000
  C   C597      1.0  0.60836  0.19485  0.85284  1.0000
  C   C598      1.0  0.60798  0.19157  0.88145  1.0000
  C   C599      1.0  0.60423  0.22690  0.89746  1.0000
  C   C600      1.0  0.60135  0.26547  0.88445  1.0000
  C   C601      1.0  0.60203  0.26880  0.85587  1.0000
  H   H1012     1.0  0.61094  0.16726  0.84068  1.0000
  H   H1013     1.0  0.61017  0.16169  0.89112  1.0000
  H   H1014     1.0  0.59819  0.29298  0.89662  1.0000
  H   H1015     1.0  0.59907  0.29855  0.84624  1.0000
  H   H1016     1.0  0.52617  0.15266  0.90197  1.0000
  C   C602      1.0  0.66652  0.33743  0.84392  1.0000
  H   H1017     1.0  0.84178  0.45095  0.87606  1.0000
  H   H1018     1.0  0.96988  0.01773  0.71716  1.0000
  C   C603      1.0  0.00026  0.05786  0.78931  1.0000
  S   S190      1.0  0.91075  0.98830  0.80508  1.0000
  C   C604      1.0  0.79986  0.37914  0.67182  1.0000
  C   C605      1.0  0.91607  0.02526  0.85502  1.0000
  H   H1019     1.0  0.86443  0.34393  0.68583  1.0000
  C   C606      1.0  0.93349  0.45118  0.89183  1.0000
  C   C607      1.0  0.92698  0.44946  0.86386  1.0000
  H   H1020     1.0  0.98643  0.01116  0.95155  1.0000
  H   H1021     1.0  0.57040  0.11670  0.82169  1.0000
  H   H1022     1.0  0.94024  0.42334  0.90229  1.0000
  H   H1023     1.0  0.92865  0.42048  0.85299  1.0000
  C   C608      1.0  0.79704  0.34872  0.74667  1.0000
  C   C609      1.0  0.78912  0.38582  0.75932  1.0000
  C   C610      1.0  0.75920  0.39586  0.76321  1.0000
  C   C611      1.0  0.73676  0.36916  0.75443  1.0000
  C   C612      1.0  0.81093  0.02535  0.88585  1.0000
  C   C613      1.0  0.00181  0.26287  0.97353  1.0000
  H   H1024     1.0  0.84364  0.40362  0.70109  1.0000
  H   H1025     1.0  0.76231  0.02983  0.91758  1.0000
  C   C614      1.0  0.73240  0.09771  0.99160  1.0000
  H   H1026     1.0  0.78126  0.98727  0.96407  1.0000
  C   C615      1.0  0.51218  0.46703  0.72216  1.0000
  H   H1027     1.0  0.55138  0.44420  0.77880  1.0000
  H   H1028     1.0  0.67116  0.25414  0.87696  1.0000
  C   C616      1.0  0.52445  0.20251  0.82677  1.0000
  C   C617      1.0  0.80499  0.98401  0.95928  1.0000
  C   C618      1.0  0.52487  0.13037  0.80921  1.0000
  H   H1029     1.0  0.91285  0.05097  0.72602  1.0000
  H   H1030     1.0  0.81470  0.01735  0.68383  1.0000
  C   C619      1.0  0.96917  0.14388  0.76604  1.0000
  H   H1031     1.0  0.72100  0.15592  0.97340  1.0000
  H   H1032     1.0  0.52982  0.20433  0.78208  1.0000
  C   C620      1.0  0.98699  0.22549  0.97939  1.0000
  H   H1033     1.0  0.77580  0.09633  0.89170  1.0000
  H   H1034     1.0  0.54844  0.20535  0.83021  1.0000
  H   H1035     1.0  0.55991  0.99861  0.97489  1.0000
  H   H1036     1.0  0.52292  0.11033  0.86109  1.0000
  H   H1037     1.0  0.94024  0.39863  0.97325  1.0000
  H   H1038     1.0  0.69233  0.20936  0.87084  1.0000
  H   H1039     1.0  0.94047  0.44334  0.99426  1.0000
  C   C621      1.0  0.91350  0.98753  0.84101  1.0000
  C   C622      1.0  0.76811  0.14991  0.97798  1.0000
  H   H1040     1.0  0.51356  0.14176  0.71633  1.0000
  C   C623      1.0  0.99106  0.03246  0.93442  1.0000
  Fe  Fe94      1.0  0.65202  0.11411  0.99389  1.0000
  H   H1041     1.0  0.79119  0.00837  0.87859  1.0000
  H   H1042     1.0  0.95424  0.12722  0.72574  1.0000
  C   C624      1.0  0.77506  0.09375  0.91412  1.0000
  C   C625      1.0  0.53404  0.45882  0.98942  1.0000
  C   C626      1.0  0.99545  0.25194  0.73440  1.0000
  H   H1043     1.0  0.52957  0.29323  0.98454  1.0000
  H   H1044     1.0  0.64271  0.34403  0.84180  1.0000
  N   N43       1.0  0.97270  0.07123  0.74364  1.0000
  C   C627      1.0  0.52339  0.12007  0.70145  1.0000
  H   H1045     1.0  0.52108  0.33382  0.73937  1.0000
  N   N44       1.0  0.51440  0.15873  0.83153  1.0000
  C   C628      1.0  0.00056  0.05937  0.69816  1.0000
  H   H1046     1.0  0.52576  0.25321  0.79808  1.0000
  C   C629      1.0  0.84689  0.46136  0.94744  1.0000
  H   H1047     1.0  0.78455  0.42161  0.70380  1.0000
  H   H1048     1.0  0.95404  0.06326  0.70333  1.0000
  H   H1049     1.0  0.00788  0.42790  0.78154  1.0000
  H   H1050     1.0  0.56611  0.31529  0.98458  1.0000
  C   C630      1.0  0.94611  0.05496  0.75853  1.0000
  H   H1051     1.0  0.58687  0.13505  0.70765  1.0000
  H   H1052     1.0  0.51393  0.13794  0.78964  1.0000
  H   H1053     1.0  0.54240  0.02546  0.77589  1.0000
  C   C631      1.0  0.78093  0.04958  0.92434  1.0000
  C   C632      1.0  0.91609  0.06587  0.74604  1.0000
  H   H1054     1.0  0.99259  0.36797  0.95854  1.0000
  C   C633      1.0  0.84330  0.42277  0.68228  1.0000
  H   H1055     1.0  0.99160  0.28523  0.96024  1.0000
  H   H1056     1.0  0.00639  0.02577  0.75224  1.0000
  H   H1057     1.0  0.77270  0.17979  0.96907  1.0000
  H   H1058     1.0  0.80642  0.35694  0.68793  1.0000
  H   H1059     1.0  0.75781  0.38628  0.69203  1.0000
  H   H1060     1.0  0.54373  0.20309  0.72600  1.0000
  C   C634      1.0  0.83283  0.46664  0.69046  1.0000
  H   H1061     1.0  0.50967  0.45742  0.70124  1.0000
  H   H1062     1.0  0.85855  0.01431  0.88347  1.0000
  H   H1063     1.0  0.67014  0.32556  0.86475  1.0000
  H   H1064     1.0  0.98605  0.03279  0.79742  1.0000
  H   H1065     1.0  0.67799  0.36739  0.84123  1.0000
  H   H1066     1.0  0.51488  0.21498  0.98189  1.0000
  C   C635      1.0  0.81077  0.98721  0.92840  1.0000
  H   H1067     1.0  0.97759  0.26341  0.72208  1.0000
  N   N45       1.0  0.54670  0.14037  0.68411  1.0000
  H   H1068     1.0  0.84949  0.03510  0.67216  1.0000
  H   H1069     1.0  0.51407  0.22389  0.84170  1.0000
  C   C636      1.0  0.73873  0.13654  0.98053  1.0000
  C   C637      1.0  0.83536  0.05460  0.92750  1.0000
  H   H1070     1.0  0.89851  0.05370  0.75956  1.0000
  C   C638      1.0  0.85568  0.33276  0.66625  1.0000
  C   C639      1.0  0.53179  0.00643  0.76079  1.0000
  C   C640      1.0  0.84618  0.09203  0.91060  1.0000
  S   S191      1.0  0.82834  0.14238  0.98127  1.0000
  C   C641      1.0  0.83804  0.00230  0.87468  1.0000
  H   H1071     1.0  0.56722  0.16022  0.79872  1.0000
  S   S192      1.0  0.91635  0.98883  0.93451  1.0000
  H   H1072     1.0  0.83308  0.46933  0.71295  1.0000
  H   H1073     1.0  0.94735  0.02067  0.76005  1.0000
  H   H1074     1.0  0.83010  0.06604  0.94827  1.0000
  H   H1075     1.0  0.85493  0.03418  0.92992  1.0000
  H   H1076     1.0  0.52257  0.19984  0.88369  1.0000
  H   H1077     1.0  0.83947  0.00649  0.85229  1.0000
  H   H1078     1.0  0.98020  0.41997  0.95083  1.0000
  C   C642      1.0  0.91605  0.98951  0.89850  1.0000
  H   H1079     1.0  0.53330  0.09511  0.71412  1.0000
  H   H1080     1.0  0.80995  0.05535  0.87513  1.0000
  C   C643      1.0  0.53959  0.99052  0.98500  1.0000
  H   H1081     1.0  0.56288  0.10871  0.78661  1.0000
  H   H1082     1.0  0.96949  0.04037  0.92533  1.0000
  H   H1083     1.0  0.85243  0.11726  0.92474  1.0000
  H   H1084     1.0  0.83010  0.10556  0.89647  1.0000
  H   H1085     1.0  0.86661  0.08408  0.89937  1.0000
  H   H1086     1.0  0.77887  0.05183  0.94675  1.0000
  H   H1087     1.0  0.58017  0.19467  0.73797  1.0000
  H   H1088     1.0  0.99209  0.12839  0.72991  1.0000
  H   H1089     1.0  0.53179  0.23322  0.68467  1.0000
  Fe  Fe95      1.0  0.87150  0.10765  0.98954  1.0000
  N   N46       1.0  0.70625  0.28818  0.82495  1.0000
  C   C644      1.0  0.72749  0.32406  0.82481  1.0000
  C   C645      1.0  0.67585  0.30613  0.82189  1.0000
  C   C646      1.0  0.71309  0.26165  0.80052  1.0000
  C   C647      1.0  0.71015  0.26429  0.85109  1.0000
  C   C648      1.0  0.76045  0.31312  0.82318  1.0000
  C   C649      1.0  0.69426  0.22264  0.79669  1.0000
  C   C650      1.0  0.68386  0.23779  0.86091  1.0000
  H   H1090     1.0  0.72287  0.34524  0.80756  1.0000
  H   H1091     1.0  0.72477  0.34327  0.84339  1.0000
  H   H1092     1.0  0.65867  0.28208  0.82126  1.0000
  H   H1093     1.0  0.67390  0.32224  0.80195  1.0000
  H   H1094     1.0  0.71142  0.28041  0.78155  1.0000
  H   H1095     1.0  0.73601  0.24994  0.80116  1.0000
  H   H1096     1.0  0.72968  0.24364  0.84962  1.0000
  H   H1097     1.0  0.76684  0.30349  0.80231  1.0000
  H   H1098     1.0  0.77356  0.34122  0.82764  1.0000
  H   H1099     1.0  0.76679  0.28903  0.83807  1.0000
  H   H1100     1.0  0.67043  0.22916  0.79610  1.0000
  H   H1101     1.0  0.69916  0.19915  0.81245  1.0000
  H   H1102     1.0  0.69995  0.20841  0.77681  1.0000
  H   H1103     1.0  0.66875  0.22739  0.84488  1.0000
  H   H1104     1.0  0.99777  0.04339  0.67836  1.0000
  S   S193      1.0  0.64911  0.18316  0.99312  1.0000
  N   N47       1.0  0.80985  0.03020  0.91634  1.0000
  C   C651      1.0  0.99598  0.40124  0.96276  1.0000
  C   C652      1.0  0.56064  0.10684  0.66700  1.0000
  C   C653      1.0  0.56086  0.17926  0.72868  1.0000
  H   H1105     1.0  0.55326  0.15568  0.74349  1.0000
  C   C654      1.0  0.51588  0.16690  0.88378  1.0000
  H   H1106     1.0  0.91941  0.05549  0.89415  1.0000
  H   H1107     1.0  0.75259  0.10303  0.92058  1.0000
  C   C655      1.0  0.79164  0.12470  0.98636  1.0000
  C   C656      1.0  0.97177  0.11748  0.74010  1.0000
  H   H1108     1.0  0.91273  0.09969  0.74444  1.0000
  H   H1109     1.0  0.56113  0.26154  0.97923  1.0000
  C   C657      1.0  0.99425  0.41136  0.99340  1.0000
  C   C658      1.0  0.97281  0.05189  0.71568  1.0000
  H   H1110     1.0  0.95453  0.13056  0.78167  1.0000
  H   H1111     1.0  0.99174  0.08660  0.96001  1.0000
  C   C659      1.0  0.55829  0.12949  0.80409  1.0000
  H   H1112     1.0  0.94514  0.06562  0.77990  1.0000
  S   S194      1.0  0.91851  0.98719  0.68219  1.0000
  C   C660      1.0  0.53574  0.45953  0.76572  1.0000
  H   H1113     1.0  0.52176  0.31035  0.69748  1.0000
  C   C661      1.0  0.00303  0.27285  0.75825  1.0000
  H   H1114     1.0  0.96565  0.21953  0.97070  1.0000
  H   H1115     1.0  0.99118  0.14986  0.77486  1.0000
  C   C662      1.0  0.51791  0.22078  0.79848  1.0000
  C   C663      1.0  0.52688  0.14398  0.85817  1.0000
  H   H1116     1.0  0.54830  0.43232  0.98706  1.0000
  H   H1117     1.0  0.86942  0.47413  0.94711  1.0000
  H   H1118     1.0  0.96227  0.33512  0.98843  1.0000
  C   C664      1.0  0.51678  0.20812  0.67820  1.0000
  H   H1119     1.0  0.00391  0.09256  0.69351  1.0000
  H   H1120     1.0  0.83749  0.31072  0.67013  1.0000
  H   H1121     1.0  0.99345  0.08774  0.79814  1.0000
  C   C665      1.0  0.00592  0.07269  0.94392  1.0000
  S   S195      1.0  0.69577  0.07856  0.99423  1.0000
  H   H1122     1.0  0.58317  0.18271  0.69015  1.0000
  H   H1123     1.0  0.76655  0.42931  0.67111  1.0000
  C   C666      1.0  0.55264  0.28842  0.99090  1.0000
  S   S196      1.0  0.92815  0.47910  0.68983  1.0000
  H   H1124     1.0  0.00391  0.01630  0.91847  1.0000
  H   H1125     1.0  0.52967  0.33076  0.78772  1.0000
  H   H1126     1.0  0.00615  0.44024  0.71859  1.0000
  H   H1127     1.0  0.00420  0.09459  0.92671  1.0000
  C   C667      1.0  0.53409  0.17234  0.66516  1.0000
  C   C668      1.0  0.99998  0.19576  0.99619  1.0000
  Fe  Fe96      1.0  0.93850  0.11435  0.99714  1.0000
  C   C669      1.0  0.83138  0.01321  0.66760  1.0000
  C   C670      1.0  0.94083  0.40891  0.99479  1.0000
  H   H1128     1.0  0.81040  0.47512  0.68421  1.0000
  H   H1129     1.0  0.99482  0.44562  0.99534  1.0000
  H   H1130     1.0  0.50916  0.28612  0.75328  1.0000
  H   H1131     1.0  0.89333  0.41065  0.99589  1.0000
  H   H1132     1.0  0.80273  0.47792  0.89837  1.0000
  H   H1133     1.0  0.86627  0.47829  0.89731  1.0000
  H   H1134     1.0  0.80185  0.47708  0.94705  1.0000
  Fe  Fe97      1.0  0.90640  0.92707  0.27316  1.0000
  S   S197      1.0  0.90050  0.85838  0.27817  1.0000
  H   H1135     1.0  0.54161  0.71816  0.28530  1.0000
  Fe  Fe98      1.0  0.91575  0.91997  0.21099  1.0000
  S   S198      1.0  0.90995  0.85078  0.21134  1.0000
  H   H1136     1.0  0.97584  0.94251  0.09182  1.0000
  Fe  Fe99      1.0  0.87202  0.86377  0.24049  1.0000
  S   S199      1.0  0.82906  0.82656  0.23817  1.0000
  Fe  Fe100     1.0  0.93836  0.84971  0.24871  1.0000
  S   S200      1.0  0.98300  0.81782  0.25563  1.0000
  S   S201      1.0  0.87615  0.93307  0.23723  1.0000
  S   S202      1.0  0.94587  0.91811  0.24681  1.0000
  Fe  Fe101     1.0  0.58579  0.86476  0.24991  1.0000
  S   S203      1.0  0.57553  0.79682  0.24732  1.0000
  S   S204      1.0  0.54885  0.90628  0.26664  1.0000
  Fe  Fe102     1.0  0.65072  0.84907  0.23486  1.0000
  S   S205      1.0  0.64429  0.78052  0.23085  1.0000
  S   S206      1.0  0.69430  0.88396  0.23067  1.0000
  Fe  Fe103     1.0  0.60258  0.79653  0.20889  1.0000
  S   S207      1.0  0.58215  0.75667  0.17561  1.0000
  Fe  Fe104     1.0  0.61771  0.78564  0.26947  1.0000
  S   S208      1.0  0.62500  0.73284  0.29954  1.0000
  S   S209      1.0  0.61032  0.86544  0.21001  1.0000
  S   S210      1.0  0.62662  0.85329  0.27496  1.0000
  Fe  Fe105     1.0  0.91115  0.53044  0.03490  1.0000
  S   S211      1.0  0.90415  0.59919  0.03858  1.0000
  C   C671      1.0  0.98914  0.89476  0.01028  1.0000
  H   H1137     1.0  0.00353  0.56172  0.27634  1.0000
  Fe  Fe106     1.0  0.62469  0.68097  0.02315  1.0000
  S   S212      1.0  0.62512  0.61155  0.02447  1.0000
  S   S213      1.0  0.63521  0.72675  0.05699  1.0000
  H   H1138     1.0  0.77530  0.78130  0.23176  1.0000
  H   H1139     1.0  0.54548  0.57150  0.26703  1.0000
  C   C672      1.0  0.00179  0.64476  0.09912  1.0000
  N   N48       1.0  0.57473  0.85354  0.03509  1.0000
  H   H1140     1.0  0.53881  0.64633  0.04225  1.0000
  C   C673      1.0  0.93049  0.53853  0.28250  1.0000
  H   H1141     1.0  0.80379  0.55255  0.00919  1.0000
  H   H1142     1.0  0.94796  0.93976  0.04586  1.0000
  C   C674      1.0  0.54123  0.91328  0.05181  1.0000
  C   C675      1.0  0.99225  0.55768  0.09313  1.0000
  H   H1143     1.0  0.72280  0.80219  0.22829  1.0000
  H   H1144     1.0  0.98769  0.88663  0.29459  1.0000
  N   N49       1.0  0.00635  0.92359  0.32719  1.0000
  C   C676      1.0  0.58146  0.67446  0.25354  1.0000
  C   C677      1.0  0.89973  0.95193  0.13551  1.0000
  C   C678      1.0  0.52719  0.94747  0.25316  1.0000
  H   H1145     1.0  0.56144  0.86628  0.07664  1.0000
  H   H1146     1.0  0.93595  0.54764  0.22792  1.0000
  H   H1147     1.0  0.99244  0.50989  0.27163  1.0000
  C   C679      1.0  0.91904  0.51154  0.11537  1.0000
  C   C680      1.0  0.59747  0.74799  0.14288  1.0000
  C   C681      1.0  0.62206  0.76972  0.13370  1.0000
  C   C682      1.0  0.63326  0.76264  0.10740  1.0000
  C   C683      1.0  0.62027  0.73346  0.09006  1.0000
  C   C684      1.0  0.59580  0.71142  0.09924  1.0000
  C   C685      1.0  0.58434  0.71888  0.12548  1.0000
  H   H1148     1.0  0.63235  0.79221  0.14683  1.0000
  H   H1149     1.0  0.65225  0.77981  0.10057  1.0000
  H   H1150     1.0  0.58573  0.68875  0.08616  1.0000
  H   H1151     1.0  0.56530  0.70191  0.13243  1.0000
  H   H1152     1.0  0.69681  0.81860  0.27554  1.0000
  H   H1153     1.0  0.78335  0.67194  0.09369  1.0000
  C   C686      1.0  0.95443  0.62528  0.29190  1.0000
  H   H1154     1.0  0.95633  0.74417  0.23054  1.0000
  H   H1155     1.0  0.59049  0.80846  0.06413  1.0000
  H   H1156     1.0  0.60720  0.67977  0.21552  1.0000
  H   H1157     1.0  0.51195  0.69667  0.18714  1.0000
  C   C687      1.0  0.58471  0.87839  0.01085  1.0000
  C   C688      1.0  0.52269  0.70475  0.27425  1.0000
  H   H1158     1.0  0.64404  0.82207  0.05840  1.0000
  H   H1159     1.0  0.97656  0.67431  0.22078  1.0000
  H   H1160     1.0  0.00481  0.67679  0.10669  1.0000
  H   H1161     1.0  0.92108  0.54082  0.10496  1.0000
  C   C689      1.0  0.51750  0.50769  0.23341  1.0000
  H   H1162     1.0  0.88840  0.92900  0.14762  1.0000
  C   C690      1.0  0.79179  0.84340  0.23560  1.0000
  C   C691      1.0  0.78381  0.88515  0.23664  1.0000
  C   C692      1.0  0.75397  0.89687  0.23484  1.0000
  C   C693      1.0  0.73163  0.86717  0.23206  1.0000
  C   C694      1.0  0.73959  0.82540  0.23088  1.0000
  C   C695      1.0  0.76943  0.81366  0.23276  1.0000
  H   H1163     1.0  0.80064  0.90845  0.23876  1.0000
  H   H1164     1.0  0.74818  0.92928  0.23565  1.0000
  H   H1165     1.0  0.93174  0.50423  0.28417  1.0000
  H   H1166     1.0  0.93839  0.61179  0.25179  1.0000
  N   N50       1.0  0.71616  0.81479  0.31560  1.0000
  H   H1167     1.0  0.75675  0.61692  0.06931  1.0000
  H   H1168     1.0  0.57081  0.61027  0.21557  1.0000
  H   H1169     1.0  0.57639  0.55612  0.24619  1.0000
  H   H1170     1.0  0.79785  0.50181  0.28438  1.0000
  H   H1171     1.0  0.87194  0.94373  0.10055  1.0000
  H   H1172     1.0  0.60117  0.90226  0.01650  1.0000
  H   H1173     1.0  0.71712  0.70222  0.01466  1.0000
  C   C696      1.0  0.56504  0.58288  0.25572  1.0000
  H   H1174     1.0  0.67470  0.79267  0.29953  1.0000
  C   C697      1.0  0.54744  0.82905  0.02833  1.0000
  H   H1175     1.0  0.97109  0.56498  0.10349  1.0000
  H   H1176     1.0  0.67319  0.65964  0.10195  1.0000
  H   H1177     1.0  0.97582  0.55821  0.32333  1.0000
  H   H1178     1.0  0.50874  0.64671  0.25659  1.0000
  H   H1179     1.0  0.74350  0.84740  0.28617  1.0000
  Fe  Fe107     1.0  0.87804  0.59293  0.99959  1.0000
  H   H1180     1.0  0.58561  0.66240  0.27436  1.0000
  C   C698      1.0  0.56696  0.88339  0.05761  1.0000
  H   H1181     1.0  0.75080  0.53389  0.00855  1.0000
  C   C699      1.0  0.95663  0.60121  0.26506  1.0000
  C   C700      1.0  0.60912  0.66634  0.23618  1.0000
  H   H1182     1.0  0.69110  0.67711  0.13193  1.0000
  H   H1183     1.0  0.53459  0.60233  0.22563  1.0000
  C   C701      1.0  0.69120  0.67955  0.10941  1.0000
  C   C702      1.0  0.99084  0.51206  0.08415  1.0000
  H   H1184     1.0  0.62819  0.68151  0.24602  1.0000
  H   H1185     1.0  0.98273  0.86191  0.01345  1.0000
  C   C703      1.0  0.89041  0.96042  0.10883  1.0000
  H   H1186     1.0  0.95371  0.84395  0.32178  1.0000
  H   H1187     1.0  0.92982  0.54983  0.30378  1.0000
  H   H1188     1.0  0.72647  0.63480  0.10673  1.0000
  H   H1189     1.0  0.52704  0.52697  0.21777  1.0000
  C   C704      1.0  0.69792  0.79681  0.29299  1.0000
  H   H1190     1.0  0.51589  0.72590  0.25776  1.0000
  H   H1191     1.0  0.97777  0.63990  0.09700  1.0000
  H   H1192     1.0  0.51777  0.57353  0.05090  1.0000
  H   H1193     1.0  0.67991  0.65805  0.05632  1.0000
  H   H1194     1.0  0.97633  0.88783  0.14989  1.0000
  H   H1195     1.0  0.99289  0.54399  0.14529  1.0000
  H   H1196     1.0  0.70796  0.72995  0.29673  1.0000
  C   C705      1.0  0.51142  0.72875  0.07218  1.0000
  C   C706      1.0  0.69998  0.85165  0.32707  1.0000
  H   H1197     1.0  0.92715  0.53708  0.15518  1.0000
  H   H1198     1.0  0.56049  0.76362  0.03108  1.0000
  N   N51       1.0  0.72536  0.66734  0.06811  1.0000
  C   C707      1.0  0.72161  0.66615  0.09855  1.0000
  C   C708      1.0  0.75475  0.64873  0.06094  1.0000
  C   C709      1.0  0.70171  0.64281  0.05416  1.0000
  C   C710      1.0  0.72328  0.71166  0.05879  1.0000
  H   H1199     1.0  0.60434  0.80067  0.03114  1.0000
  C   C711      1.0  0.78195  0.67231  0.07120  1.0000
  C   C712      1.0  0.69848  0.59741  0.06336  1.0000
  C   C713      1.0  0.73125  0.71978  0.02874  1.0000
  H   H1200     1.0  0.89718  0.58233  0.26657  1.0000
  H   H1201     1.0  0.75707  0.64494  0.03861  1.0000
  H   H1202     1.0  0.94149  0.91637  0.09172  1.0000
  H   H1203     1.0  0.72191  0.90433  0.30678  1.0000
  H   H1204     1.0  0.70568  0.64169  0.03192  1.0000
  H   H1205     1.0  0.70055  0.72365  0.06158  1.0000
  H   H1206     1.0  0.73734  0.73205  0.07146  1.0000
  H   H1207     1.0  0.68634  0.71224  0.10445  1.0000
  C   C714      1.0  0.98444  0.53182  0.31147  1.0000
  H   H1208     1.0  0.89613  0.53110  0.25131  1.0000
  Fe  Fe108     1.0  0.94386  0.60617  0.01101  1.0000
  H   H1209     1.0  0.69302  0.59451  0.08522  1.0000
  H   H1210     1.0  0.71826  0.57886  0.05841  1.0000
  H   H1211     1.0  0.68015  0.58307  0.05198  1.0000
  S   S214      1.0  0.95203  0.53757  0.01006  1.0000
  C   C715      1.0  0.78776  0.57452  0.00182  1.0000
  H   H1212     1.0  0.75458  0.71283  0.02417  1.0000
  N   N52       1.0  0.95696  0.55475  0.26730  1.0000
  C   C716      1.0  0.62769  0.84638  0.05340  1.0000
  H   H1213     1.0  0.99249  0.83996  0.06172  1.0000
  H   H1214     1.0  0.96602  0.87817  0.18481  1.0000
  H   H1215     1.0  0.00358  0.54250  0.22927  1.0000
  H   H1216     1.0  0.98583  0.49112  0.10140  1.0000
  C   C717      1.0  0.70845  0.75498  0.28138  1.0000
  H   H1217     1.0  0.73056  0.75696  0.27206  1.0000
  H   H1218     1.0  0.54712  0.93636  0.03605  1.0000
  C   C718      1.0  0.53008  0.96130  0.22634  1.0000
  H   H1219     1.0  0.80199  0.65656  0.06339  1.0000
  C   C719      1.0  0.99627  0.76705  0.24809  1.0000
  H   H1220     1.0  0.54768  0.71760  0.22180  1.0000
  C   C720      1.0  0.96304  0.91439  0.05228  1.0000
  C   C721      1.0  0.76730  0.84696  0.32430  1.0000
  C   C722      1.0  0.55187  0.78578  0.01580  1.0000
  H   H1221     1.0  0.98238  0.97635  0.01847  1.0000
  C   C723      1.0  0.92382  0.97281  0.14627  1.0000
  C   C724      1.0  0.75764  0.56404  0.00144  1.0000
  C   C725      1.0  0.95595  0.53728  0.23890  1.0000
  H   H1222     1.0  0.53307  0.84669  0.01417  1.0000
  H   H1223     1.0  0.53616  0.93107  0.07055  1.0000
  H   H1224     1.0  0.95470  0.50294  0.23972  1.0000
  C   C726      1.0  0.92230  0.50933  0.14383  1.0000
  S   S215      1.0  0.98649  0.64022  0.02210  1.0000
  H   H1225     1.0  0.97428  0.88692  0.09216  1.0000
  H   H1226     1.0  0.00506  0.85709  0.32018  1.0000
  H   H1227     1.0  0.72779  0.75306  0.02422  1.0000
  C   C727      1.0  0.00150  0.68880  0.01166  1.0000
  H   H1228     1.0  0.53549  0.72374  0.07303  1.0000
  H   H1229     1.0  0.97251  0.50854  0.06954  1.0000
  C   C728      1.0  0.98190  0.54876  0.22006  1.0000
  C   C729      1.0  0.99036  0.69717  0.23036  1.0000
  N   N53       1.0  0.55303  0.65833  0.24210  1.0000
  H   H1230     1.0  0.00715  0.52569  0.31864  1.0000
  H   H1231     1.0  0.58032  0.70846  0.25638  1.0000
  H   H1232     1.0  0.53028  0.77383  0.00899  1.0000
  C   C730      1.0  0.54522  0.68401  0.21754  1.0000
  H   H1233     1.0  0.50939  0.70733  0.03068  1.0000
  H   H1234     1.0  0.99200  0.57635  0.07418  1.0000
  H   H1235     1.0  0.56079  0.67774  0.20054  1.0000
  C   C731      1.0  0.52960  0.66092  0.26371  1.0000
  C   C732      1.0  0.74566  0.82688  0.30417  1.0000
  C   C733      1.0  0.98512  0.53989  0.28050  1.0000
  C   C734      1.0  0.52470  0.63992  0.06035  1.0000
  C   C735      1.0  0.96426  0.91529  0.08367  1.0000
  C   C736      1.0  0.52748  0.59350  0.06673  1.0000
  H   H1236     1.0  0.78288  0.70457  0.06374  1.0000
  N   N54       1.0  0.99194  0.91709  0.03712  1.0000
  H   H1237     1.0  0.53536  0.65559  0.07778  1.0000
  C   C737      1.0  0.97878  0.73690  0.23581  1.0000
  C   C738      1.0  0.90022  0.54884  0.27021  1.0000
  H   H1238     1.0  0.73777  0.68687  0.10854  1.0000
  H   H1239     1.0  0.69323  0.74544  0.26499  1.0000
  H   H1240     1.0  0.61436  0.63294  0.23487  1.0000
  C   C739      1.0  0.59849  0.82536  0.04578  1.0000
  H   H1241     1.0  0.75740  0.79948  0.29589  1.0000
  H   H1242     1.0  0.50982  0.64526  0.20009  1.0000
  H   H1243     1.0  0.00082  0.61721  0.13812  1.0000
  C   C740      1.0  0.55590  0.61390  0.23338  1.0000
  H   H1244     1.0  0.58085  0.59564  0.27044  1.0000
  H   H1245     1.0  0.94395  0.89722  0.31979  1.0000
  H   H1246     1.0  0.52120  0.79957  0.19103  1.0000
  H   H1247     1.0  0.98043  0.52999  0.20122  1.0000
  H   H1248     1.0  0.54643  0.94745  0.21318  1.0000
  H   H1249     1.0  0.62546  0.86594  0.07178  1.0000
  C   C741      1.0  0.51414  0.67775  0.20588  1.0000
  H   H1250     1.0  0.52076  0.89716  0.04593  1.0000
  H   H1251     1.0  0.69044  0.88439  0.28874  1.0000
  H   H1252     1.0  0.98076  0.58165  0.21375  1.0000
  C   C742      1.0  0.69972  0.89066  0.30905  1.0000
  H   H1253     1.0  0.97129  0.50388  0.31637  1.0000
  H   H1254     1.0  0.53592  0.64236  0.28183  1.0000
  H   H1255     1.0  0.51740  0.84278  0.23306  1.0000
  H   H1256     1.0  0.58594  0.90350  0.06270  1.0000
  H   H1257     1.0  0.95116  0.88540  0.04706  1.0000
  H   H1258     1.0  0.97378  0.61969  0.30491  1.0000
  H   H1259     1.0  0.53381  0.82387  0.04689  1.0000
  H   H1260     1.0  0.78176  0.86880  0.31306  1.0000
  S   S216      1.0  0.93719  0.96192  0.17928  1.0000
  S   S217      1.0  0.88255  0.52389  0.99791  1.0000
  H   H1261     1.0  0.99007  0.93046  0.20384  1.0000
  C   C743      1.0  0.96030  0.87542  0.32838  1.0000
  H   H1262     1.0  0.55116  0.58531  0.06749  1.0000
  H   H1263     1.0  0.88285  0.53931  0.28482  1.0000
  H   H1264     1.0  0.93385  0.61851  0.30313  1.0000
  H   H1265     1.0  0.56622  0.89718  0.00286  1.0000
  H   H1266     1.0  0.97697  0.61246  0.25497  1.0000
  H   H1267     1.0  0.95424  0.65890  0.28723  1.0000
  H   H1268     1.0  0.51818  0.58604  0.08700  1.0000
  H   H1269     1.0  0.97161  0.83628  0.16204  1.0000
  C   C744      1.0  0.99113  0.88501  0.31698  1.0000
  C   C745      1.0  0.99971  0.96141  0.03088  1.0000
  H   H1270     1.0  0.97075  0.96395  0.31571  1.0000
  H   H1271     1.0  0.68557  0.91453  0.31869  1.0000
  H   H1272     1.0  0.63706  0.86450  0.03635  1.0000
  H   H1273     1.0  0.00156  0.94688  0.15885  1.0000
  C   C746      1.0  0.97984  0.86740  0.16765  1.0000
  H   H1274     1.0  0.56656  0.78603  0.99790  1.0000
  H   H1275     1.0  0.94490  0.91895  0.99995  1.0000
  Fe  Fe109     1.0  0.91752  0.54366  0.46998  1.0000
  S   S218      1.0  0.90947  0.61232  0.47234  1.0000
  H   H1276     1.0  0.59088  0.91920  0.46689  1.0000
  Fe  Fe110     1.0  0.93647  0.61162  0.51061  1.0000
  S   S219      1.0  0.97672  0.64984  0.52367  1.0000
  Fe  Fe111     1.0  0.87068  0.59502  0.49944  1.0000
  S   S220      1.0  0.82694  0.63056  0.49492  1.0000
  S   S221      1.0  0.87751  0.52628  0.49452  1.0000
  Fe  Fe112     1.0  0.60671  0.67269  0.45712  1.0000
  S   S222      1.0  0.61296  0.60338  0.45643  1.0000
  S   S223      1.0  0.59311  0.72123  0.42579  1.0000
  Fe  Fe113     1.0  0.58039  0.59996  0.49118  1.0000
  S   S224      1.0  0.53643  0.56558  0.49707  1.0000
  S   S225      1.0  0.57215  0.66840  0.48950  1.0000
  S   S226      1.0  0.64261  0.68484  0.48744  1.0000
  H   H1277     1.0  0.87222  0.90484  0.62705  1.0000
  C   C747      1.0  0.53813  0.48492  0.47606  1.0000
  C   C748      1.0  0.78928  0.61509  0.49338  1.0000
  C   C749      1.0  0.76773  0.64488  0.48706  1.0000
  C   C750      1.0  0.73756  0.63467  0.48654  1.0000
  H   H1278     1.0  0.77449  0.67613  0.48242  1.0000
  H   H1279     1.0  0.72145  0.65790  0.48134  1.0000
  H   H1280     1.0  0.97381  0.93047  0.53211  1.0000
  C   C751      1.0  0.62467  0.69572  0.34976  1.0000
  C   C752      1.0  0.61821  0.69254  0.37773  1.0000
  C   C753      1.0  0.60314  0.72442  0.39094  1.0000
  C   C754      1.0  0.59478  0.75951  0.37592  1.0000
  C   C755      1.0  0.60142  0.76282  0.34798  1.0000
  H   H1281     1.0  0.53331  0.68847  0.44289  1.0000
  H   H1282     1.0  0.62475  0.66534  0.38898  1.0000
  H   H1283     1.0  0.58302  0.78431  0.38592  1.0000
  H   H1284     1.0  0.53409  0.72537  0.56288  1.0000
  H   H1285     1.0  0.73319  0.79809  0.35511  1.0000
  H   H1286     1.0  0.56009  0.58404  0.40838  1.0000
  C   C756      1.0  0.83043  0.95240  0.60734  1.0000
  H   H1287     1.0  0.58004  0.87523  0.44816  1.0000
  H   H1288     1.0  0.53421  0.63327  0.37838  1.0000
  C   C757      1.0  0.91793  0.51506  0.64019  1.0000
  C   C758      1.0  0.98846  0.91179  0.47915  1.0000
  H   H1289     1.0  0.96821  0.54688  0.58941  1.0000
  C   C759      1.0  0.51572  0.78458  0.47566  1.0000
  C   C760      1.0  0.52107  0.60615  0.43050  1.0000
  Fe  Fe114     1.0  0.90641  0.53157  0.53161  1.0000
  S   S227      1.0  0.89746  0.59926  0.53815  1.0000
  S   S228      1.0  0.93903  0.50756  0.43520  1.0000
  S   S229      1.0  0.94665  0.54387  0.50672  1.0000
  Fe  Fe115     1.0  0.60806  0.67653  0.51977  1.0000
  S   S230      1.0  0.61460  0.60801  0.52389  1.0000
  S   S231      1.0  0.59774  0.72768  0.55013  1.0000
  Fe  Fe116     1.0  0.64718  0.61553  0.48919  1.0000
  S   S232      1.0  0.69060  0.57955  0.49273  1.0000
  H   H1290     1.0  0.57587  0.76883  0.47718  1.0000
  H   H1291     1.0  0.83656  0.92347  0.59659  1.0000
  H   H1292     1.0  0.53441  0.60651  0.57307  1.0000
  H   H1293     1.0  0.76301  0.66716  0.61568  1.0000
  H   H1294     1.0  0.70871  0.86072  0.34727  1.0000
  H   H1295     1.0  0.55251  0.91141  0.45946  1.0000
  C   C761      1.0  0.93634  0.92286  0.49230  1.0000
  H   H1296     1.0  0.92973  0.92546  0.47076  1.0000
  C   C762      1.0  0.72842  0.59436  0.49245  1.0000
  C   C763      1.0  0.74995  0.56456  0.49871  1.0000
  C   C764      1.0  0.78013  0.57476  0.49919  1.0000
  H   H1297     1.0  0.74325  0.53324  0.50323  1.0000
  H   H1298     1.0  0.79629  0.55145  0.50413  1.0000
  C   C765      1.0  0.61965  0.73244  0.64134  1.0000
  C   C766      1.0  0.62470  0.69605  0.62637  1.0000
  C   C767      1.0  0.61784  0.69391  0.59851  1.0000
  C   C768      1.0  0.60608  0.72835  0.58527  1.0000
  C   C769      1.0  0.60072  0.76459  0.60026  1.0000
  C   C770      1.0  0.60747  0.76668  0.62817  1.0000
  H   H1299     1.0  0.63390  0.66932  0.63646  1.0000
  H   H1300     1.0  0.62159  0.66564  0.58732  1.0000
  H   H1301     1.0  0.59153  0.79137  0.59022  1.0000
  H   H1302     1.0  0.60348  0.79486  0.63943  1.0000
  H   H1303     1.0  0.53692  0.61361  0.44697  1.0000
  H   H1304     1.0  0.93812  0.92532  0.64235  1.0000
  C   C771      1.0  0.91407  0.51558  0.61178  1.0000
  C   C772      1.0  0.93186  0.95316  0.63165  1.0000
  C   C773      1.0  0.83874  0.89390  0.65932  1.0000
  H   H1305     1.0  0.96833  0.94646  0.34969  1.0000
  H   H1306     1.0  0.55523  0.65898  0.40313  1.0000
  H   H1307     1.0  0.91143  0.54463  0.60116  1.0000
  C   C774      1.0  0.90158  0.94611  0.38155  1.0000
  H   H1308     1.0  0.62196  0.83829  0.47633  1.0000
  H   H1309     1.0  0.88395  0.53145  0.40891  1.0000
  H   H1310     1.0  0.79313  0.96881  0.63251  1.0000
  C   C775      1.0  0.53272  0.65717  0.39446  1.0000
  H   H1311     1.0  0.85058  0.96943  0.61271  1.0000
  C   C776      1.0  0.93476  0.95539  0.60315  1.0000
  H   H1312     1.0  0.82578  0.87018  0.64825  1.0000
  H   H1313     1.0  0.00303  0.54744  0.41379  1.0000
  C   C777      1.0  0.92309  0.49515  0.40332  1.0000
  C   C778      1.0  0.99462  0.51801  0.63704  1.0000
  H   H1314     1.0  0.00235  0.93663  0.44010  1.0000
  H   H1315     1.0  0.97725  0.83247  0.49090  1.0000
  H   H1316     1.0  0.94324  0.92905  0.59209  1.0000
  C   C779      1.0  0.97151  0.89772  0.52550  1.0000
  C   C780      1.0  0.94530  0.84197  0.46031  1.0000
  H   H1317     1.0  0.79633  0.91629  0.62498  1.0000
  C   C781      1.0  0.80958  0.94333  0.63145  1.0000
  H   H1318     1.0  0.57843  0.80771  0.45236  1.0000
  H   H1319     1.0  0.94150  0.95512  0.49850  1.0000
  H   H1320     1.0  0.97476  0.59769  0.57724  1.0000
  H   H1321     1.0  0.89851  0.91651  0.34227  1.0000
  H   H1322     1.0  0.97531  0.58964  0.44233  1.0000
  H   H1323     1.0  0.51903  0.94390  0.54161  1.0000
  H   H1324     1.0  0.51736  0.67634  0.53285  1.0000
  H   H1325     1.0  0.52621  0.56544  0.39418  1.0000
  H   H1326     1.0  0.98176  0.50307  0.62075  1.0000
  H   H1327     1.0  0.00520  0.88715  0.47587  1.0000
  H   H1328     1.0  0.90126  0.87807  0.50211  1.0000
  N   N55       1.0  0.96298  0.89563  0.49588  1.0000
  C   C782      1.0  0.95685  0.85112  0.48906  1.0000
  H   H1329     1.0  0.96828  0.90969  0.43811  1.0000
  C   C783      1.0  0.53021  0.82749  0.47757  1.0000
  H   H1330     1.0  0.94188  0.83645  0.50416  1.0000
  H   H1331     1.0  0.53168  0.83947  0.45639  1.0000
  H   H1332     1.0  0.59040  0.87605  0.50443  1.0000
  H   H1333     1.0  0.86357  0.97033  0.65392  1.0000
  H   H1334     1.0  0.98875  0.59917  0.62422  1.0000
  H   H1335     1.0  0.96991  0.96060  0.45307  1.0000
  C   C784      1.0  0.98473  0.71635  0.48780  1.0000
  H   H1336     1.0  0.63629  0.67082  0.33971  1.0000
  H   H1337     1.0  0.00592  0.49237  0.58329  1.0000
  H   H1338     1.0  0.87759  0.85945  0.64699  1.0000
  C   C785      1.0  0.61366  0.80708  0.48156  1.0000
  C   C786      1.0  0.69272  0.76518  0.35050  1.0000
  C   C787      1.0  0.57331  0.89559  0.46511  1.0000
  H   H1339     1.0  0.55536  0.77697  0.51908  1.0000
  C   C788      1.0  0.88431  0.50116  0.36968  1.0000
  C   C789      1.0  0.53746  0.57352  0.41325  1.0000
  H   H1340     1.0  0.86340  0.51408  0.36368  1.0000
  H   H1341     1.0  0.62653  0.78461  0.46924  1.0000
  H   H1342     1.0  0.96548  0.70549  0.47721  1.0000
  H   H1343     1.0  0.95415  0.88427  0.53873  1.0000
  H   H1344     1.0  0.59486  0.78999  0.33669  1.0000
  H   H1345     1.0  0.53651  0.86304  0.54080  1.0000
  H   H1346     1.0  0.00481  0.88109  0.55516  1.0000
  H   H1347     1.0  0.99515  0.92551  0.38507  1.0000
  H   H1348     1.0  0.52312  0.75242  0.59274  1.0000
  H   H1349     1.0  0.91847  0.54395  0.65123  1.0000
  C   C790      1.0  0.90253  0.94513  0.35293  1.0000
  H   H1350     1.0  0.00016  0.93674  0.49022  1.0000
  H   H1351     1.0  0.91107  0.91198  0.53013  1.0000
  H   H1352     1.0  0.72725  0.66219  0.63176  1.0000
  H   H1353     1.0  0.67654  0.84388  0.33104  1.0000
  H   H1354     1.0  0.81905  0.97295  0.59263  1.0000
  H   H1355     1.0  0.51462  0.84874  0.48795  1.0000
  N   N56       1.0  0.71946  0.67160  0.57296  1.0000
  C   C791      1.0  0.72733  0.70178  0.59510  1.0000
  C   C792      1.0  0.70857  0.69589  0.54881  1.0000
  C   C793      1.0  0.74564  0.64625  0.56426  1.0000
  C   C794      1.0  0.69629  0.64268  0.58372  1.0000
  C   C795      1.0  0.74214  0.68323  0.62051  1.0000
  C   C796      1.0  0.67789  0.71557  0.55198  1.0000
  C   C797      1.0  0.77300  0.67106  0.55556  1.0000
  C   C798      1.0  0.68424  0.61082  0.56331  1.0000
  H   H1356     1.0  0.74194  0.72661  0.58717  1.0000
  H   H1357     1.0  0.70739  0.71819  0.60260  1.0000
  H   H1358     1.0  0.70822  0.67663  0.53010  1.0000
  H   H1359     1.0  0.72393  0.72153  0.54380  1.0000
  H   H1360     1.0  0.75238  0.62429  0.58050  1.0000
  H   H1361     1.0  0.73989  0.62613  0.54673  1.0000
  H   H1362     1.0  0.70509  0.62393  0.60079  1.0000
  H   H1363     1.0  0.67756  0.65966  0.59313  1.0000
  C   C799      1.0  0.99985  0.75176  0.47840  1.0000
  C   C800      1.0  0.53878  0.63381  0.56010  1.0000
  H   H1364     1.0  0.55373  0.89157  0.50420  1.0000
  H   H1365     1.0  0.67341  0.73560  0.53412  1.0000
  H   H1366     1.0  0.66044  0.69176  0.55238  1.0000
  H   H1367     1.0  0.67598  0.73532  0.57028  1.0000
  H   H1368     1.0  0.78214  0.68970  0.57237  1.0000
  H   H1369     1.0  0.76852  0.69119  0.53782  1.0000
  H   H1370     1.0  0.79050  0.64908  0.54919  1.0000
  H   H1371     1.0  0.69879  0.58331  0.56182  1.0000
  H   H1372     1.0  0.68125  0.62372  0.54273  1.0000
  H   H1373     1.0  0.66199  0.60091  0.56987  1.0000
  N   N57       1.0  0.55986  0.82842  0.49097  1.0000
  C   C801      1.0  0.55855  0.81105  0.51941  1.0000
  C   C802      1.0  0.58090  0.80227  0.47457  1.0000
  H   H1374     1.0  0.99209  0.76757  0.46044  1.0000
  C   C803      1.0  0.56981  0.87274  0.49252  1.0000
  H   H1375     1.0  0.57984  0.81569  0.52999  1.0000
  H   H1376     1.0  0.55096  0.65751  0.57175  1.0000
  C   C804      1.0  0.89592  0.51111  0.39537  1.0000
  H   H1377     1.0  0.00426  0.51795  0.46289  1.0000
  C   C805      1.0  0.53468  0.82916  0.53831  1.0000
  H   H1378     1.0  0.93290  0.81244  0.46076  1.0000
  C   C806      1.0  0.98143  0.93045  0.45103  1.0000
  H   H1379     1.0  0.89702  0.91803  0.39272  1.0000
  C   C807      1.0  0.90844  0.90956  0.50781  1.0000
  H   H1380     1.0  0.92941  0.86509  0.45279  1.0000
  H   H1381     1.0  0.53969  0.54471  0.42540  1.0000
  H   H1382     1.0  0.61812  0.80005  0.50321  1.0000
  C   C808      1.0  0.51441  0.95574  0.52151  1.0000
  H   H1383     1.0  0.53735  0.81561  0.55888  1.0000
  H   H1384     1.0  0.69887  0.74313  0.36684  1.0000
  H   H1385     1.0  0.95894  0.87633  0.35079  1.0000
  C   C809      1.0  0.51061  0.65112  0.54694  1.0000
  H   H1386     1.0  0.96376  0.83885  0.44564  1.0000
  H   H1387     1.0  0.52875  0.76333  0.46269  1.0000
  H   H1388     1.0  0.67850  0.78907  0.35993  1.0000
  H   H1389     1.0  0.89033  0.93101  0.50232  1.0000
  H   H1390     1.0  0.55375  0.62316  0.54372  1.0000
  C   C810      1.0  0.61632  0.73080  0.33473  1.0000
  C   C811      1.0  0.99450  0.69523  0.51091  1.0000
  H   H1391     1.0  0.74763  0.70876  0.63468  1.0000
  N   N58       1.0  0.82325  0.93526  0.65883  1.0000
  C   C812      1.0  0.87025  0.89218  0.64780  1.0000
  C   C813      1.0  0.00021  0.87520  0.53335  1.0000
  C   C814      1.0  0.98581  0.56950  0.58515  1.0000
  C   C815      1.0  0.52226  0.51500  0.49038  1.0000
  H   H1392     1.0  0.76461  0.89950  0.65749  1.0000
  H   H1393     1.0  0.56002  0.49191  0.46883  1.0000
  H   H1394     1.0  0.51466  0.67894  0.60097  1.0000
  H   H1395     1.0  0.00585  0.49295  0.41729  1.0000
  C   C816      1.0  0.00363  0.58129  0.61051  1.0000
  H   H1396     1.0  0.97807  0.53601  0.64889  1.0000
  H   H1397     1.0  0.88577  0.90841  0.66140  1.0000
  H   H1398     1.0  0.75640  0.86554  0.34025  1.0000
  H   H1399     1.0  0.51207  0.77047  0.49590  1.0000
  H   H1400     1.0  0.99814  0.58147  0.48412  1.0000
  C   C817      1.0  0.51482  0.73352  0.57557  1.0000
  H   H1401     1.0  0.99843  0.84122  0.53096  1.0000
  H   H1402     1.0  0.98382  0.64180  0.45231  1.0000
  C   C818      1.0  0.99349  0.61167  0.44623  1.0000
  H   H1403     1.0  0.00032  0.55844  0.56854  1.0000
  C   C819      1.0  0.72089  0.78381  0.33802  1.0000
  C   C820      1.0  0.98421  0.95683  0.33395  1.0000
  H   H1404     1.0  0.00543  0.61817  0.42714  1.0000
  H   H1405     1.0  0.78119  0.82309  0.33420  1.0000
  H   H1406     1.0  0.67985  0.74749  0.33543  1.0000
  H   H1407     1.0  0.99862  0.87158  0.37525  1.0000
  C   C821      1.0  0.00569  0.48309  0.65578  1.0000
  H   H1408     1.0  0.73513  0.75789  0.33100  1.0000
  H   H1409     1.0  0.54325  0.70220  0.36317  1.0000
  H   H1410     1.0  0.52976  0.72532  0.39349  1.0000
  N   N59       1.0  0.51107  0.64530  0.41640  1.0000
  C   C822      1.0  0.51052  0.67968  0.43716  1.0000
  C   C823      1.0  0.52683  0.69848  0.37975  1.0000
  H   H1411     1.0  0.51226  0.82126  0.53140  1.0000
  Fe  Fe117     1.0  0.90968  0.93449  0.77497  1.0000
  S   S233      1.0  0.90416  0.86521  0.77727  1.0000
  C   C824      1.0  0.00040  0.71403  0.71542  1.0000
  Fe  Fe118     1.0  0.91547  0.93391  0.71252  1.0000
  S   S234      1.0  0.91093  0.86463  0.70992  1.0000
  H   H1412     1.0  0.97717  0.51348  0.73240  1.0000
  Fe  Fe119     1.0  0.87421  0.87246  0.74086  1.0000
  S   S235      1.0  0.83131  0.83712  0.73305  1.0000
  Fe  Fe120     1.0  0.94110  0.86140  0.74631  1.0000
  S   S236      1.0  0.98359  0.82427  0.75421  1.0000
  S   S237      1.0  0.87716  0.94147  0.74099  1.0000
  S   S238      1.0  0.94811  0.93050  0.74642  1.0000
  Fe  Fe121     1.0  0.58815  0.85698  0.73380  1.0000
  S   S239      1.0  0.58198  0.78765  0.73283  1.0000
  S   S240      1.0  0.54599  0.89384  0.72412  1.0000
  Fe  Fe122     1.0  0.65424  0.84713  0.74448  1.0000
  S   S241      1.0  0.65209  0.77801  0.74416  1.0000
  S   S242      1.0  0.69621  0.88291  0.75469  1.0000
  Fe  Fe123     1.0  0.62297  0.78491  0.70753  1.0000
  S   S243      1.0  0.62918  0.73333  0.67626  1.0000
  Fe  Fe124     1.0  0.61119  0.78489  0.76942  1.0000
  S   S244      1.0  0.60102  0.73385  0.80024  1.0000
  S   S245      1.0  0.62785  0.85426  0.70588  1.0000
  S   S246      1.0  0.61470  0.85415  0.77244  1.0000
  Fe  Fe125     1.0  0.92329  0.53550  0.97326  1.0000
  S   S247      1.0  0.91761  0.60451  0.97215  1.0000
  C   C825      1.0  0.52484  0.64165  0.74117  1.0000
  H   H1413     1.0  0.77771  0.79351  0.72277  1.0000
  C   C826      1.0  0.96643  0.91271  0.99019  1.0000
  H   H1414     1.0  0.72497  0.81035  0.73025  1.0000
  H   H1415     1.0  0.54633  0.79580  0.94152  1.0000
  H   H1416     1.0  0.68282  0.69312  0.81575  1.0000
  Fe  Fe126     1.0  0.61992  0.68271  0.96041  1.0000
  S   S248      1.0  0.62062  0.61318  0.95716  1.0000
  S   S249      1.0  0.61512  0.73469  0.92919  1.0000
  H   H1417     1.0  0.74984  0.92663  0.76506  1.0000
  H   H1418     1.0  0.57005  0.50261  0.98945  1.0000
  H   H1419     1.0  0.72963  0.65259  0.97495  1.0000
  H   H1420     1.0  0.78719  0.86748  0.67947  1.0000
  H   H1421     1.0  0.80258  0.90983  0.75749  1.0000
  C   C827      1.0  0.77170  0.82262  0.73206  1.0000
  C   C828      1.0  0.74174  0.83211  0.73623  1.0000
  C   C829      1.0  0.58729  0.56134  0.74779  1.0000
  H   H1422     1.0  0.55060  0.75093  0.90281  1.0000
  H   H1423     1.0  0.83670  0.96857  0.87854  1.0000
  C   C830      1.0  0.91798  0.48511  0.85015  1.0000
  C   C831      1.0  0.53137  0.94311  0.73386  1.0000
  C   C832      1.0  0.53606  0.76481  0.94345  1.0000
  H   H1424     1.0  0.94161  0.60369  0.78839  1.0000
  C   C833      1.0  0.98685  0.71543  0.99385  1.0000
  H   H1425     1.0  0.98282  0.55046  0.70622  1.0000
  C   C834      1.0  0.60575  0.73476  0.83598  1.0000
  C   C835      1.0  0.60683  0.69712  0.85027  1.0000
  C   C836      1.0  0.61039  0.69637  0.87872  1.0000
  C   C837      1.0  0.61238  0.73339  0.89322  1.0000
  C   C838      1.0  0.61114  0.77101  0.87892  1.0000
  C   C839      1.0  0.60794  0.77176  0.85045  1.0000
  H   H1426     1.0  0.60507  0.66832  0.83925  1.0000
  H   H1427     1.0  0.61133  0.66718  0.88942  1.0000
  H   H1428     1.0  0.61240  0.79984  0.88998  1.0000
  H   H1429     1.0  0.60666  0.80094  0.83977  1.0000
  C   C840      1.0  0.99935  0.77620  0.74350  1.0000
  H   H1430     1.0  0.56906  0.60136  0.79066  1.0000
  H   H1431     1.0  0.66500  0.72890  0.79307  1.0000
  H   H1432     1.0  0.96267  0.89000  0.97364  1.0000
  H   H1433     1.0  0.76001  0.90098  0.69338  1.0000
  C   C841      1.0  0.59615  0.66154  0.72574  1.0000
  C   C842      1.0  0.91618  0.52258  0.86456  1.0000
  C   C843      1.0  0.92264  0.52427  0.89251  1.0000
  H   H1434     1.0  0.84061  0.88229  0.68061  1.0000
  H   H1435     1.0  0.97465  0.94123  0.98022  1.0000
  H   H1436     1.0  0.58337  0.66517  0.70686  1.0000
  H   H1437     1.0  0.90951  0.55041  0.85404  1.0000
  H   H1438     1.0  0.92137  0.55329  0.90330  1.0000
  C   C844      1.0  0.52847  0.53368  0.99317  1.0000
  C   C845      1.0  0.97438  0.57852  0.74559  1.0000
  C   C846      1.0  0.79395  0.85050  0.73960  1.0000
  C   C847      1.0  0.78580  0.88806  0.75153  1.0000
  C   C848      1.0  0.75584  0.89751  0.75576  1.0000
  C   C849      1.0  0.73359  0.86971  0.74811  1.0000
  H   H1439     1.0  0.65828  0.83554  0.85235  1.0000
  N   N60       1.0  0.82346  0.52464  0.92316  1.0000
  C   C850      1.0  0.79815  0.55448  0.92671  1.0000
  C   C851      1.0  0.85125  0.54984  0.92463  1.0000
  C   C852      1.0  0.57700  0.65809  0.75160  1.0000
  H   H1440     1.0  0.76437  0.52043  0.94999  1.0000
  H   H1441     1.0  0.59558  0.53968  0.73200  1.0000
  C   C853      1.0  0.85464  0.58360  0.90270  1.0000
  C   C854      1.0  0.84406  0.96903  0.66722  1.0000
  C   C855      1.0  0.77572  0.64125  0.98291  1.0000
  C   C856      1.0  0.91385  0.95180  0.88448  1.0000
  H   H1442     1.0  0.79661  0.57593  0.90909  1.0000
  H   H1443     1.0  0.87121  0.53051  0.92366  1.0000
  H   H1444     1.0  0.85282  0.56552  0.94476  1.0000
  H   H1445     1.0  0.79453  0.96666  0.91828  1.0000
  H   H1446     1.0  0.68771  0.86580  0.83740  1.0000
  H   H1447     1.0  0.54258  0.56576  0.73445  1.0000
  H   H1448     1.0  0.60582  0.58092  0.75452  1.0000
  C   C857      1.0  0.54476  0.96834  0.75327  1.0000
  C   C858      1.0  0.84737  0.48228  0.88364  1.0000
  C   C859      1.0  0.93085  0.48840  0.90637  1.0000
  H   H1449     1.0  0.87708  0.59682  0.90392  1.0000
  H   H1450     1.0  0.85182  0.57128  0.88188  1.0000
  H   H1451     1.0  0.83928  0.60970  0.90623  1.0000
  H   H1452     1.0  0.84856  0.49030  0.68293  1.0000
  H   H1453     1.0  0.61117  0.63478  0.72347  1.0000
  H   H1454     1.0  0.78260  0.67113  0.97537  1.0000
  H   H1455     1.0  0.53716  0.68662  0.70965  1.0000
  H   H1456     1.0  0.76160  0.84557  0.82167  1.0000
  H   H1457     1.0  0.00041  0.51294  0.97018  1.0000
  C   C860      1.0  0.54015  0.67493  0.92426  1.0000
  C   C861      1.0  0.56174  0.58705  0.73604  1.0000
  H   H1458     1.0  0.60978  0.82686  0.99146  1.0000
  H   H1459     1.0  0.53627  0.61817  0.89987  1.0000
  H   H1460     1.0  0.65271  0.86390  0.82182  1.0000
  H   H1461     1.0  0.81185  0.95296  0.96656  1.0000
  C   C862      1.0  0.79705  0.61317  0.99235  1.0000
  H   H1462     1.0  0.98794  0.51227  0.77654  1.0000
  S   S250      1.0  0.58675  0.68350  0.99435  1.0000
  C   C863      1.0  0.98756  0.54374  0.72791  1.0000
  C   C864      1.0  0.98653  0.75117  0.72363  1.0000
  H   H1463     1.0  0.00791  0.94749  0.77890  1.0000
  H   H1464     1.0  0.56505  0.95842  0.76260  1.0000
  C   C865      1.0  0.96823  0.65587  0.77669  1.0000
  H   H1465     1.0  0.99124  0.66426  0.77194  1.0000
  H   H1466     1.0  0.95499  0.65896  0.75790  1.0000
  H   H1467     1.0  0.95213  0.53079  0.78438  1.0000
  H   H1468     1.0  0.69533  0.71047  0.88212  1.0000
  C   C866      1.0  0.97593  0.53749  0.78716  1.0000
  H   H1469     1.0  0.51545  0.76936  0.95515  1.0000
  C   C867      1.0  0.91255  0.95076  0.85589  1.0000
  H   H1470     1.0  0.56719  0.68917  0.75526  1.0000
  H   H1471     1.0  0.99239  0.58667  0.96706  1.0000
  H   H1472     1.0  0.51188  0.65015  0.79694  1.0000
  H   H1473     1.0  0.53616  0.93094  0.96545  1.0000
  H   H1474     1.0  0.98777  0.54388  0.92643  1.0000
  H   H1475     1.0  0.83264  0.97259  0.92489  1.0000
  H   H1476     1.0  0.80173  0.57461  0.94465  1.0000
  H   H1477     1.0  0.72700  0.74145  0.87600  1.0000
  N   N61       1.0  0.98348  0.57905  0.77512  1.0000
  C   C868      1.0  0.98318  0.53118  0.81741  1.0000
  H   H1478     1.0  0.61155  0.87431  0.97433  1.0000
  C   C869      1.0  0.81972  0.50245  0.89641  1.0000
  H   H1479     1.0  0.74909  0.81209  0.79549  1.0000
  S   S251      1.0  0.54277  0.58522  0.99486  1.0000
  H   H1480     1.0  0.95962  0.67901  0.79137  1.0000
  H   H1481     1.0  0.91295  0.92317  0.89582  1.0000
  C   C870      1.0  0.54650  0.49881  0.99066  1.0000
  C   C871      1.0  0.79897  0.93386  0.67983  1.0000
  H   H1482     1.0  0.53318  0.63393  0.69698  1.0000
  H   H1483     1.0  0.97555  0.49995  0.82361  1.0000
  C   C872      1.0  0.76729  0.53535  0.92986  1.0000
  H   H1484     1.0  0.71622  0.70211  0.85185  1.0000
  H   H1485     1.0  0.99034  0.69528  0.69985  1.0000
  H   H1486     1.0  0.85304  0.96247  0.68778  1.0000
  H   H1487     1.0  0.59282  0.65368  0.76859  1.0000
  H   H1488     1.0  0.61030  0.68934  0.72754  1.0000
  S   S252      1.0  0.93851  0.48866  0.94166  1.0000
  Fe  Fe127     1.0  0.65679  0.61597  0.98895  1.0000
  Fe  Fe128     1.0  0.58915  0.61364  0.99288  1.0000
  H   H1489     1.0  0.75062  0.56046  0.92900  1.0000
  H   H1490     1.0  0.85457  0.49990  0.86541  1.0000
  H   H1491     1.0  0.57961  0.54206  0.76510  1.0000
  C   C873      1.0  0.53574  0.64546  0.80037  1.0000
  C   C874      1.0  0.96535  0.61203  0.78893  1.0000
  C   C875      1.0  0.52601  0.95209  0.97968  1.0000
  H   H1492     1.0  0.98843  0.77318  0.97179  1.0000
  C   C876      1.0  0.54826  0.61204  0.78113  1.0000
  H   H1493     1.0  0.91068  0.92154  0.84537  1.0000
  H   H1494     1.0  0.69410  0.69686  0.78108  1.0000
  H   H1495     1.0  0.96547  0.70698  0.98617  1.0000
  H   H1496     1.0  0.96610  0.76063  0.71439  1.0000
  H   H1497     1.0  0.56196  0.67984  0.91452  1.0000
  N   N62       1.0  0.51792  0.70486  0.91286  1.0000
  H   H1498     1.0  0.51579  0.74436  0.74751  1.0000
  C   C877      1.0  0.74560  0.63085  0.98269  1.0000
  H   H1499     1.0  0.55186  0.74539  0.95477  1.0000
  H   H1500     1.0  0.54427  0.68007  0.94611  1.0000
  H   H1501     1.0  0.97034  0.61456  0.81085  1.0000
  N   N63       1.0  0.70082  0.77925  0.82716  1.0000
  C   C878      1.0  0.72778  0.80291  0.83552  1.0000
  C   C879      1.0  0.68807  0.75822  0.85186  1.0000
  C   C880      1.0  0.67784  0.80763  0.81539  1.0000
  C   C881      1.0  0.70950  0.74826  0.80566  1.0000
  C   C882      1.0  0.74176  0.83034  0.81333  1.0000
  C   C883      1.0  0.70814  0.72631  0.86591  1.0000
  C   C884      1.0  0.66901  0.84505  0.83310  1.0000
  C   C885      1.0  0.68632  0.71516  0.79880  1.0000
  H   H1502     1.0  0.72317  0.82267  0.85355  1.0000
  H   H1503     1.0  0.74543  0.78137  0.84215  1.0000
  H   H1504     1.0  0.66707  0.74261  0.84686  1.0000
  H   H1505     1.0  0.68224  0.78118  0.86779  1.0000
  H   H1506     1.0  0.68489  0.81978  0.79524  1.0000
  H   H1507     1.0  0.65721  0.79048  0.81125  1.0000
  H   H1508     1.0  0.71476  0.76421  0.78615  1.0000
  H   H1509     1.0  0.73005  0.73174  0.81128  1.0000
  H   H1510     1.0  0.72685  0.85537  0.80659  1.0000
  H   H1511     1.0  0.54753  0.67527  0.79850  1.0000
  H   H1512     1.0  0.53641  0.69351  0.87277  1.0000
  H   H1513     1.0  0.95003  0.57625  0.74378  1.0000
  H   H1514     1.0  0.56752  0.59461  0.71470  1.0000
  H   H1515     1.0  0.81112  0.52419  0.88075  1.0000
  H   H1516     1.0  0.80833  0.93157  0.70072  1.0000
  H   H1517     1.0  0.00425  0.50125  0.88948  1.0000
  H   H1518     1.0  0.98069  0.60792  0.73530  1.0000
  C   C886      1.0  0.50870  0.76219  0.76558  1.0000
  C   C887      1.0  0.53260  0.62874  0.92106  1.0000
  N   N64       1.0  0.55348  0.62515  0.75202  1.0000
  H   H1519     1.0  0.57812  0.84471  0.97261  1.0000
  H   H1520     1.0  0.78574  0.96277  0.67955  1.0000
  H   H1521     1.0  0.53316  0.58506  0.78206  1.0000
  C   C888      1.0  0.59641  0.85416  0.98610  1.0000
  C   C889      1.0  0.82274  0.49475  0.94671  1.0000
  C   C890      1.0  0.52489  0.65719  0.71160  1.0000
  H   H1522     1.0  0.54745  0.61010  0.93412  1.0000
  H   H1523     1.0  0.00721  0.53159  0.82095  1.0000
  H   H1524     1.0  0.76217  0.51319  0.91342  1.0000
  H   H1525     1.0  0.52322  0.78863  0.70834  1.0000
  H   H1526     1.0  0.82357  0.51197  0.96632  1.0000
  C   C891      1.0  0.52985  0.74822  0.91477  1.0000
  H   H1527     1.0  0.51429  0.77091  0.90579  1.0000
  H   H1528     1.0  0.52818  0.76492  0.77899  1.0000
  S   S253      1.0  0.65798  0.68503  0.98938  1.0000
  H   H1529     1.0  0.97169  0.55350  0.83077  1.0000
  S   S254      1.0  0.90815  0.48464  0.81531  1.0000
  H   H1530     1.0  0.51681  0.82252  0.74826  1.0000
  H   H1531     1.0  0.53808  0.63481  0.82172  1.0000
  C   C892      1.0  0.77671  0.89820  0.67695  1.0000
  H   H1532     1.0  0.51701  0.66836  0.75334  1.0000
  H   H1533     1.0  0.99759  0.62845  0.92560  1.0000
  C   C893      1.0  0.51809  0.49202  0.77593  1.0000
  S   S255      1.0  0.83489  0.62717  0.99021  1.0000
  H   H1534     1.0  0.52045  0.50143  0.79690  1.0000
  C   C894      1.0  0.51452  0.69490  0.88303  1.0000
  C   C895      1.0  0.99996  0.75307  0.98572  1.0000
  H   H1535     1.0  0.00795  0.65843  0.95421  1.0000
  S   S256      1.0  0.69878  0.57642  0.99069  1.0000
  C   C896      1.0  0.73634  0.59202  0.99182  1.0000
  H   H1536     1.0  0.50977  0.62164  0.92731  1.0000
