data_image0
_chemical_formula_structural       C2SNFeS2HSCFeSFeS3FeCSHC6H12C6H3CS2CH3CHCH3CH3CH3CH2CH2SH4CHNH3C2H4CH2SCH4CHCHCSH2FeH3NH3SHCHC2H2FeHCHFeSH2C2HCHC2S2HCNH2CH4CHC4H2CHFeH2CH6C3H2SH12FeCH2S2H3CH2C2HNH2SHCHCHCH3CH2C6SHSHFeHNHC3HC2HSC4HCSH2CHCH4C2H2CH3CH3C2SC2H2CH3FeH2FeH2SFeS2HSC4H2SHC6HFeH3FeNH2SH2SFeH10CH2SC3H3C2NH3C4HCH2NHCHCH4CH2CH2CSH2SCHFeS2CHSH2FeH2SFeHC6H2FeSH3NCH4SH5CHFeC2HC4H2CH4C7HCHSHNH3CH6CH5C2H2FeSFeSFeS2CH2SH2CH3CHCSCHC2HCHNH3CH2C3H2C2HNHCHCHC2H2C2H2CHC3H3CSH2CHCHC3HCH8C5HC2HFeH2CSHCH4C2H8CH5SHCNC2H4CH2CH4FeH2FeHFeSFeS2FeS2FeS3H2CSNC6H5SHC7H4FeCS2CSHC3HC2H5CH4NH2SHCH5FeH3C4HCH3NC8H10CH9CHC3H2CSCH2C2H4CH4C2H5SHCH5SH4C2H4CH2C2H2CH2CFeS2FeS2FeSFeS3FeHSHCHC6H4C4H4C5H9C2HSH5CH2SC3H3CH3CNH4CH2C2H4NCSHCH6C3HCH3C2H7CHCH2CH2FeCH2CHC2SCHCHNSFeSHFeCSFeSCHS2FeS2H4SHFeSH2SC6H5CHNH2C3H2SCHFeCHFeSCHCHC4H3C2H3CHSH4CH3C2H2CHCFeH2C5H2C2SH4CHCH5CNCH3CHNH2SCH2FeHNCH6CH3C2H2SFeH2SHFeH10CHC2H2CH11C2HNHCH3C2H2C2HCHCH2NCH3C3H2CH9C2H9FeS2HC2HSH2FeS2FeS2CFeS2HSFeSFeCSHC7H4C2H2CHC6H4C6H7NSH2NH2SC3H3C2H2NH4FeHCH4C7H2CH7SHCHSH5FeH2FeCHSHC2HC2H2CH2CFeS2FeS2FeSFeS3H2CHSC6H4C6H2CHC3FeH2CH2CH2CH8NCH3CH9CHCH3CH3C2HCHCH3CH3CHCHNH2SHCHC2HC2H3C2NCHCHCH7C2H3
_chemical_formula_sum              "C448 S128 N32 Fe64 H768"
_cell_length_a       30.7368
_cell_length_b       30.7093
_cell_length_c       66.2887
_cell_angle_alpha    91.4101
_cell_angle_beta     88.1381
_cell_angle_gamma    85.9504

_space_group_name_H-M_alt    "P 1"
_space_group_IT_number       1

loop_
  _space_group_symop_operation_xyz
  'x, y, z'

loop_
  _atom_site_type_symbol
  _atom_site_label
  _atom_site_symmetry_multiplicity
  _atom_site_fract_x
  _atom_site_fract_y
  _atom_site_fract_z
  _atom_site_occupancy
  C   C1        1.0  0.45158  0.18043  0.09473  1.0000
  C   C2        1.0  0.36133  0.25834  0.07407  1.0000
  S   S1        1.0  0.36639  0.36960  0.05564  1.0000
  N   N1        1.0  0.42271  0.22246  0.09576  1.0000
  Fe  Fe1       1.0  0.07353  0.11193  0.11254  1.0000
  S   S2        1.0  0.11545  0.15481  0.13050  1.0000
  S   S3        1.0  0.10243  0.05922  0.09044  1.0000
  H   H1        1.0  0.09130  0.02229  0.21068  1.0000
  S   S4        1.0  0.02405  0.21331  0.14200  1.0000
  C   C3        1.0  0.22387  0.07333  0.04843  1.0000
  Fe  Fe2       1.0  0.07530  0.21009  0.11710  1.0000
  S   S5        1.0  0.09847  0.27178  0.10321  1.0000
  Fe  Fe3       1.0  0.06065  0.15439  0.15390  1.0000
  S   S6        1.0  0.06251  0.15447  0.18792  1.0000
  S   S7        1.0  0.03609  0.16760  0.09776  1.0000
  S   S8        1.0  0.02144  0.10690  0.13711  1.0000
  Fe  Fe4       1.0  0.23363  0.13997  0.26915  1.0000
  C   C4        1.0  0.42764  0.30457  0.10533  1.0000
  S   S9        1.0  0.23786  0.15004  0.23541  1.0000
  H   H2        1.0  0.08018  0.28269  0.22040  1.0000
  C   C5        1.0  0.11174  0.15414  0.20060  1.0000
  C   C6        1.0  0.11017  0.16215  0.22153  1.0000
  C   C7        1.0  0.14873  0.16133  0.23230  1.0000
  C   C8        1.0  0.18911  0.15259  0.22219  1.0000
  C   C9        1.0  0.19074  0.14527  0.20119  1.0000
  C   C10       1.0  0.15209  0.14581  0.19039  1.0000
  H   H3        1.0  0.07900  0.16899  0.22946  1.0000
  H   H4        1.0  0.14720  0.16774  0.24841  1.0000
  H   H5        1.0  0.22197  0.13841  0.19332  1.0000
  H   H6        1.0  0.15349  0.13926  0.17427  1.0000
  H   H7        1.0  0.20720  0.26115  0.15731  1.0000
  H   H8        1.0  0.23818  0.99949  0.24575  1.0000
  H   H9        1.0  0.11094  0.33096  0.21915  1.0000
  H   H10       1.0  0.47791  0.26201  0.09171  1.0000
  H   H11       1.0  0.20342  0.16804  0.11280  1.0000
  H   H12       1.0  0.42927  0.10545  0.24722  1.0000
  H   H13       1.0  0.04326  0.15571  0.29116  1.0000
  H   H14       1.0  0.19157  0.20678  0.15362  1.0000
  C   C11       1.0  0.23526  0.32310  0.09805  1.0000
  C   C12       1.0  0.22821  0.28643  0.10972  1.0000
  C   C13       1.0  0.18676  0.26966  0.11106  1.0000
  C   C14       1.0  0.15187  0.28974  0.10096  1.0000
  C   C15       1.0  0.15908  0.32600  0.08909  1.0000
  C   C16       1.0  0.20065  0.34247  0.08752  1.0000
  H   H15       1.0  0.25482  0.27134  0.11796  1.0000
  H   H16       1.0  0.18149  0.24184  0.12019  1.0000
  H   H17       1.0  0.13225  0.34179  0.08122  1.0000
  C   C17       1.0  0.13872  0.27421  0.20030  1.0000
  S   S10       1.0  0.28731  0.34440  0.09777  1.0000
  S   S11       1.0  0.27524  0.17380  0.29112  1.0000
  C   C18       1.0  0.14731  0.32825  0.17338  1.0000
  H   H18       1.0  0.05913  0.07339  0.26818  1.0000
  H   H19       1.0  0.42957  0.24802  0.06569  1.0000
  H   H20       1.0  0.06191  0.31825  0.19166  1.0000
  C   C19       1.0  0.39345  0.41306  0.98068  1.0000
  H   H21       1.0  0.17190  0.07303  0.24095  1.0000
  C   C20       1.0  0.13786  0.25187  0.16469  1.0000
  H   H22       1.0  0.15417  0.04420  0.12623  1.0000
  H   H23       1.0  0.25027  0.13189  0.11581  1.0000
  H   H24       1.0  0.15307  0.99763  0.06464  1.0000
  C   C21       1.0  0.09828  0.02398  0.25024  1.0000
  H   H25       1.0  0.06700  0.29611  0.14602  1.0000
  H   H26       1.0  0.21287  0.05347  0.03557  1.0000
  H   H27       1.0  0.15597  0.37311  0.19906  1.0000
  C   C22       1.0  0.22698  0.17816  0.06077  1.0000
  H   H28       1.0  0.06636  0.08805  0.24253  1.0000
  H   H29       1.0  0.43987  0.19364  0.26932  1.0000
  H   H30       1.0  0.18326  0.32225  0.17451  1.0000
  C   C23       1.0  0.48375  0.20114  0.23455  1.0000
  H   H31       1.0  0.25578  0.08486  0.04382  1.0000
  H   H32       1.0  0.22795  0.05063  0.06110  1.0000
  C   C24       1.0  0.22081  0.02006  0.23457  1.0000
  H   H33       1.0  0.46013  0.18785  0.22408  1.0000
  H   H34       1.0  0.02103  0.31772  0.16092  1.0000
  S   S12       1.0  0.27955  0.43828  0.05280  1.0000
  H   H35       1.0  0.13051  0.28462  0.23279  1.0000
  H   H36       1.0  0.17619  0.03348  0.25984  1.0000
  H   H37       1.0  0.29511  0.19228  0.05739  1.0000
  H   H38       1.0  0.11036  0.09153  0.26008  1.0000
  C   C25       1.0  0.16837  0.02360  0.11391  1.0000
  H   H39       1.0  0.07060  0.28656  0.29262  1.0000
  N   N2        1.0  0.13615  0.01601  0.23516  1.0000
  H   H40       1.0  0.46657  0.23130  0.24145  1.0000
  H   H41       1.0  0.14429  0.21543  0.05303  1.0000
  H   H42       1.0  0.19621  0.09898  0.09385  1.0000
  C   C26       1.0  0.45040  0.25836  0.10263  1.0000
  C   C27       1.0  0.16783  0.99731  0.07924  1.0000
  H   H43       1.0  0.27887  0.15315  0.03906  1.0000
  H   H44       1.0  0.20564  0.37075  0.07852  1.0000
  H   H45       1.0  0.22629  0.20789  0.07084  1.0000
  H   H46       1.0  0.05991  0.26473  0.18180  1.0000
  C   C28       1.0  0.38706  0.21752  0.11156  1.0000
  H   H47       1.0  0.13631  0.23849  0.20179  1.0000
  H   H48       1.0  0.11924  0.22279  0.16791  1.0000
  S   S13       1.0  0.25301  0.07285  0.27963  1.0000
  C   C29       1.0  0.35486  0.39155  0.98041  1.0000
  H   H49       1.0  0.13574  0.14428  0.08496  1.0000
  H   H50       1.0  0.10627  0.00944  0.26495  1.0000
  H   H51       1.0  0.33365  0.24069  0.08001  1.0000
  H   H52       1.0  0.36108  0.29004  0.08223  1.0000
  C   C30       1.0  0.27511  0.16393  0.05518  1.0000
  H   H53       1.0  0.43919  0.03086  0.11730  1.0000
  C   C31       1.0  0.13530  0.37091  0.18567  1.0000
  H   H54       1.0  0.40351  0.42769  0.99463  1.0000
  C   C32       1.0  0.18683  0.23617  0.16377  1.0000
  S   S14       1.0  0.37816  0.47095  0.04146  1.0000
  H   H55       1.0  0.25425  0.17685  0.09935  1.0000
  H   H56       1.0  0.39120  0.13601  0.26373  1.0000
  Fe  Fe5       1.0  0.31071  0.39568  0.07626  1.0000
  H   H57       1.0  0.17380  0.27953  0.20236  1.0000
  H   H58       1.0  0.10053  0.37513  0.19059  1.0000
  H   H59       1.0  0.06692  0.34972  0.15780  1.0000
  N   N3        1.0  0.12454  0.28864  0.17968  1.0000
  H   H60       1.0  0.18380  0.04985  0.20021  1.0000
  H   H61       1.0  0.11677  0.16521  0.04967  1.0000
  H   H62       1.0  0.12975  0.26100  0.14907  1.0000
  S   S15       1.0  0.34730  0.45097  0.08836  1.0000
  H   H63       1.0  0.14327  0.33478  0.15704  1.0000
  C   C33       1.0  0.36028  0.17724  0.10869  1.0000
  H   H64       1.0  0.46349  0.17210  0.10999  1.0000
  C   C34       1.0  0.15632  0.16735  0.07700  1.0000
  C   C35       1.0  0.23236  0.15199  0.10462  1.0000
  H   H65       1.0  0.16170  0.19359  0.08828  1.0000
  H   H66       1.0  0.15890  0.09433  0.05820  1.0000
  Fe  Fe6       1.0  0.33773  0.41527  0.03281  1.0000
  H   H67       1.0  0.42153  0.31940  0.09050  1.0000
  C   C36       1.0  0.21915  0.12177  0.08729  1.0000
  H   H68       1.0  0.19913  0.22633  0.17863  1.0000
  Fe  Fe7       1.0  0.40118  0.42691  0.06640  1.0000
  S   S16       1.0  0.17325  0.14700  0.28908  1.0000
  H   H69       1.0  0.09789  0.20539  0.06830  1.0000
  H   H70       1.0  0.40097  0.19999  0.06664  1.0000
  C   C37       1.0  0.11330  0.29489  0.21900  1.0000
  C   C38       1.0  0.07546  0.29601  0.17925  1.0000
  H   H71       1.0  0.14055  0.39917  0.17595  1.0000
  C   C39       1.0  0.18877  0.11077  0.05357  1.0000
  H   H72       1.0  0.46343  0.14285  0.27660  1.0000
  C   C40       1.0  0.12783  0.18926  0.06079  1.0000
  C   C41       1.0  0.45513  0.16194  0.26317  1.0000
  S   S17       1.0  0.46714  0.42309  0.08077  1.0000
  S   S18       1.0  0.32051  0.38917  0.00207  1.0000
  H   H73       1.0  0.28978  0.13820  0.06469  1.0000
  C   C42       1.0  0.14910  0.02432  0.09508  1.0000
  N   N4        1.0  0.19906  0.14427  0.06949  1.0000
  H   H74       1.0  0.24873  0.10057  0.08291  1.0000
  H   H75       1.0  0.21295  0.19093  0.04664  1.0000
  C   C43       1.0  0.41862  0.13909  0.25259  1.0000
  H   H76       1.0  0.18102  0.12678  0.03910  1.0000
  H   H77       1.0  0.40513  0.15825  0.23999  1.0000
  H   H78       1.0  0.45001  0.32590  0.11305  1.0000
  H   H79       1.0  0.32961  0.18180  0.11808  1.0000
  C   C44       1.0  0.17515  0.03722  0.24319  1.0000
  H   H80       1.0  0.13916  0.04551  0.18417  1.0000
  C   C45       1.0  0.08319  0.07221  0.25527  1.0000
  C   C46       1.0  0.15494  0.03103  0.19755  1.0000
  C   C47       1.0  0.40540  0.23116  0.07504  1.0000
  C   C48       1.0  0.20577  0.99554  0.11689  1.0000
  H   H81       1.0  0.35469  0.26548  0.05806  1.0000
  H   H82       1.0  0.42442  0.01013  0.98530  1.0000
  C   C49       1.0  0.12205  0.03587  0.21561  1.0000
  H   H83       1.0  0.11444  0.07153  0.21767  1.0000
  Fe  Fe8       1.0  0.19516  0.08192  0.30140  1.0000
  H   H84       1.0  0.43310  0.15241  0.08977  1.0000
  H   H85       1.0  0.40106  0.21544  0.12686  1.0000
  C   C50       1.0  0.44708  0.99325  0.08937  1.0000
  H   H86       1.0  0.35148  0.17198  0.09278  1.0000
  H   H87       1.0  0.36341  0.24660  0.11258  1.0000
  H   H88       1.0  0.24102  0.04830  0.23230  1.0000
  H   H89       1.0  0.37848  0.14729  0.11394  1.0000
  H   H90       1.0  0.39725  0.30604  0.11481  1.0000
  H   H91       1.0  0.34302  0.03296  0.98248  1.0000
  C   C51       1.0  0.05726  0.31593  0.15979  1.0000
  C   C52       1.0  0.45863  0.02505  0.10346  1.0000
  C   C53       1.0  0.36008  0.01029  0.97092  1.0000
  H   H92       1.0  0.20962  0.44287  0.97650  1.0000
  H   H93       1.0  0.46565  0.24995  0.11720  1.0000
  S   S19       1.0  0.13983  0.03604  0.30163  1.0000
  H   H94       1.0  0.06925  0.00753  0.24508  1.0000
  H   H95       1.0  0.26697  0.43488  0.97187  1.0000
  H   H96       1.0  0.49151  0.11551  0.22850  1.0000
  H   H97       1.0  0.13949  0.24169  0.29808  1.0000
  H   H98       1.0  0.22019  0.99457  0.13155  1.0000
  H   H99       1.0  0.22140  0.00213  0.21995  1.0000
  H   H100      1.0  0.16489  0.99658  0.19334  1.0000
  H   H101      1.0  0.47715  0.35238  0.05056  1.0000
  H   H102      1.0  0.48325  0.18900  0.06464  1.0000
  H   H103      1.0  0.49484  0.07886  0.26307  1.0000
  H   H104      1.0  0.48922  0.23328  0.28301  1.0000
  H   H105      1.0  0.08806  0.17718  0.30331  1.0000
  Fe  Fe9       1.0  0.29149  0.10689  0.30291  1.0000
  C   C54       1.0  0.49181  0.17937  0.08010  1.0000
  H   H106      1.0  0.45198  0.04948  0.30328  1.0000
  H   H107      1.0  0.48263  0.08434  0.34996  1.0000
  S   S20       1.0  0.23498  0.10984  0.32579  1.0000
  S   S21       1.0  0.19184  0.23031  0.33369  1.0000
  H   H108      1.0  0.44010  0.12296  0.37873  1.0000
  H   H109      1.0  0.06292  0.21549  0.34121  1.0000
  H   H110      1.0  0.41935  0.07242  0.37165  1.0000
  C   C55       1.0  0.12197  0.28711  0.34518  1.0000
  H   H111      1.0  0.07955  0.08155  0.35620  1.0000
  H   H112      1.0  0.05789  0.28715  0.48654  1.0000
  C   C56       1.0  0.40593  0.15050  0.31618  1.0000
  C   C57       1.0  0.13351  0.00853  0.34129  1.0000
  H   H113      1.0  0.13182  0.12740  0.37214  1.0000
  N   N5        1.0  0.06578  0.14452  0.34256  1.0000
  H   H114      1.0  0.06742  0.10233  0.31583  1.0000
  H   H115      1.0  0.44200  0.20570  0.32449  1.0000
  S   S22       1.0  0.01022  0.38252  0.41835  1.0000
  H   H116      1.0  0.07916  0.10619  0.60824  1.0000
  C   C58       1.0  0.14259  0.26142  0.32934  1.0000
  H   H117      1.0  0.16172  0.02659  0.34421  1.0000
  C   C59       1.0  0.11492  0.14426  0.34076  1.0000
  H   H118      1.0  0.17424  0.14904  0.35749  1.0000
  C   C60       1.0  0.99842  0.19876  0.35093  1.0000
  H   H119      1.0  0.12520  0.16974  0.33043  1.0000
  H   H120      1.0  0.09900  0.07179  0.57150  1.0000
  H   H121      1.0  0.01203  0.01065  0.49745  1.0000
  C   C61       1.0  0.09347  0.08314  0.61924  1.0000
  H   H122      1.0  0.08005  0.02568  0.55725  1.0000
  H   H123      1.0  0.00531  0.06946  0.36920  1.0000
  C   C62       1.0  0.04996  0.13324  0.32186  1.0000
  C   C63       1.0  0.44438  0.17164  0.31970  1.0000
  C   C64       1.0  0.01055  0.09010  0.35591  1.0000
  C   C65       1.0  0.00287  0.42915  0.47607  1.0000
  C   C66       1.0  0.03677  0.00083  0.61798  1.0000
  C   C67       1.0  0.01794  0.40918  0.45761  1.0000
  S   S23       1.0  0.07754  0.43271  0.58132  1.0000
  H   H124      1.0  0.05672  0.12297  0.37329  1.0000
  S   S24       1.0  0.99963  0.43412  0.36501  1.0000
  H   H125      1.0  0.01596  0.02316  0.58034  1.0000
  Fe  Fe10      1.0  0.21593  0.17477  0.31215  1.0000
  H   H126      1.0  0.01504  0.12653  0.32224  1.0000
  N   N6        1.0  0.06787  0.01390  0.60134  1.0000
  H   H127      1.0  0.37434  0.16822  0.31832  1.0000
  C   C68       1.0  0.48569  0.14912  0.31704  1.0000
  C   C69       1.0  0.04837  0.18938  0.35005  1.0000
  C   C70       1.0  0.05496  0.11006  0.35751  1.0000
  H   H128      1.0  0.05099  0.39452  0.45608  1.0000
  C   C71       1.0  0.08277  0.31233  0.34216  1.0000
  C   C72       1.0  0.11664  0.00789  0.32195  1.0000
  H   H129      1.0  0.13110  0.04034  0.59809  1.0000
  S   S25       1.0  0.01623  0.34523  0.31848  1.0000
  C   C73       1.0  0.40840  0.10626  0.31038  1.0000
  C   C74       1.0  0.44768  0.08708  0.37849  1.0000
  C   C75       1.0  0.13847  0.15193  0.36067  1.0000
  C   C76       1.0  0.05416  0.16848  0.30584  1.0000
  H   H130      1.0  0.03323  0.19862  0.30977  1.0000
  C   C77       1.0  0.06426  0.31248  0.32315  1.0000
  S   S26       1.0  0.01086  0.38644  0.53364  1.0000
  H   H131      1.0  0.05894  0.19601  0.36564  1.0000
  H   H132      1.0  0.13653  0.28780  0.35982  1.0000
  C   C78       1.0  0.48822  0.10509  0.31081  1.0000
  H   H133      1.0  0.44964  0.07519  0.39410  1.0000
  C   C79       1.0  0.10635  0.48029  0.57879  1.0000
  H   H134      1.0  0.06739  0.33239  0.35440  1.0000
  H   H135      1.0  0.12923  0.11264  0.33395  1.0000
  H   H136      1.0  0.13081  0.18546  0.36701  1.0000
  H   H137      1.0  0.04905  0.07685  0.55849  1.0000
  C   C80       1.0  0.12361  0.26088  0.31045  1.0000
  C   C81       1.0  0.10499  0.03725  0.60990  1.0000
  H   H138      1.0  0.07171  0.08203  0.63280  1.0000
  H   H139      1.0  0.01032  0.06795  0.34240  1.0000
  C   C82       1.0  0.08468  0.28645  0.30736  1.0000
  H   H140      1.0  0.05454  0.99331  0.63200  1.0000
  H   H141      1.0  0.12391  0.09685  0.62431  1.0000
  H   H142      1.0  0.13389  0.47438  0.60817  1.0000
  C   C83       1.0  0.07019  0.05418  0.56740  1.0000
  H   H143      1.0  0.02422  0.42990  0.48872  1.0000
  H   H144      1.0  0.12076  0.01801  0.62201  1.0000
  H   H145      1.0  0.01710  0.00382  0.47084  1.0000
  C   C84       1.0  0.99726  0.03310  0.62391  1.0000
  C   C85       1.0  0.04349  0.04095  0.58608  1.0000
  S   S27       1.0  0.36112  0.07739  0.30672  1.0000
  C   C86       1.0  0.44975  0.08370  0.30778  1.0000
  C   C87       1.0  0.48915  0.07313  0.36546  1.0000
  H   H146      1.0  0.02817  0.07175  0.59302  1.0000
  H   H147      1.0  0.03488  0.31160  0.46486  1.0000
  C   C88       1.0  0.02775  0.30403  0.48084  1.0000
  H   H148      1.0  0.00583  0.47809  0.40568  1.0000
  H   H149      1.0  0.02177  0.33477  0.48995  1.0000
  H   H150      1.0  0.49089  0.03683  0.36442  1.0000
  Fe  Fe11      1.0  0.01693  0.42047  0.56396  1.0000
  H   H151      1.0  0.00582  0.06696  0.62675  1.0000
  H   H152      1.0  0.00086  0.24314  0.47444  1.0000
  Fe  Fe12      1.0  0.40620  0.39325  0.89222  1.0000
  H   H153      1.0  0.26033  0.04443  0.93605  1.0000
  H   H154      1.0  0.27420  0.48062  0.77770  1.0000
  S   S28       1.0  0.36002  0.39334  0.83846  1.0000
  Fe  Fe13      1.0  0.36928  0.33652  0.85961  1.0000
  S   S29       1.0  0.34965  0.26915  0.84886  1.0000
  S   S30       1.0  0.33813  0.37503  0.88646  1.0000
  H   H155      1.0  0.43114  0.05316  0.85456  1.0000
  S   S31       1.0  0.43797  0.35150  0.86672  1.0000
  C   C89       1.0  0.40572  0.39740  0.94458  1.0000
  C   C90       1.0  0.44355  0.07790  0.84423  1.0000
  C   C91       1.0  0.28731  0.02670  0.94394  1.0000
  C   C92       1.0  0.40913  0.09850  0.93775  1.0000
  H   H156      1.0  0.38015  0.11937  0.93343  1.0000
  H   H157      1.0  0.35691  0.47033  0.91952  1.0000
  S   S32       1.0  0.36737  0.08010  0.88805  1.0000
  H   H158      1.0  0.32117  0.46052  0.95353  1.0000
  C   C93       1.0  0.35457  0.21705  0.86023  1.0000
  C   C94       1.0  0.37511  0.21033  0.87854  1.0000
  C   C95       1.0  0.37843  0.16833  0.88684  1.0000
  C   C96       1.0  0.36130  0.13247  0.87699  1.0000
  C   C97       1.0  0.34067  0.13917  0.85870  1.0000
  C   C98       1.0  0.33753  0.18113  0.85037  1.0000
  H   H159      1.0  0.18661  0.47384  0.81307  1.0000
  Fe  Fe14      1.0  0.33454  0.43271  0.86593  1.0000
  H   H160      1.0  0.32699  0.11213  0.85100  1.0000
  H   H161      1.0  0.32141  0.18596  0.83624  1.0000
  H   H162      1.0  0.41346  0.09729  0.84010  1.0000
  Fe  Fe15      1.0  0.42648  0.41093  0.84774  1.0000
  N   N7        1.0  0.36877  0.03417  0.95172  1.0000
  H   H163      1.0  0.31481  0.08366  0.95617  1.0000
  H   H164      1.0  0.42577  0.00242  0.82764  1.0000
  S   S33       1.0  0.47914  0.43140  0.82566  1.0000
  H   H165      1.0  0.22969  0.41108  0.95485  1.0000
  H   H166      1.0  0.24636  0.44805  0.83527  1.0000
  S   S34       1.0  0.40067  0.45338  0.87385  1.0000
  Fe  Fe16      1.0  0.35319  0.01186  0.87628  1.0000
  H   H167      1.0  0.27409  0.01877  0.95909  1.0000
  H   H168      1.0  0.39452  0.16369  0.90096  1.0000
  H   H169      1.0  0.43435  0.12093  0.94197  1.0000
  H   H170      1.0  0.32936  0.07108  0.93044  1.0000
  H   H171      1.0  0.37283  0.06448  0.81879  1.0000
  H   H172      1.0  0.23092  0.39520  0.90979  1.0000
  H   H173      1.0  0.42230  0.07874  0.92443  1.0000
  H   H174      1.0  0.29502  0.44736  0.90971  1.0000
  H   H175      1.0  0.19922  0.43896  0.92192  1.0000
  H   H176      1.0  0.35727  0.36086  0.93047  1.0000
  C   C99       1.0  0.36731  0.37570  0.94436  1.0000
  H   H177      1.0  0.43050  0.05728  0.96153  1.0000
  H   H178      1.0  0.37565  0.01991  0.80104  1.0000
  S   S35       1.0  0.43760  0.40244  0.92232  1.0000
  C   C100      1.0  0.27134  0.44387  0.92247  1.0000
  C   C101      1.0  0.32582  0.05615  0.94550  1.0000
  C   C102      1.0  0.34210  0.37259  0.96225  1.0000
  H   H179      1.0  0.44880  0.43238  0.96306  1.0000
  H   H180      1.0  0.37952  0.01747  0.91996  1.0000
  H   H181      1.0  0.28573  0.41527  0.93057  1.0000
  C   C103      1.0  0.23333  0.48257  0.95229  1.0000
  C   C104      1.0  0.39876  0.06994  0.95587  1.0000
  N   N8        1.0  0.46637  0.05689  0.82565  1.0000
  H   H182      1.0  0.31242  0.35564  0.96200  1.0000
  H   H183      1.0  0.22513  0.44727  0.89774  1.0000
  H   H184      1.0  0.38839  0.23754  0.88631  1.0000
  C   C105      1.0  0.43652  0.02571  0.81627  1.0000
  C   C106      1.0  0.22913  0.43116  0.91246  1.0000
  C   C107      1.0  0.41896  0.41573  0.96280  1.0000
  C   C108      1.0  0.39449  0.04647  0.80725  1.0000
  H   H185      1.0  0.40135  0.06808  0.79456  1.0000
  C   C109      1.0  0.23158  0.48100  0.83711  1.0000
  H   H186      1.0  0.38456  0.09222  0.96829  1.0000
  H   H187      1.0  0.46137  0.14414  0.85209  1.0000
  N   N9        1.0  0.26758  0.48480  0.93559  1.0000
  H   H188      1.0  0.19982  0.48770  0.94652  1.0000
  C   C110      1.0  0.23549  0.44020  0.96434  1.0000
  H   H189      1.0  0.44734  0.11431  0.80865  1.0000
  C   C111      1.0  0.38587  0.00292  0.93489  1.0000
  H   H190      1.0  0.21738  0.48666  0.77365  1.0000
  H   H191      1.0  0.29630  0.99615  0.93515  1.0000
  H   H192      1.0  0.45202  0.00186  0.92123  1.0000
  H   H193      1.0  0.46154  0.10721  0.87283  1.0000
  C   C112      1.0  0.46980  0.10992  0.85648  1.0000
  H   H194      1.0  0.49164  0.46363  0.90618  1.0000
  H   H195      1.0  0.45394  0.00471  0.80420  1.0000
  C   C113      1.0  0.47689  0.09239  0.81138  1.0000
  H   H196      1.0  0.47586  0.05618  0.78209  1.0000
  H   H197      1.0  0.45283  0.99570  0.94812  1.0000
  C   C114      1.0  0.31094  0.49006  0.94508  1.0000
  S   S36       1.0  0.28989  0.84942  0.05712  1.0000
  H   H198      1.0  0.31026  0.81094  0.01309  1.0000
  H   H199      1.0  0.37606  0.58533  0.04855  1.0000
  S   S37       1.0  0.38091  0.74459  0.05729  1.0000
  C   C115      1.0  0.28763  0.70938  0.99405  1.0000
  H   H200      1.0  0.39751  0.63911  0.11896  1.0000
  Fe  Fe17      1.0  0.39902  0.90739  0.05792  1.0000
  S   S38       1.0  0.29365  0.56265  0.06803  1.0000
  S   S39       1.0  0.28359  0.90630  0.00470  1.0000
  C   C116      1.0  0.47290  0.98422  0.07182  1.0000
  H   H201      1.0  0.27630  0.81738  0.98139  1.0000
  S   S40       1.0  0.38586  0.85632  0.03445  1.0000
  H   H202      1.0  0.21107  0.74770  0.00329  1.0000
  H   H203      1.0  0.45853  0.62159  0.13940  1.0000
  Fe  Fe18      1.0  0.32186  0.49168  0.06286  1.0000
  H   H204      1.0  0.38806  0.97297  0.99523  1.0000
  H   H205      1.0  0.11456  0.95315  0.22600  1.0000
  S   S41       1.0  0.33439  0.94471  0.05471  1.0000
  Fe  Fe19      1.0  0.31939  0.89058  0.03328  1.0000
  H   H206      1.0  0.38616  0.76390  0.01371  1.0000
  C   C117      1.0  0.31742  0.61312  0.06378  1.0000
  C   C118      1.0  0.29465  0.65243  0.07061  1.0000
  C   C119      1.0  0.31299  0.69306  0.06839  1.0000
  C   C120      1.0  0.35469  0.69484  0.05948  1.0000
  C   C121      1.0  0.37718  0.65559  0.05236  1.0000
  C   C122      1.0  0.35851  0.61509  0.05427  1.0000
  H   H207      1.0  0.26274  0.65141  0.07791  1.0000
  H   H208      1.0  0.29524  0.72283  0.07399  1.0000
  Fe  Fe20      1.0  0.35787  0.81773  0.05970  1.0000
  S   S42       1.0  0.37674  0.86660  0.08345  1.0000
  H   H209      1.0  0.27729  0.68690  0.02525  1.0000
  H   H210      1.0  0.38357  0.54948  0.08434  1.0000
  H   H211      1.0  0.24176  0.83347  0.02143  1.0000
  N   N10       1.0  0.41847  0.57251  0.11001  1.0000
  C   C123      1.0  0.15599  0.94177  0.25127  1.0000
  H   H212      1.0  0.30171  0.64636  0.00782  1.0000
  H   H213      1.0  0.21970  0.94910  0.06980  1.0000
  H   H214      1.0  0.31519  0.76251  0.02634  1.0000
  H   H215      1.0  0.25778  0.69583  0.98809  1.0000
  S   S43       1.0  0.27096  0.93303  0.10538  1.0000
  H   H216      1.0  0.31287  0.70218  0.98178  1.0000
  H   H217      1.0  0.40931  0.65653  0.04529  1.0000
  H   H218      1.0  0.21142  0.82934  0.99868  1.0000
  H   H219      1.0  0.33396  0.68795  0.01711  1.0000
  H   H220      1.0  0.31338  0.56110  0.13104  1.0000
  C   C124      1.0  0.36255  0.76723  0.00141  1.0000
  H   H221      1.0  0.38354  0.58104  0.13903  1.0000
  Fe  Fe21      1.0  0.31053  0.90130  0.07876  1.0000
  C   C125      1.0  0.27907  0.78137  0.97872  1.0000
  C   C126      1.0  0.46838  0.58622  0.13977  1.0000
  H   H222      1.0  0.37285  0.87603  0.99326  1.0000
  C   C127      1.0  0.38354  0.56035  0.12502  1.0000
  C   C128      1.0  0.20563  0.96986  0.08211  1.0000
  C   C129      1.0  0.35534  0.88314  0.97976  1.0000
  C   C130      1.0  0.31571  0.77498  0.01069  1.0000
  H   H223      1.0  0.43765  0.66789  0.08561  1.0000
  H   H224      1.0  0.38375  0.62432  0.09414  1.0000
  C   C131      1.0  0.45005  0.54792  0.07437  1.0000
  H   H225      1.0  0.17017  0.95816  0.22064  1.0000
  H   H226      1.0  0.24016  0.75254  0.02571  1.0000
  H   H227      1.0  0.44493  0.52325  0.06230  1.0000
  H   H228      1.0  0.37091  0.79492  0.99193  1.0000
  C   C132      1.0  0.31164  0.89907  0.98117  1.0000
  C   C133      1.0  0.21923  0.81369  0.01314  1.0000
  C   C134      1.0  0.22455  0.96855  0.10101  1.0000
  C   C135      1.0  0.41011  0.62016  0.10518  1.0000
  C   C136      1.0  0.33611  0.56497  0.11794  1.0000
  C   C137      1.0  0.41562  0.54356  0.09145  1.0000
  C   C138      1.0  0.30078  0.68155  0.01224  1.0000
  H   H229      1.0  0.18129  0.95698  0.26004  1.0000
  C   C139      1.0  0.23721  0.76569  0.01027  1.0000
  H   H230      1.0  0.32978  0.53885  0.10683  1.0000
  S   S44       1.0  0.46236  0.94116  0.05492  1.0000
  H   H231      1.0  0.36802  0.73680  0.99218  1.0000
  N   N11       1.0  0.27994  0.75785  0.99840  1.0000
  H   H232      1.0  0.32726  0.59732  0.11157  1.0000
  H   H233      1.0  0.41892  0.97481  0.09235  1.0000
  H   H234      1.0  0.18836  0.81494  0.02240  1.0000
  C   C140      1.0  0.14404  0.96719  0.23215  1.0000
  H   H235      1.0  0.38998  0.52594  0.12978  1.0000
  H   H236      1.0  0.16901  0.90813  0.24679  1.0000
  H   H237      1.0  0.41789  0.50858  0.09567  1.0000
  H   H238      1.0  0.12682  0.93840  0.26128  1.0000
  H   H239      1.0  0.46712  0.52659  0.12195  1.0000
  H   H240      1.0  0.46244  0.66460  0.10921  1.0000
  C   C141      1.0  0.44936  0.64428  0.09704  1.0000
  H   H241      1.0  0.44617  0.58016  0.06727  1.0000
  H   H242      1.0  0.45026  0.57132  0.15229  1.0000
  H   H243      1.0  0.20972  0.77665  0.97144  1.0000
  H   H244      1.0  0.48386  0.54072  0.07922  1.0000
  H   H245      1.0  0.47622  0.62346  0.08961  1.0000
  C   C142      1.0  0.39965  0.98748  0.98098  1.0000
  C   C143      1.0  0.46193  0.56238  0.11944  1.0000
  H   H246      1.0  0.48965  0.56966  0.10932  1.0000
  H   H247      1.0  0.41451  0.95975  0.97152  1.0000
  Fe  Fe22      1.0  0.26677  0.70119  0.61876  1.0000
  S   S45       1.0  0.33328  0.72957  0.61428  1.0000
  Fe  Fe23      1.0  0.16917  0.73268  0.61871  1.0000
  S   S46       1.0  0.11294  0.78498  0.61939  1.0000
  Fe  Fe24      1.0  0.20054  0.64314  0.60022  1.0000
  S   S47       1.0  0.18501  0.60165  0.57290  1.0000
  S   S48       1.0  0.21832  0.71155  0.59406  1.0000
  C   C144      1.0  0.30779  0.58719  0.57378  1.0000
  H   H248      1.0  0.05219  0.49679  0.39242  1.0000
  H   H249      1.0  0.06443  0.87919  0.43239  1.0000
  S   S49       1.0  0.25264  0.63091  0.62300  1.0000
  H   H250      1.0  0.31891  0.63482  0.53394  1.0000
  H   H251      1.0  0.46902  0.61066  0.56566  1.0000
  C   C145      1.0  0.02735  0.98899  0.48516  1.0000
  H   H252      1.0  0.13359  0.90379  0.49381  1.0000
  H   H253      1.0  0.39850  0.58564  0.56780  1.0000
  H   H254      1.0  0.17528  0.54081  0.60556  1.0000
  C   C146      1.0  0.05309  0.83915  0.60087  1.0000
  H   H255      1.0  0.05603  0.52064  0.46129  1.0000
  C   C147      1.0  0.39826  0.62170  0.56924  1.0000
  S   S50       1.0  0.05582  0.93053  0.37319  1.0000
  C   C148      1.0  0.38743  0.70663  0.61729  1.0000
  H   H256      1.0  0.39747  0.62853  0.58580  1.0000
  C   C149      1.0  0.46624  0.71437  0.61342  1.0000
  C   C150      1.0  0.47514  0.67143  0.61942  1.0000
  H   H257      1.0  0.03623  0.95238  0.44744  1.0000
  C   C151      1.0  0.15558  0.53107  0.59322  1.0000
  H   H258      1.0  0.37121  0.65188  0.52769  1.0000
  N   N12       1.0  0.03097  0.90842  0.47255  1.0000
  H   H259      1.0  0.08477  0.49520  0.54902  1.0000
  H   H260      1.0  0.35696  0.55820  0.54125  1.0000
  H   H261      1.0  0.03268  0.83775  0.46891  1.0000
  C   C152      1.0  0.15449  0.55520  0.57561  1.0000
  H   H262      1.0  0.06323  0.55805  0.44179  1.0000
  H   H263      1.0  0.03450  0.83868  0.61500  1.0000
  C   C153      1.0  0.09315  0.81427  0.59853  1.0000
  C   C154      1.0  0.11690  0.81501  0.58018  1.0000
  C   C155      1.0  0.10113  0.84149  0.56453  1.0000
  H   H264      1.0  0.14786  0.79607  0.57825  1.0000
  H   H265      1.0  0.12015  0.84277  0.55057  1.0000
  C   C156      1.0  0.31869  0.63525  0.57253  1.0000
  C   C157      1.0  0.03707  0.86506  0.58517  1.0000
  H   H266      1.0  0.28022  0.58496  0.58486  1.0000
  N   N13       1.0  0.35877  0.64409  0.55992  1.0000
  H   H267      1.0  0.44434  0.63629  0.54430  1.0000
  C   C158      1.0  0.43992  0.64639  0.62456  1.0000
  H   H268      1.0  0.09312  0.61420  0.59416  1.0000
  C   C159      1.0  0.11006  0.93830  0.60405  1.0000
  H   H269      1.0  0.03036  0.85492  0.50783  1.0000
  C   C160      1.0  0.42266  0.73175  0.61231  1.0000
  C   C161      1.0  0.06192  0.63423  0.59277  1.0000
  H   H270      1.0  0.37253  0.70313  0.57645  1.0000
  H   H271      1.0  0.28882  0.65245  0.56667  1.0000
  C   C162      1.0  0.03985  0.54910  0.45375  1.0000
  C   C163      1.0  0.10437  0.50508  0.56136  1.0000
  H   H272      1.0  0.02634  0.63350  0.34721  1.0000
  H   H273      1.0  0.12205  0.90954  0.59443  1.0000
  C   C164      1.0  0.08009  0.98401  0.31842  1.0000
  H   H274      1.0  0.09320  0.87658  0.46261  1.0000
  C   C165      1.0  0.08005  0.90341  0.47315  1.0000
  C   C166      1.0  0.01158  0.86522  0.47607  1.0000
  C   C167      1.0  0.11427  0.98496  0.35683  1.0000
  H   H275      1.0  0.01945  0.90459  0.41982  1.0000
  H   H276      1.0  0.08281  0.91022  0.50663  1.0000
  H   H277      1.0  0.39129  0.70154  0.55095  1.0000
  C   C168      1.0  0.06093  0.96040  0.33394  1.0000
  S   S51       1.0  0.14848  0.66505  0.62325  1.0000
  H   H278      1.0  0.29587  0.57503  0.55923  1.0000
  H   H279      1.0  0.04244  0.56916  0.41055  1.0000
  C   C169      1.0  0.06135  0.86690  0.56705  1.0000
  H   H280      1.0  0.01661  0.93395  0.50334  1.0000
  C   C170      1.0  0.39632  0.66391  0.62362  1.0000
  H   H281      1.0  0.02769  0.66337  0.56688  1.0000
  C   C171      1.0  0.37039  0.58329  0.53165  1.0000
  C   C172      1.0  0.09998  0.89266  0.49364  1.0000
  C   C173      1.0  0.13216  0.49340  0.59466  1.0000
  H   H282      1.0  0.12809  0.56035  0.54596  1.0000
  C   C174      1.0  0.03221  0.50071  0.40670  1.0000
  H   H283      1.0  0.36029  0.57653  0.51599  1.0000
  H   H284      1.0  0.08573  0.65725  0.56410  1.0000
  H   H285      1.0  0.12788  0.98514  0.37167  1.0000
  H   H286      1.0  0.44643  0.61316  0.62928  1.0000
  H   H287      1.0  0.41618  0.76486  0.60740  1.0000
  H   H288      1.0  0.33376  0.75600  0.55306  1.0000
  H   H289      1.0  0.32147  0.64821  0.58828  1.0000
  H   H290      1.0  0.11160  0.97983  0.57872  1.0000
  C   C175      1.0  0.01910  0.92305  0.45169  1.0000
  C   C176      1.0  0.07816  0.96043  0.35321  1.0000
  C   C177      1.0  0.12895  0.54195  0.55967  1.0000
  C   C178      1.0  0.01411  0.54872  0.40938  1.0000
  C   C179      1.0  0.44288  0.63485  0.56100  1.0000
  H   H291      1.0  0.45049  0.66696  0.56760  1.0000
  C   C180      1.0  0.36378  0.69268  0.56103  1.0000
  C   C181      1.0  0.02919  0.88931  0.43419  1.0000
  H   H292      1.0  0.33509  0.56549  0.57911  1.0000
  Fe  Fe25      1.0  0.99891  0.88666  0.37106  1.0000
  H   H293      1.0  0.10163  0.85698  0.49619  1.0000
  H   H294      1.0  0.08775  0.92612  0.61578  1.0000
  C   C182      1.0  0.35379  0.63043  0.53808  1.0000
  S   S52       1.0  0.04414  0.90278  0.54792  1.0000
  H   H295      1.0  0.06776  0.66648  0.59983  1.0000
  C   C183      1.0  0.07074  0.57912  0.63219  1.0000
  H   H296      1.0  0.06096  0.95631  0.58265  1.0000
  H   H297      1.0  0.03315  0.94174  0.33095  1.0000
  H   H298      1.0  0.40653  0.57894  0.53140  1.0000
  H   H299      1.0  0.10172  0.58141  0.62342  1.0000
  C   C184      1.0  0.05667  0.64136  0.57000  1.0000
  C   C185      1.0  0.32374  0.72232  0.55521  1.0000
  H   H300      1.0  0.13919  0.95043  0.61114  1.0000
  H   H301      1.0  0.30949  0.71116  0.54101  1.0000
  H   H302      1.0  0.29845  0.72474  0.56761  1.0000
  H   H303      1.0  0.09533  0.93250  0.46718  1.0000
  H   H304      1.0  0.49291  0.73409  0.60947  1.0000
  H   H305      1.0  0.03467  0.57680  0.46487  1.0000
  H   H306      1.0  0.05586  0.61017  0.56131  1.0000
  H   H307      1.0  0.00253  0.70597  0.59744  1.0000
  C   C186      1.0  0.08697  0.97264  0.59061  1.0000
  H   H308      1.0  0.36964  0.64418  0.62751  1.0000
  H   H309      1.0  0.06316  0.98916  0.48657  1.0000
  H   H310      1.0  0.99706  0.50018  0.44386  1.0000
  H   H311      1.0  0.00839  0.61934  0.43448  1.0000
  H   H312      1.0  0.01008  0.86016  0.43573  1.0000
  S   S53       1.0  0.99780  0.82717  0.39033  1.0000
  H   H313      1.0  0.06036  0.54533  0.63077  1.0000
  C   C187      1.0  0.00192  0.85316  0.49815  1.0000
  N   N14       1.0  0.02520  0.61345  0.60369  1.0000
  C   C188      1.0  0.01129  0.94285  0.48745  1.0000
  C   C189      1.0  0.03474  0.61325  0.62590  1.0000
  H   H314      1.0  0.05447  0.54885  0.59528  1.0000
  H   H315      1.0  0.02177  0.96997  0.61372  1.0000
  H   H316      1.0  0.99957  0.55783  0.39475  1.0000
  H   H317      1.0  0.04505  0.64565  0.63108  1.0000
  C   C190      1.0  0.02240  0.56783  0.59519  1.0000
  H   H318      1.0  0.00630  0.88420  0.58728  1.0000
  H   H319      1.0  0.01484  0.56838  0.57890  1.0000
  C   C191      1.0  0.99586  0.53626  0.44561  1.0000
  H   H320      1.0  0.00495  0.60845  0.63534  1.0000
  H   H321      1.0  0.06677  0.98330  0.30353  1.0000
  H   H322      1.0  0.99931  0.50564  0.60462  1.0000
  H   H323      1.0  0.05385  0.49060  0.41908  1.0000
  Fe  Fe26      1.0  0.36044  0.91976  0.89343  1.0000
  H   H324      1.0  0.45817  0.74041  0.68009  1.0000
  H   H325      1.0  0.16814  0.56875  0.73077  1.0000
  Fe  Fe27      1.0  0.03463  0.69510  0.80429  1.0000
  H   H326      1.0  0.24469  0.79008  0.95086  1.0000
  Fe  Fe28      1.0  0.20115  0.65865  0.64576  1.0000
  S   S54       1.0  0.34691  0.88654  0.86400  1.0000
  Fe  Fe29      1.0  0.11094  0.62670  0.81023  1.0000
  S   S55       1.0  0.06490  0.66595  0.83202  1.0000
  S   S56       1.0  0.13441  0.55514  0.81133  1.0000
  Fe  Fe30      1.0  0.12467  0.70340  0.78358  1.0000
  S   S57       1.0  0.08068  0.74939  0.80308  1.0000
  S   S58       1.0  0.16650  0.72823  0.75834  1.0000
  Fe  Fe31      1.0  0.11311  0.71762  0.82918  1.0000
  S   S59       1.0  0.13694  0.75236  0.85680  1.0000
  S   S60       1.0  0.16100  0.67599  0.80967  1.0000
  S   S61       1.0  0.07698  0.65145  0.78256  1.0000
  H   H327      1.0  0.19089  0.51505  0.73422  1.0000
  H   H328      1.0  0.27818  0.52383  0.90931  1.0000
  C   C192      1.0  0.25723  0.52929  0.75554  1.0000
  S   S62       1.0  0.18265  0.62474  0.67439  1.0000
  N   N15       1.0  0.22453  0.56549  0.74977  1.0000
  C   C193      1.0  0.17438  0.65729  0.69661  1.0000
  C   C194      1.0  0.14484  0.64511  0.71166  1.0000
  C   C195      1.0  0.14119  0.66743  0.73048  1.0000
  C   C196      1.0  0.16725  0.70202  0.73436  1.0000
  C   C197      1.0  0.19599  0.71494  0.71912  1.0000
  C   C198      1.0  0.19947  0.69274  0.70026  1.0000
  H   H329      1.0  0.12502  0.61802  0.70880  1.0000
  H   H330      1.0  0.11861  0.65752  0.74201  1.0000
  H   H331      1.0  0.21604  0.74184  0.72196  1.0000
  H   H332      1.0  0.22243  0.70224  0.68876  1.0000
  H   H333      1.0  0.00628  0.70882  0.87386  1.0000
  S   S63       1.0  0.43767  0.90855  0.82455  1.0000
  H   H334      1.0  0.41914  0.75670  0.89364  1.0000
  C   C199      1.0  0.00746  0.77143  0.84875  1.0000
  C   C200      1.0  0.16390  0.80072  0.85345  1.0000
  C   C201      1.0  0.15000  0.83122  0.83928  1.0000
  C   C202      1.0  0.17030  0.87067  0.83768  1.0000
  C   C203      1.0  0.20562  0.87937  0.84972  1.0000
  C   C204      1.0  0.22003  0.84856  0.86367  1.0000
  C   C205      1.0  0.19876  0.80967  0.86574  1.0000
  H   H335      1.0  0.12305  0.82482  0.82983  1.0000
  H   H336      1.0  0.15871  0.89451  0.82699  1.0000
  H   H337      1.0  0.24709  0.85501  0.87307  1.0000
  H   H338      1.0  0.20947  0.78635  0.87683  1.0000
  Fe  Fe32      1.0  0.29500  0.94084  0.86130  1.0000
  C   C206      1.0  0.47626  0.51837  0.83796  1.0000
  S   S64       1.0  0.23153  0.92841  0.84637  1.0000
  S   S65       1.0  0.28432  0.49061  0.86998  1.0000
  C   C207      1.0  0.31117  0.90326  0.94448  1.0000
  S   S66       1.0  0.33895  0.98577  0.84535  1.0000
  H   H339      1.0  0.22455  0.62011  0.72967  1.0000
  C   C208      1.0  0.17778  0.53824  0.82695  1.0000
  C   C209      1.0  0.19209  0.56610  0.84195  1.0000
  C   C210      1.0  0.22518  0.55109  0.85480  1.0000
  H   H340      1.0  0.41521  0.77293  0.85485  1.0000
  C   C211      1.0  0.25213  0.56815  0.93308  1.0000
  C   C212      1.0  0.45948  0.72962  0.82272  1.0000
  H   H341      1.0  0.17689  0.59884  0.84400  1.0000
  H   H342      1.0  0.23528  0.57254  0.86668  1.0000
  H   H343      1.0  0.36752  0.97308  0.93490  1.0000
  H   H344      1.0  0.29068  0.90852  0.80391  1.0000
  H   H345      1.0  0.18864  0.62356  0.76235  1.0000
  C   C213      1.0  0.24279  0.76969  0.96444  1.0000
  H   H346      1.0  0.24366  0.52716  0.78852  1.0000
  H   H347      1.0  0.26736  0.58574  0.70125  1.0000
  H   H348      1.0  0.27727  0.60077  0.73682  1.0000
  H   H349      1.0  0.39813  0.70694  0.84952  1.0000
  N   N16       1.0  0.47728  0.73704  0.86070  1.0000
  H   H350      1.0  0.40867  0.65293  0.85788  1.0000
  H   H351      1.0  0.44145  0.70744  0.65974  1.0000
  S   S67       1.0  0.40963  0.96200  0.87981  1.0000
  H   H352      1.0  0.26187  0.50383  0.74328  1.0000
  C   C214      1.0  0.18336  0.54716  0.74221  1.0000
  H   H353      1.0  0.11973  0.52452  0.75034  1.0000
  H   H354      1.0  0.46167  0.69110  0.88356  1.0000
  H   H355      1.0  0.48893  0.54373  0.90029  1.0000
  H   H356      1.0  0.24124  0.64103  0.78891  1.0000
  H   H357      1.0  0.30847  0.51702  0.95667  1.0000
  Fe  Fe33      1.0  0.39163  0.93290  0.85027  1.0000
  H   H358      1.0  0.02383  0.75925  0.89784  1.0000
  H   H359      1.0  0.24312  0.59312  0.92180  1.0000
  H   H360      1.0  0.34446  0.52882  0.92229  1.0000
  C   C215      1.0  0.44469  0.77595  0.86375  1.0000
  C   C216      1.0  0.45786  0.70622  0.67442  1.0000
  C   C217      1.0  0.35485  0.88701  0.94313  1.0000
  C   C218      1.0  0.34956  0.49794  0.93046  1.0000
  H   H361      1.0  0.03899  0.75919  0.85508  1.0000
  C   C219      1.0  0.42865  0.78614  0.88576  1.0000
  H   H362      1.0  0.28996  0.54195  0.75735  1.0000
  H   H363      1.0  0.22181  0.55459  0.70587  1.0000
  H   H364      1.0  0.29396  0.91096  0.93090  1.0000
  N   N17       1.0  0.26630  0.81951  0.79514  1.0000
  C   C220      1.0  0.29493  0.83811  0.81087  1.0000
  C   C221      1.0  0.24424  0.78225  0.80461  1.0000
  C   C222      1.0  0.23266  0.85525  0.78966  1.0000
  C   C223      1.0  0.29513  0.80494  0.77703  1.0000
  C   C224      1.0  0.31561  0.88099  0.80551  1.0000
  C   C225      1.0  0.27474  0.74331  0.81093  1.0000
  C   C226      1.0  0.18966  0.84107  0.78101  1.0000
  C   C227      1.0  0.27429  0.77936  0.76000  1.0000
  H   H365      1.0  0.27623  0.84458  0.82544  1.0000
  H   H366      1.0  0.32259  0.81442  0.81429  1.0000
  H   H367      1.0  0.22018  0.76842  0.79460  1.0000
  H   H368      1.0  0.22461  0.79427  0.81829  1.0000
  H   H369      1.0  0.22253  0.87636  0.80315  1.0000
  H   H370      1.0  0.24678  0.87757  0.77862  1.0000
  H   H371      1.0  0.30818  0.83363  0.76962  1.0000
  H   H372      1.0  0.32514  0.78555  0.78146  1.0000
  H   H373      1.0  0.33634  0.89055  0.81807  1.0000
  H   H374      1.0  0.33726  0.87730  0.79180  1.0000
  C   C228      1.0  0.25506  0.52274  0.92249  1.0000
  H   H375      1.0  0.25440  0.71738  0.81661  1.0000
  H   H376      1.0  0.29508  0.72880  0.79803  1.0000
  H   H377      1.0  0.29553  0.75230  0.82352  1.0000
  H   H378      1.0  0.17043  0.87032  0.77570  1.0000
  H   H379      1.0  0.16906  0.82659  0.79280  1.0000
  H   H380      1.0  0.19483  0.81792  0.76800  1.0000
  H   H381      1.0  0.25749  0.80174  0.74937  1.0000
  H   H382      1.0  0.25161  0.75571  0.76553  1.0000
  H   H383      1.0  0.30021  0.75895  0.75142  1.0000
  C   C229      1.0  0.37672  0.87661  0.96079  1.0000
  H   H384      1.0  0.38994  0.69430  0.87579  1.0000
  C   C230      1.0  0.41144  0.68787  0.86209  1.0000
  C   C231      1.0  0.24491  0.58977  0.73273  1.0000
  C   C232      1.0  0.21363  0.59797  0.76698  1.0000
  H   H385      1.0  0.33785  0.98393  0.96820  1.0000
  H   H386      1.0  0.24702  0.73507  0.95914  1.0000
  C   C233      1.0  0.25262  0.56416  0.71241  1.0000
  S   S68       1.0  0.38336  0.87991  0.91973  1.0000
  C   C234      1.0  0.45950  0.69457  0.86692  1.0000
  H   H387      1.0  0.48009  0.67085  0.71168  1.0000
  H   H388      1.0  0.15585  0.52216  0.77079  1.0000
  C   C235      1.0  0.24504  0.50852  0.85247  1.0000
  C   C236      1.0  0.25227  0.62189  0.77505  1.0000
  H   H389      1.0  0.01719  0.84190  0.85371  1.0000
  H   H390      1.0  0.22638  0.57109  0.94524  1.0000
  H   H391      1.0  0.45883  0.80589  0.85800  1.0000
  H   H392      1.0  0.47723  0.58471  0.84918  1.0000
  C   C237      1.0  0.24678  0.50510  0.77498  1.0000
  H   H393      1.0  0.39950  0.80972  0.88587  1.0000
  H   H394      1.0  0.43754  0.68747  0.68470  1.0000
  H   H395      1.0  0.41060  0.86422  0.95982  1.0000
  H   H396      1.0  0.22281  0.51872  0.91574  1.0000
  C   C238      1.0  0.01316  0.81798  0.84126  1.0000
  C   C239      1.0  0.14584  0.54161  0.75776  1.0000
  H   H397      1.0  0.28382  0.57632  0.93913  1.0000
  H   H398      1.0  0.13075  0.57375  0.76332  1.0000
  H   H399      1.0  0.19834  0.58242  0.78012  1.0000
  H   H400      1.0  0.04361  0.80312  0.88313  1.0000
  H   H401      1.0  0.04343  0.81741  0.83166  1.0000
  S   S69       1.0  0.30477  0.97103  0.89211  1.0000
  H   H402      1.0  0.27971  0.59902  0.77932  1.0000
  C   C240      1.0  0.28951  0.90893  0.96348  1.0000
  H   H403      1.0  0.27563  0.53499  0.71367  1.0000
  H   H404      1.0  0.44559  0.69730  0.82320  1.0000
  H   H405      1.0  0.26367  0.64571  0.76409  1.0000
  H   H406      1.0  0.48398  0.89976  0.86206  1.0000
  H   H407      1.0  0.25559  0.92116  0.96447  1.0000
  S   S70       1.0  0.21848  0.72809  0.64317  1.0000
  H   H408      1.0  0.00421  0.75053  0.83508  1.0000
  H   H409      1.0  0.07787  0.58501  0.64833  1.0000
  H   H410      1.0  0.01337  0.81487  0.90627  1.0000
  H   H411      1.0  0.48005  0.66630  0.86006  1.0000
  C   C241      1.0  0.01597  0.79286  0.89266  1.0000
  C   C242      1.0  0.19769  0.49569  0.82456  1.0000
  H   H412      1.0  0.43917  0.95199  0.93210  1.0000
  H   H413      1.0  0.45368  0.80217  0.89445  1.0000
  H   H414      1.0  0.44547  0.51306  0.84552  1.0000
  H   H415      1.0  0.43364  0.75667  0.82332  1.0000
  C   C243      1.0  0.48725  0.88015  0.83060  1.0000
  H   H416      1.0  0.47634  0.73087  0.80767  1.0000
  H   H417      1.0  0.47925  0.97854  0.84741  1.0000
  C   C244      1.0  0.49355  0.73421  0.83898  1.0000
  C   C245      1.0  0.43514  0.98804  0.93443  1.0000
  H   H418      1.0  0.37939  0.50044  0.93933  1.0000
  H   H419      1.0  0.23565  0.50966  0.96359  1.0000
  C   C246      1.0  0.49427  0.55906  0.83993  1.0000
  H   H420      1.0  0.48279  0.50998  0.87854  1.0000
  H   H421      1.0  0.31056  0.77478  0.97002  1.0000
  C   C247      1.0  0.81767  0.18901  0.06807  1.0000
  Fe  Fe34      1.0  0.67057  0.13411  0.11421  1.0000
  S   S71       1.0  0.66185  0.20575  0.12166  1.0000
  S   S72       1.0  0.73726  0.09800  0.10864  1.0000
  Fe  Fe35      1.0  0.57126  0.12339  0.11785  1.0000
  S   S73       1.0  0.55642  0.19440  0.12598  1.0000
  S   S74       1.0  0.51166  0.08397  0.11937  1.0000
  Fe  Fe36      1.0  0.60496  0.20609  0.10111  1.0000
  S   S75       1.0  0.59222  0.24937  0.07454  1.0000
  Fe  Fe37      1.0  0.61425  0.18627  0.14571  1.0000
  S   S76       1.0  0.61585  0.21512  0.17727  1.0000
  S   S77       1.0  0.61678  0.13516  0.09181  1.0000
  S   S78       1.0  0.62605  0.11443  0.13939  1.0000
  Fe  Fe38      1.0  0.65646  0.10715  0.27864  1.0000
  H   H422      1.0  0.83006  0.11133  0.17862  1.0000
  S   S79       1.0  0.65001  0.08064  0.24692  1.0000
  H   H423      1.0  0.52739  0.38391  0.10840  1.0000
  C   C248      1.0  0.52984  0.18482  0.26403  1.0000
  H   H424      1.0  0.54933  0.05832  0.07933  1.0000
  C   C249      1.0  0.62436  0.17774  0.19670  1.0000
  C   C250      1.0  0.61701  0.13363  0.19386  1.0000
  C   C251      1.0  0.62513  0.10413  0.20935  1.0000
  C   C252      1.0  0.63975  0.11870  0.22796  1.0000
  C   C253      1.0  0.64623  0.16298  0.23098  1.0000
  C   C254      1.0  0.63847  0.19243  0.21540  1.0000
  H   H425      1.0  0.60423  0.12228  0.17991  1.0000
  H   H426      1.0  0.61960  0.06999  0.20700  1.0000
  H   H427      1.0  0.65823  0.17447  0.24512  1.0000
  H   H428      1.0  0.64390  0.22660  0.21778  1.0000
  C   C255      1.0  0.78652  0.12267  0.11372  1.0000
  C   C256      1.0  0.82688  0.09849  0.11054  1.0000
  C   C257      1.0  0.82575  0.18555  0.12352  1.0000
  C   C258      1.0  0.78624  0.16623  0.12040  1.0000
  H   H429      1.0  0.82756  0.06475  0.10536  1.0000
  H   H430      1.0  0.82512  0.21943  0.12849  1.0000
  H   H431      1.0  0.75562  0.18523  0.12303  1.0000
  H   H432      1.0  0.77881  0.13889  0.24539  1.0000
  C   C259      1.0  0.73183  0.11322  0.16686  1.0000
  C   C260      1.0  0.52672  0.30619  0.06154  1.0000
  C   C261      1.0  0.55466  0.29553  0.07731  1.0000
  C   C262      1.0  0.55386  0.32304  0.09447  1.0000
  C   C263      1.0  0.52671  0.36197  0.09541  1.0000
  H   H433      1.0  0.70774  0.32249  0.08784  1.0000
  H   H434      1.0  0.52733  0.28520  0.04818  1.0000
  H   H435      1.0  0.57544  0.31526  0.10665  1.0000
  H   H436      1.0  0.67781  0.27403  0.08785  1.0000
  H   H437      1.0  0.71237  0.13324  0.19726  1.0000
  H   H438      1.0  0.72297  0.14319  0.15862  1.0000
  H   H439      1.0  0.84674  0.09066  0.29739  1.0000
  H   H440      1.0  0.73252  0.32297  0.05335  1.0000
  H   H441      1.0  0.69415  0.16661  0.04419  1.0000
  C   C264      1.0  0.75029  0.26244  0.08212  1.0000
  C   C265      1.0  0.52074  0.04049  0.08216  1.0000
  H   H442      1.0  0.68101  0.26130  0.05450  1.0000
  S   S80       1.0  0.91450  0.18873  0.12384  1.0000
  H   H443      1.0  0.71329  0.23289  0.03532  1.0000
  H   H444      1.0  0.84809  0.17895  0.05913  1.0000
  H   H445      1.0  0.66304  0.03471  0.09693  1.0000
  H   H446      1.0  0.59027  0.02728  0.11060  1.0000
  H   H447      1.0  0.78096  0.22303  0.20015  1.0000
  C   C266      1.0  0.86655  0.11775  0.11383  1.0000
  H   H448      1.0  0.74732  0.25533  0.17346  1.0000
  H   H449      1.0  0.81439  0.11220  0.21339  1.0000
  S   S81       1.0  0.63853  0.17726  0.28702  1.0000
  C   C267      1.0  0.71949  0.19399  0.07225  1.0000
  C   C268      1.0  0.76163  0.14526  0.23115  1.0000
  C   C269      1.0  0.78673  0.21698  0.05485  1.0000
  H   H450      1.0  0.72900  0.20408  0.20323  1.0000
  H   H451      1.0  0.74316  0.17744  0.23333  1.0000
  H   H452      1.0  0.52934  0.00164  0.05451  1.0000
  C   C270      1.0  0.73151  0.29780  0.04115  1.0000
  H   H453      1.0  0.76663  0.24420  0.09442  1.0000
  H   H454      1.0  0.77330  0.28716  0.07755  1.0000
  H   H455      1.0  0.89739  0.09891  0.11118  1.0000
  C   C271      1.0  0.74337  0.12216  0.18899  1.0000
  N   N18       1.0  0.74296  0.23204  0.06452  1.0000
  H   H456      1.0  0.71012  0.21339  0.17003  1.0000
  H   H457      1.0  0.70817  0.31124  0.03003  1.0000
  H   H458      1.0  0.76546  0.20754  0.15980  1.0000
  H   H459      1.0  0.80509  0.24541  0.05045  1.0000
  C   C272      1.0  0.71544  0.25457  0.04890  1.0000
  H   H460      1.0  0.80483  0.14762  0.16189  1.0000
  H   H461      1.0  0.54492  0.13137  0.23194  1.0000
  C   C273      1.0  0.79572  0.14470  0.21344  1.0000
  C   C274      1.0  0.86615  0.16157  0.12020  1.0000
  H   H462      1.0  0.80364  0.15857  0.07296  1.0000
  H   H463      1.0  0.75866  0.09372  0.15844  1.0000
  H   H464      1.0  0.74652  0.14098  0.05110  1.0000
  H   H465      1.0  0.82767  0.20775  0.08144  1.0000
  N   N19       1.0  0.77798  0.15371  0.19282  1.0000
  C   C275      1.0  0.70895  0.28748  0.09175  1.0000
  S   S82       1.0  0.71844  0.10355  0.29566  1.0000
  H   H466      1.0  0.76382  0.29296  0.03319  1.0000
  C   C276      1.0  0.75872  0.20032  0.19313  1.0000
  H   H467      1.0  0.73556  0.17994  0.08562  1.0000
  H   H468      1.0  0.71059  0.28700  0.10847  1.0000
  H   H469      1.0  0.78284  0.19839  0.04047  1.0000
  H   H470      1.0  0.69798  0.12998  0.06462  1.0000
  H   H471      1.0  0.68583  0.20478  0.07775  1.0000
  H   H472      1.0  0.56212  0.18437  0.25588  1.0000
  C   C277      1.0  0.71466  0.15618  0.05690  1.0000
  C   C278      1.0  0.49885  0.37274  0.07962  1.0000
  C   C279      1.0  0.74458  0.21944  0.17288  1.0000
  H   H473      1.0  0.87724  0.16824  0.16683  1.0000
  C   C280      1.0  0.65395  0.00099  0.09991  1.0000
  H   H474      1.0  0.73866  0.11921  0.22945  1.0000
  H   H475      1.0  0.57396  0.02999  0.15218  1.0000
  H   H476      1.0  0.87048  0.17208  0.19358  1.0000
  C   C281      1.0  0.85283  0.17629  0.17937  1.0000
  C   C282      1.0  0.49582  0.04827  0.10007  1.0000
  H   H477      1.0  0.70307  0.09329  0.16672  1.0000
  H   H478      1.0  0.81921  0.16900  0.21773  1.0000
  H   H479      1.0  0.53616  0.99769  0.16454  1.0000
  H   H480      1.0  0.55032  0.09485  0.26475  1.0000
  H   H481      1.0  0.51706  0.20008  0.08575  1.0000
  H   H482      1.0  0.53518  0.16262  0.27687  1.0000
  H   H483      1.0  0.75318  0.08946  0.19504  1.0000
  C   C283      1.0  0.81552  0.14548  0.17763  1.0000
  H   H484      1.0  0.54651  0.23802  0.28388  1.0000
  C   C284      1.0  0.51371  0.12650  0.24024  1.0000
  H   H485      1.0  0.50720  0.14549  0.07898  1.0000
  H   H486      1.0  0.62925  0.01879  0.12959  1.0000
  C   C285      1.0  0.61610  0.00345  0.11592  1.0000
  H   H487      1.0  0.84117  0.21100  0.17778  1.0000
  H   H488      1.0  0.54822  0.22854  0.22973  1.0000
  Fe  Fe39      1.0  0.98733  0.16628  0.12377  1.0000
  C   C286      1.0  0.52398  0.08804  0.25432  1.0000
  H   H489      1.0  0.53240  0.99088  0.12729  1.0000
  H   H490      1.0  0.53625  0.05894  0.24497  1.0000
  C   C287      1.0  0.49825  0.34420  0.06287  1.0000
  H   H491      1.0  0.53582  0.18735  0.21113  1.0000
  C   C288      1.0  0.52197  0.21485  0.22102  1.0000
  C   C289      1.0  0.51984  0.23088  0.27363  1.0000
  S   S83       1.0  0.75456  0.21586  0.30342  1.0000
  C   C290      1.0  0.56652  0.99573  0.15489  1.0000
  H   H492      1.0  0.51864  0.25662  0.26219  1.0000
  C   C291      1.0  0.50936  0.00840  0.06812  1.0000
  H   H493      1.0  0.50965  0.24080  0.21084  1.0000
  N   N20       1.0  0.49561  0.16859  0.25048  1.0000
  S   S84       1.0  0.94116  0.09474  0.58065  1.0000
  Fe  Fe40      1.0  0.91918  0.43277  0.57169  1.0000
  S   S85       1.0  0.96886  0.37914  0.57961  1.0000
  H   H494      1.0  0.88080  0.19962  0.33958  1.0000
  Fe  Fe41      1.0  0.95724  0.43862  0.52919  1.0000
  C   C292      1.0  0.74722  0.00112  0.34205  1.0000
  S   S86       1.0  0.94076  0.47418  0.50075  1.0000
  Fe  Fe42      1.0  0.95857  0.34941  0.54895  1.0000
  S   S87       1.0  0.94666  0.27973  0.53820  1.0000
  C   C293      1.0  0.80411  0.37109  0.57853  1.0000
  H   H495      1.0  0.80505  0.26748  0.59629  1.0000
  S   S88       1.0  0.90452  0.40003  0.54238  1.0000
  S   S89       1.0  0.96758  0.47557  0.55812  1.0000
  Fe  Fe43      1.0  0.67760  0.08359  0.32196  1.0000
  S   S90       1.0  0.65985  0.15233  0.33340  1.0000
  S   S91       1.0  0.69993  0.03704  0.34622  1.0000
  H   H496      1.0  0.73614  0.30663  0.61771  1.0000
  H   H497      1.0  0.98296  0.11510  0.35577  1.0000
  H   H498      1.0  0.97189  0.32207  0.45008  1.0000
  H   H499      1.0  0.96271  0.25231  0.57978  1.0000
  S   S92       1.0  0.86971  0.45964  0.59561  1.0000
  H   H500      1.0  0.92687  0.12215  0.53912  1.0000
  Fe  Fe44      1.0  0.89122  0.37414  0.36710  1.0000
  S   S93       1.0  0.83043  0.33638  0.37167  1.0000
  H   H501      1.0  0.86239  0.28059  0.61864  1.0000
  H   H502      1.0  0.87018  0.33295  0.50164  1.0000
  S   S94       1.0  0.90499  0.42773  0.38936  1.0000
  C   C294      1.0  0.77500  0.24889  0.32275  1.0000
  C   C295      1.0  0.81415  0.26880  0.31898  1.0000
  C   C296      1.0  0.83157  0.29556  0.33381  1.0000
  C   C297      1.0  0.80989  0.30273  0.35259  1.0000
  C   C298      1.0  0.77097  0.28237  0.35646  1.0000
  C   C299      1.0  0.75351  0.25560  0.34161  1.0000
  H   H503      1.0  0.85570  0.05660  0.31854  1.0000
  H   H504      1.0  0.86150  0.31107  0.33063  1.0000
  H   H505      1.0  0.75396  0.28787  0.37095  1.0000
  H   H506      1.0  0.72325  0.24066  0.34468  1.0000
  H   H507      1.0  0.88532  0.38642  0.49590  1.0000
  C   C300      1.0  0.83549  0.08507  0.31315  1.0000
  H   H508      1.0  0.83092  0.26395  0.30441  1.0000
  N   N21       1.0  0.53144  0.08943  0.37264  1.0000
  H   H509      1.0  0.76014  0.09646  0.37734  1.0000
  H   H510      1.0  0.53743  0.03206  0.39133  1.0000
  C   C301      1.0  0.94788  0.42731  0.44319  1.0000
  C   C302      1.0  0.93291  0.44761  0.46156  1.0000
  C   C303      1.0  0.96031  0.44845  0.47803  1.0000
  H   H511      1.0  0.87567  0.13280  0.32454  1.0000
  H   H512      1.0  0.92626  0.42608  0.43073  1.0000
  S   S95       1.0  0.53304  0.17702  0.32191  1.0000
  C   C304      1.0  0.84242  0.08456  0.35798  1.0000
  H   H513      1.0  0.89222  0.19456  0.47807  1.0000
  Fe  Fe45      1.0  0.97226  0.39506  0.39014  1.0000
  C   C305      1.0  0.88248  0.30732  0.61390  1.0000
  H   H514      1.0  0.83498  0.16047  0.37612  1.0000
  Fe  Fe46      1.0  0.60216  0.14988  0.31325  1.0000
  S   S96       1.0  0.96611  0.00459  0.53730  1.0000
  C   C306      1.0  0.54171  0.06779  0.39228  1.0000
  H   H515      1.0  0.82354  0.15486  0.31856  1.0000
  C   C307      1.0  0.94289  0.14587  0.56856  1.0000
  H   H516      1.0  0.79005  0.41391  0.60581  1.0000
  C   C308      1.0  0.95453  0.22421  0.57091  1.0000
  C   C309      1.0  0.94603  0.22868  0.55043  1.0000
  C   C310      1.0  0.93611  0.19150  0.53910  1.0000
  C   C311      1.0  0.93464  0.15036  0.54806  1.0000
  H   H517      1.0  0.77313  0.34696  0.62280  1.0000
  H   H518      1.0  0.55610  0.09321  0.34190  1.0000
  H   H519      1.0  0.78634  0.29041  0.62852  1.0000
  C   C312      1.0  0.90644  0.31167  0.44339  1.0000
  C   C313      1.0  0.88710  0.35200  0.49013  1.0000
  H   H520      1.0  0.91215  0.25702  0.49950  1.0000
  H   H521      1.0  0.85089  0.26824  0.54357  1.0000
  H   H522      1.0  0.90835  0.15948  0.35536  1.0000
  C   C314      1.0  0.77133  0.31287  0.61740  1.0000
  H   H523      1.0  0.90949  0.30059  0.42728  1.0000
  S   S97       1.0  0.91128  0.41309  0.34049  1.0000
  H   H524      1.0  0.71682  0.12901  0.36712  1.0000
  H   H525      1.0  0.92946  0.19438  0.52326  1.0000
  H   H526      1.0  0.74348  0.38641  0.59673  1.0000
  H   H527      1.0  0.76342  0.30148  0.58543  1.0000
  C   C315      1.0  0.52475  0.13846  0.37558  1.0000
  H   H528      1.0  0.59744  0.09138  0.35947  1.0000
  H   H529      1.0  0.90967  0.29384  0.60365  1.0000
  H   H530      1.0  0.94983  0.19594  0.47894  1.0000
  C   C316      1.0  0.95282  0.18308  0.57991  1.0000
  C   C317      1.0  0.91287  0.26012  0.48278  1.0000
  H   H531      1.0  0.78352  0.36213  0.56582  1.0000
  H   H532      1.0  0.89193  0.99494  0.45332  1.0000
  C   C318      1.0  0.98996  0.27364  0.48311  1.0000
  H   H533      1.0  0.87940  0.36663  0.59737  1.0000
  C   C319      1.0  0.93551  0.33539  0.48735  1.0000
  Fe  Fe47      1.0  0.97830  0.37995  0.34484  1.0000
  H   H534      1.0  0.59057  0.15229  0.38607  1.0000
  H   H535      1.0  0.87719  0.29686  0.44941  1.0000
  C   C320      1.0  0.77380  0.40181  0.59232  1.0000
  C   C321      1.0  0.56584  0.07785  0.35625  1.0000
  C   C322      1.0  0.56583  0.16454  0.37552  1.0000
  C   C323      1.0  0.57611  0.02859  0.35176  1.0000
  C   C324      1.0  0.94875  0.29711  0.45397  1.0000
  H   H536      1.0  0.86930  0.35187  0.47594  1.0000
  H   H537      1.0  0.58074  0.16539  0.36009  1.0000
  C   C325      1.0  0.77595  0.12562  0.34804  1.0000
  C   C326      1.0  0.75261  0.12691  0.36908  1.0000
  S   S98       1.0  0.61711  0.07981  0.30390  1.0000
  H   H538      1.0  0.54831  0.01322  0.34493  1.0000
  H   H539      1.0  0.95233  0.36115  0.47952  1.0000
  H   H540      1.0  0.75975  0.15583  0.37841  1.0000
  H   H541      1.0  0.58555  0.10302  0.41139  1.0000
  C   C327      1.0  0.79101  0.30194  0.59590  1.0000
  H   H542      1.0  0.89980  0.46209  0.46312  1.0000
  C   C328      1.0  0.83640  0.16591  0.35956  1.0000
  H   H543      1.0  0.83216  0.08547  0.37424  1.0000
  H   H544      1.0  0.88613  0.21088  0.36576  1.0000
  H   H545      1.0  0.90673  0.09096  0.37079  1.0000
  H   H546      1.0  0.82351  0.32111  0.54264  1.0000
  H   H547      1.0  0.97251  0.03339  0.61208  1.0000
  C   C329      1.0  0.89237  0.07515  0.35757  1.0000
  N   N22       1.0  0.82505  0.33093  0.58798  1.0000
  C   C330      1.0  0.92006  0.21365  0.47338  1.0000
  H   H548      1.0  0.79847  0.27752  0.55589  1.0000
  H   H549      1.0  0.76537  0.09628  0.34005  1.0000
  H   H550      1.0  0.76178  0.15403  0.33966  1.0000
  C   C331      1.0  0.99054  0.40835  0.44112  1.0000
  H   H551      1.0  0.76362  0.43129  0.58375  1.0000
  N   N23       1.0  0.82511  0.12543  0.34791  1.0000
  H   H552      1.0  0.90085  0.34781  0.44388  1.0000
  H   H553      1.0  0.92116  0.21379  0.45665  1.0000
  S   S99       1.0  0.95683  0.33862  0.37015  1.0000
  C   C332      1.0  0.85557  0.34477  0.60394  1.0000
  H   H554      1.0  0.87915  0.27201  0.47932  1.0000
  H   H555      1.0  0.94831  0.33498  0.50290  1.0000
  Fe  Fe48      1.0  0.69795  0.17234  0.30614  1.0000
  H   H556      1.0  0.96380  0.26719  0.44598  1.0000
  N   N24       1.0  0.94581  0.29181  0.47653  1.0000
  C   C333      1.0  0.85283  0.30578  0.57177  1.0000
  H   H557      1.0  0.58663  0.01089  0.36534  1.0000
  H   H558      1.0  0.81188  0.19362  0.35719  1.0000
  H   H559      1.0  0.82963  0.39103  0.57191  1.0000
  H   H560      1.0  0.82751  0.05504  0.35193  1.0000
  H   H561      1.0  0.51753  0.07980  0.40436  1.0000
  H   H562      1.0  0.99066  0.23433  0.34895  1.0000
  C   C334      1.0  0.82940  0.29274  0.55250  1.0000
  H   H563      1.0  0.98827  0.26442  0.49926  1.0000
  H   H564      1.0  0.86770  0.27471  0.57766  1.0000
  H   H565      1.0  0.50440  0.15275  0.36340  1.0000
  C   C335      1.0  0.58687  0.07392  0.40104  1.0000
  C   C336      1.0  0.88075  0.18431  0.35461  1.0000
  H   H566      1.0  0.88089  0.32455  0.56691  1.0000
  H   H567      1.0  0.95940  0.18001  0.59576  1.0000
  S   S100      1.0  0.86459  0.00619  0.55614  1.0000
  Fe  Fe49      1.0  0.92933  0.02871  0.56555  1.0000
  H   H568      1.0  0.80127  0.07655  0.31244  1.0000
  H   H569      1.0  0.60377  0.02418  0.34052  1.0000
  S   S101      1.0  0.88467  0.99482  0.49655  1.0000
  H   H570      1.0  0.83856  0.36498  0.61622  1.0000
  Fe  Fe50      1.0  0.93096  0.46445  0.36298  1.0000
  H   H571      1.0  0.98429  0.18961  0.36573  1.0000
  H   H572      1.0  0.89766  0.32041  0.62756  1.0000
  H   H573      1.0  0.55614  0.19903  0.38005  1.0000
  H   H574      1.0  0.74945  0.00632  0.30973  1.0000
  H   H575      1.0  0.61346  0.07606  0.38957  1.0000
  H   H576      1.0  0.90006  0.03926  0.35811  1.0000
  H   H577      1.0  0.98180  0.18263  0.33858  1.0000
  H   H578      1.0  0.51964  0.08729  0.30854  1.0000
  H   H579      1.0  0.50619  0.14719  0.38999  1.0000
  H   H580      1.0  0.90884  0.08504  0.34353  1.0000
  C   C337      1.0  0.84066  0.12679  0.32610  1.0000
  H   H581      1.0  0.59703  0.04473  0.40980  1.0000
  C   C338      1.0  0.76463  0.99135  0.32258  1.0000
  C   C339      1.0  0.55525  0.40290  0.92445  1.0000
  H   H582      1.0  0.52973  0.42480  0.93247  1.0000
  H   H583      1.0  0.55076  0.36953  0.92991  1.0000
  C   C340      1.0  0.50518  0.00145  0.84900  1.0000
  H   H584      1.0  0.62488  0.43107  0.88934  1.0000
  H   H585      1.0  0.50897  0.42856  0.86858  1.0000
  H   H586      1.0  0.57565  0.37751  0.89509  1.0000
  H   H587      1.0  0.60678  0.46608  0.90944  1.0000
  H   H588      1.0  0.50010  0.11425  0.81825  1.0000
  H   H589      1.0  0.51844  0.38938  0.89818  1.0000
  H   H590      1.0  0.98103  0.02201  0.63790  1.0000
  H   H591      1.0  0.56395  0.40687  0.84089  1.0000
  H   H592      1.0  0.49976  0.02059  0.86338  1.0000
  H   H593      1.0  0.50554  0.10328  0.85479  1.0000
  H   H594      1.0  0.53499  0.05300  0.83331  1.0000
  C   C341      1.0  0.55054  0.40256  0.90131  1.0000
  C   C342      1.0  0.50817  0.03124  0.83069  1.0000
  H   H595      1.0  0.58807  0.41148  0.92890  1.0000
  N   N25       1.0  0.55438  0.44579  0.89121  1.0000
  H   H596      1.0  0.60790  0.41404  0.85710  1.0000
  C   C343      1.0  0.57335  0.40600  0.85691  1.0000
  H   H597      1.0  0.57000  0.37206  0.86173  1.0000
  H   H598      1.0  0.50340  0.10537  0.78150  1.0000
  H   H599      1.0  0.54207  0.47000  0.86119  1.0000
  C   C344      1.0  0.54284  0.43919  0.86947  1.0000
  C   C345      1.0  0.60047  0.45873  0.89333  1.0000
  H   H600      1.0  0.52042  0.00963  0.81767  1.0000
  H   H601      1.0  0.52962  0.05823  0.79237  1.0000
  C   C346      1.0  0.49836  0.48448  0.82649  1.0000
  C   C347      1.0  0.52215  0.47899  0.90176  1.0000
  H   H602      1.0  0.55515  0.46625  0.80737  1.0000
  C   C348      1.0  0.49755  0.07650  0.79074  1.0000
  H   H603      1.0  0.61073  0.91939  0.09382  1.0000
  C   C349      1.0  0.91882  0.76770  0.29726  1.0000
  H   H604      1.0  0.64492  0.98664  0.08526  1.0000
  H   H605      1.0  0.64702  0.87131  0.14550  1.0000
  N   N26       1.0  0.59712  0.96073  0.12083  1.0000
  C   C350      1.0  0.84352  0.74905  0.29690  1.0000
  H   H606      1.0  0.53941  0.89621  0.08728  1.0000
  H   H607      1.0  0.91017  0.68377  0.29344  1.0000
  H   H608      1.0  0.84932  0.73451  0.28139  1.0000
  C   C351      1.0  0.63217  0.93213  0.13040  1.0000
  C   C352      1.0  0.82444  0.79656  0.29474  1.0000
  C   C353      1.0  0.58321  0.93994  0.10129  1.0000
  H   H609      1.0  0.54243  0.94091  0.13935  1.0000
  H   H610      1.0  0.65972  0.92342  0.11941  1.0000
  C   C354      1.0  0.61839  0.88860  0.13864  1.0000
  H   H611      1.0  0.64672  0.95005  0.14302  1.0000
  H   H612      1.0  0.84444  0.81467  0.28402  1.0000
  H   H613      1.0  0.50348  0.58275  0.14341  1.0000
  H   H614      1.0  0.92055  0.75756  0.28097  1.0000
  H   H615      1.0  0.60811  0.86677  0.12644  1.0000
  H   H616      1.0  0.57425  0.96530  0.09016  1.0000
  H   H617      1.0  0.59261  0.89332  0.15074  1.0000
  H   H618      1.0  0.59252  0.97897  0.16363  1.0000
  H   H619      1.0  0.54586  0.88608  0.11350  1.0000
  C   C355      1.0  0.54323  0.91210  0.10231  1.0000
  C   C356      1.0  0.55810  0.97093  0.13502  1.0000
  H   H620      1.0  0.51265  0.93286  0.10559  1.0000
  H   H621      1.0  0.98092  0.72855  0.30161  1.0000
  H   H622      1.0  0.68368  0.98302  0.10535  1.0000
  H   H623      1.0  0.79135  0.79628  0.28850  1.0000
  H   H624      1.0  0.91023  0.80359  0.29774  1.0000
  H   H625      1.0  0.98638  0.78485  0.29689  1.0000
  H   H626      1.0  0.81700  0.73069  0.30338  1.0000
  H   H627      1.0  0.81546  0.73200  0.33525  1.0000
  H   H628      1.0  0.98033  0.54932  0.62124  1.0000
  Fe  Fe51      1.0  0.88490  0.94122  0.56970  1.0000
  S   S102      1.0  0.91784  0.91232  0.54109  1.0000
  S   S103      1.0  0.85294  0.89776  0.59246  1.0000
  H   H629      1.0  0.78980  0.55346  0.54808  1.0000
  C   C357      1.0  0.98740  0.54073  0.60513  1.0000
  C   C358      1.0  0.89896  0.55243  0.43510  1.0000
  H   H630      1.0  0.82102  0.81491  0.30939  1.0000
  S   S104      1.0  0.94675  0.96605  0.58159  1.0000
  H   H631      1.0  0.98028  0.63079  0.39983  1.0000
  H   H632      1.0  0.88184  0.79930  0.32960  1.0000
  Fe  Fe52      1.0  0.66405  0.74184  0.60834  1.0000
  S   S105      1.0  0.72182  0.69615  0.61479  1.0000
  S   S106      1.0  0.67167  0.80848  0.59486  1.0000
  Fe  Fe53      1.0  0.68809  0.64688  0.59669  1.0000
  S   S107      1.0  0.72630  0.60710  0.57192  1.0000
  S   S108      1.0  0.63206  0.69348  0.58852  1.0000
  C   C359      1.0  0.83100  0.50157  0.58888  1.0000
  Fe  Fe54      1.0  0.92939  0.85216  0.39919  1.0000
  S   S109      1.0  0.89894  0.81475  0.37440  1.0000
  S   S110      1.0  0.90829  0.84031  0.43144  1.0000
  H   H633      1.0  0.79948  0.78817  0.57553  1.0000
  S   S111      1.0  0.97523  0.85009  0.34428  1.0000
  Fe  Fe55      1.0  0.90801  0.87450  0.35605  1.0000
  S   S112      1.0  0.86325  0.89920  0.33149  1.0000
  Fe  Fe56      1.0  0.96762  0.79259  0.36457  1.0000
  C   C360      1.0  0.90070  0.69628  0.30901  1.0000
  S   S113      1.0  0.93208  0.91415  0.38187  1.0000
  H   H634      1.0  0.97405  0.87418  0.50489  1.0000
  C   C361      1.0  0.93871  0.54088  0.42066  1.0000
  C   C362      1.0  0.96830  0.67106  0.35846  1.0000
  C   C363      1.0  0.80066  0.96064  0.31963  1.0000
  C   C364      1.0  0.97556  0.59088  0.35485  1.0000
  C   C365      1.0  0.93246  0.58830  0.36193  1.0000
  C   C366      1.0  0.90758  0.62739  0.36736  1.0000
  C   C367      1.0  0.92544  0.66842  0.36587  1.0000
  H   H635      1.0  0.88557  0.63105  0.31726  1.0000
  H   H636      1.0  0.87424  0.62588  0.37292  1.0000
  H   H637      1.0  0.90597  0.69796  0.37036  1.0000
  H   H638      1.0  0.95514  0.61473  0.44461  1.0000
  C   C368      1.0  0.95847  0.63446  0.41351  1.0000
  C   C369      1.0  0.82014  0.94002  0.33611  1.0000
  H   H639      1.0  0.84680  0.49641  0.55698  1.0000
  H   H640      1.0  0.71728  0.69596  0.55242  1.0000
  C   C370      1.0  0.83622  0.75619  0.34175  1.0000
  H   H641      1.0  0.81834  0.93522  0.36846  1.0000
  C   C371      1.0  0.88780  0.95188  0.47839  1.0000
  C   C372      1.0  0.89203  0.96133  0.45784  1.0000
  C   C373      1.0  0.89753  0.92739  0.44315  1.0000
  C   C374      1.0  0.89812  0.88393  0.44900  1.0000
  C   C375      1.0  0.89225  0.87461  0.46948  1.0000
  C   C376      1.0  0.88773  0.90845  0.48417  1.0000
  H   H642      1.0  0.96688  0.76989  0.32113  1.0000
  H   H643      1.0  0.90171  0.93479  0.42737  1.0000
  H   H644      1.0  0.89230  0.84102  0.47403  1.0000
  H   H645      1.0  0.88385  0.90095  0.49993  1.0000
  C   C377      1.0  0.80195  0.87410  0.59276  1.0000
  C   C378      1.0  0.79270  0.84514  0.60820  1.0000
  C   C379      1.0  0.75323  0.82441  0.60886  1.0000
  C   C380      1.0  0.72213  0.83315  0.59428  1.0000
  C   C381      1.0  0.73105  0.86261  0.57901  1.0000
  C   C382      1.0  0.77099  0.88262  0.57809  1.0000
  H   H646      1.0  0.81637  0.83850  0.61966  1.0000
  H   H647      1.0  0.74662  0.80216  0.62080  1.0000
  H   H648      1.0  0.70698  0.86986  0.56779  1.0000
  H   H649      1.0  0.77758  0.90502  0.56621  1.0000
  H   H650      1.0  0.97154  0.54352  0.45825  1.0000
  H   H651      1.0  0.94199  0.50467  0.41906  1.0000
  H   H652      1.0  0.68718  0.74777  0.55217  1.0000
  N   N27       1.0  0.98130  0.55823  0.42666  1.0000
  S   S114      1.0  0.65105  0.62265  0.62326  1.0000
  H   H653      1.0  0.95633  0.54437  0.59699  1.0000
  H   H654      1.0  0.82435  0.67227  0.52009  1.0000
  N   N28       1.0  0.80179  0.73643  0.55289  1.0000
  H   H655      1.0  0.75075  0.78801  0.54961  1.0000
  H   H656      1.0  0.92948  0.55217  0.40547  1.0000
  S   S115      1.0  0.90765  0.53767  0.36412  1.0000
  C   C383      1.0  0.96572  0.76196  0.30484  1.0000
  C   C384      1.0  0.75683  0.75226  0.54649  1.0000
  C   C385      1.0  0.85293  0.74297  0.58294  1.0000
  H   H657      1.0  0.97201  0.63598  0.58495  1.0000
  H   H658      1.0  0.80738  0.51446  0.61958  1.0000
  H   H659      1.0  0.84145  0.67597  0.55611  1.0000
  C   C386      1.0  0.77197  0.55593  0.59898  1.0000
  C   C387      1.0  0.79386  0.54531  0.56372  1.0000
  H   H660      1.0  0.84396  0.74488  0.35711  1.0000
  H   H661      1.0  0.97975  0.86421  0.46863  1.0000
  N   N29       1.0  0.88470  0.74388  0.30866  1.0000
  H   H662      1.0  0.90671  0.75087  0.33914  1.0000
  H   H663      1.0  0.86062  0.70753  0.58484  1.0000
  H   H664      1.0  0.85299  0.75867  0.59823  1.0000
  H   H665      1.0  0.97516  0.94580  0.48636  1.0000
  Fe  Fe57      1.0  0.90276  0.97876  0.52843  1.0000
  H   H666      1.0  0.90351  0.53912  0.45033  1.0000
  C   C388      1.0  0.98030  0.68764  0.60702  1.0000
  H   H667      1.0  0.78636  0.67330  0.56400  1.0000
  H   H668      1.0  0.86199  0.67177  0.33435  1.0000
  H   H669      1.0  0.93064  0.69190  0.31800  1.0000
  H   H670      1.0  0.98363  0.93305  0.45132  1.0000
  C   C389      1.0  0.97634  0.60677  0.43089  1.0000
  C   C390      1.0  0.80738  0.75246  0.57423  1.0000
  C   C391      1.0  0.71830  0.73091  0.55682  1.0000
  C   C392      1.0  0.80375  0.95100  0.35565  1.0000
  C   C393      1.0  0.83511  0.75416  0.53867  1.0000
  C   C394      1.0  0.83807  0.80424  0.53968  1.0000
  C   C395      1.0  0.79957  0.66483  0.53179  1.0000
  H   H671      1.0  0.86830  0.73859  0.54103  1.0000
  H   H672      1.0  0.82809  0.74576  0.52273  1.0000
  C   C396      1.0  0.87929  0.76326  0.32981  1.0000
  H   H673      1.0  0.75367  0.74791  0.52990  1.0000
  H   H674      1.0  0.86213  0.81348  0.52795  1.0000
  H   H675      1.0  0.80656  0.82221  0.53656  1.0000
  H   H676      1.0  0.84974  0.81594  0.55438  1.0000
  H   H677      1.0  0.92504  0.62666  0.40966  1.0000
  H   H678      1.0  0.80237  0.62888  0.53367  1.0000
  H   H679      1.0  0.76643  0.67320  0.52633  1.0000
  S   S116      1.0  0.62473  0.72572  0.63636  1.0000
  H   H680      1.0  0.71858  0.73414  0.57344  1.0000
  C   C397      1.0  0.82611  0.51291  0.56873  1.0000
  H   H681      1.0  0.99203  0.81908  0.49845  1.0000
  S   S117      1.0  0.52926  0.64735  0.62093  1.0000
  H   H682      1.0  0.89037  0.58807  0.43632  1.0000
  H   H683      1.0  0.81646  0.78778  0.34408  1.0000
  H   H684      1.0  0.95569  0.62433  0.60987  1.0000
  H   H685      1.0  0.87023  0.53734  0.42890  1.0000
  H   H686      1.0  0.75119  0.57239  0.61072  1.0000
  Fe  Fe58      1.0  0.97814  0.94039  0.55237  1.0000
  H   H687      1.0  0.87919  0.75695  0.57387  1.0000
  H   H688      1.0  0.95663  0.66955  0.41820  1.0000
  Fe  Fe59      1.0  0.59712  0.67371  0.61688  1.0000
  C   C398      1.0  0.80765  0.68729  0.55227  1.0000
  H   H689      1.0  0.78396  0.73810  0.58484  1.0000
  S   S118      1.0  0.99185  0.72204  0.35509  1.0000
  H   H690      1.0  0.75391  0.98846  0.37370  1.0000
  C   C399      1.0  0.76670  0.56693  0.57881  1.0000
  C   C400      1.0  0.86923  0.66457  0.31810  1.0000
  H   H691      1.0  0.99514  0.56126  0.35050  1.0000
  C   C401      1.0  0.80382  0.52312  0.60396  1.0000
  C   C402      1.0  0.98211  0.63870  0.60088  1.0000
  H   H692      1.0  0.81309  0.95229  0.30447  1.0000
  H   H693      1.0  0.94671  0.70238  0.60500  1.0000
  C   C403      1.0  0.76717  0.98114  0.35858  1.0000
  H   H694      1.0  0.98776  0.69274  0.62312  1.0000
  H   H695      1.0  0.83878  0.66315  0.30971  1.0000
  C   C404      1.0  0.99316  0.63199  0.35298  1.0000
  Fe  Fe60      1.0  0.61123  0.65071  0.81818  1.0000
  S   S119      1.0  0.58638  0.71517  0.80623  1.0000
  S   S120      1.0  0.55633  0.61760  0.83456  1.0000
  Fe  Fe61      1.0  0.70732  0.67375  0.81155  1.0000
  S   S121      1.0  0.68809  0.74053  0.80016  1.0000
  S   S122      1.0  0.77715  0.64392  0.81501  1.0000
  Fe  Fe62      1.0  0.63606  0.74474  0.82492  1.0000
  S   S123      1.0  0.61411  0.80211  0.84585  1.0000
  Fe  Fe63      1.0  0.63942  0.70566  0.78230  1.0000
  S   S124      1.0  0.62131  0.73090  0.75174  1.0000
  S   S125      1.0  0.65940  0.68097  0.83811  1.0000
  S   S126      1.0  0.66070  0.63808  0.79224  1.0000
  H   H696      1.0  0.80310  0.73054  0.72218  1.0000
  H   H697      1.0  0.79879  0.68976  0.69041  1.0000
  C   C405      1.0  0.57634  0.66156  0.68317  1.0000
  H   H698      1.0  0.88885  0.74941  0.87774  1.0000
  S   S127      1.0  0.71015  0.65339  0.67013  1.0000
  C   C406      1.0  0.64854  0.70960  0.72959  1.0000
  C   C407      1.0  0.66753  0.66689  0.72845  1.0000
  C   C408      1.0  0.68663  0.64995  0.71009  1.0000
  C   C409      1.0  0.68660  0.67560  0.69287  1.0000
  C   C410      1.0  0.66789  0.71839  0.69407  1.0000
  C   C411      1.0  0.64891  0.73533  0.71241  1.0000
  H   H699      1.0  0.66664  0.64668  0.74158  1.0000
  H   H700      1.0  0.70076  0.61664  0.70909  1.0000
  H   H701      1.0  0.66819  0.73844  0.68087  1.0000
  H   H702      1.0  0.63425  0.76845  0.71326  1.0000
  C   C412      1.0  0.82853  0.66644  0.81118  1.0000
  C   C413      1.0  0.83213  0.71037  0.80670  1.0000
  C   C414      1.0  0.87364  0.72635  0.80335  1.0000
  C   C415      1.0  0.91209  0.69887  0.80464  1.0000
  C   C416      1.0  0.90850  0.65508  0.80929  1.0000
  C   C417      1.0  0.86698  0.63903  0.81250  1.0000
  H   H703      1.0  0.80295  0.73200  0.80581  1.0000
  H   H704      1.0  0.87599  0.76032  0.79980  1.0000
  C   C418      1.0  0.77631  0.75339  0.75975  1.0000
  H   H705      1.0  0.86462  0.60500  0.81597  1.0000
  C   C419      1.0  0.55114  0.83258  0.81985  1.0000
  C   C420      1.0  0.56637  0.83343  0.83950  1.0000
  C   C421      1.0  0.54235  0.85850  0.85458  1.0000
  Fe  Fe64      1.0  0.68044  0.67560  0.64099  1.0000
  H   H706      1.0  0.56972  0.81390  0.80804  1.0000
  H   H707      1.0  0.55409  0.85948  0.86979  1.0000
  C   C422      1.0  0.53417  0.56666  0.83015  1.0000
  H   H708      1.0  0.92604  0.76005  0.83862  1.0000
  H   H709      1.0  0.59186  0.68216  0.67189  1.0000
  C   C423      1.0  0.92785  0.77857  0.85318  1.0000
  H   H710      1.0  0.78372  0.57317  0.76111  1.0000
  H   H711      1.0  0.81667  0.61344  0.77150  1.0000
  C   C424      1.0  0.78468  0.63153  0.74307  1.0000
  H   H712      1.0  0.87037  0.62678  0.72639  1.0000
  H   H713      1.0  0.84831  0.68001  0.76545  1.0000
  H   H714      1.0  0.50425  0.73840  0.70659  1.0000
  H   H715      1.0  0.50036  0.85528  0.80015  1.0000
  H   H716      1.0  0.57973  0.71921  0.88251  1.0000
  H   H717      1.0  0.52775  0.77812  0.87045  1.0000
  H   H718      1.0  0.87362  0.80577  0.87317  1.0000
  H   H719      1.0  0.54706  0.67798  0.87281  1.0000
  N   N30       1.0  0.79878  0.67760  0.74313  1.0000
  C   C425      1.0  0.95615  0.68604  0.85541  1.0000
  H   H720      1.0  0.75470  0.70258  0.72062  1.0000
  H   H721      1.0  0.60546  0.52961  0.89088  1.0000
  H   H722      1.0  0.58394  0.75264  0.67832  1.0000
  C   C426      1.0  0.61374  0.49909  0.88180  1.0000
  H   H723      1.0  0.55376  0.59449  0.67923  1.0000
  H   H724      1.0  0.51801  0.62079  0.73341  1.0000
  H   H725      1.0  0.51153  0.76333  0.83532  1.0000
  H   H726      1.0  0.57624  0.61696  0.65673  1.0000
  H   H727      1.0  0.98613  0.82955  0.83162  1.0000
  H   H728      1.0  0.61088  0.59807  0.67667  1.0000
  H   H729      1.0  0.93768  0.63347  0.81030  1.0000
  H   H730      1.0  0.91093  0.65702  0.73754  1.0000
  H   H731      1.0  0.73480  0.70022  0.75585  1.0000
  C   C427      1.0  0.55574  0.71209  0.87091  1.0000
  H   H732      1.0  0.57288  0.71513  0.85610  1.0000
  C   C428      1.0  0.50261  0.88132  0.85023  1.0000
  H   H733      1.0  0.50642  0.74610  0.88985  1.0000
  H   H734      1.0  0.55911  0.72327  0.71156  1.0000
  H   H735      1.0  0.88523  0.61854  0.75231  1.0000
  C   C429      1.0  0.51184  0.85608  0.81540  1.0000
  H   H736      1.0  0.75069  0.63091  0.73792  1.0000
  H   H737      1.0  0.59884  0.66160  0.69592  1.0000
  H   H738      1.0  0.58653  0.53864  0.81056  1.0000
  C   C430      1.0  0.77001  0.70393  0.75860  1.0000
  C   C431      1.0  0.78612  0.60882  0.76354  1.0000
  H   H739      1.0  0.52107  0.70114  0.65876  1.0000
  C   C432      1.0  0.50987  0.65303  0.70473  1.0000
  H   H740      1.0  0.59964  0.50228  0.86674  1.0000
  C   C433      1.0  0.50656  0.51925  0.88981  1.0000
  H   H741      1.0  0.53648  0.98133  0.85009  1.0000
  H   H742      1.0  0.75739  0.76828  0.77303  1.0000
  H   H743      1.0  0.81083  0.76025  0.76179  1.0000
  C   C434      1.0  0.55575  0.53324  0.81814  1.0000
  H   H744      1.0  0.85821  0.71179  0.74400  1.0000
  H   H745      1.0  0.75771  0.62063  0.77344  1.0000
  H   H746      1.0  0.55166  0.66552  0.73062  1.0000
  C   C435      1.0  0.79046  0.69752  0.72287  1.0000
  H   H747      1.0  0.85976  0.76285  0.85586  1.0000
  C   C436      1.0  0.81016  0.67231  0.70399  1.0000
  H   H748      1.0  0.51725  0.70552  0.83634  1.0000
  N   N31       1.0  0.53146  0.68096  0.68948  1.0000
  H   H749      1.0  0.76343  0.77022  0.74633  1.0000
  H   H750      1.0  0.56552  0.61412  0.71717  1.0000
  S   S128      1.0  0.96342  0.72124  0.80041  1.0000
  H   H751      1.0  0.77534  0.69184  0.77406  1.0000
  C   C437      1.0  0.53832  0.63784  0.72238  1.0000
  H   H752      1.0  0.79880  0.63898  0.70240  1.0000
  C   C438      1.0  0.53788  0.49227  0.81635  1.0000
  C   C439      1.0  0.50421  0.68396  0.67103  1.0000
  H   H753      1.0  0.80421  0.60973  0.73215  1.0000
  C   C440      1.0  0.57896  0.61526  0.67337  1.0000
  C   C441      1.0  0.84584  0.68024  0.74871  1.0000
  H   H754      1.0  0.84622  0.67187  0.70331  1.0000
  H   H755      1.0  0.92639  0.81316  0.84852  1.0000
  H   H756      1.0  0.92029  0.68986  0.85377  1.0000
  C   C442      1.0  0.87897  0.64319  0.74055  1.0000
  C   C443      1.0  0.88539  0.77396  0.86587  1.0000
  N   N32       1.0  0.96983  0.76675  0.86352  1.0000
  C   C444      1.0  0.51584  0.74542  0.87349  1.0000
  H   H757      1.0  0.53326  0.53545  0.88218  1.0000
  C   C445      1.0  0.53564  0.72542  0.69915  1.0000
  H   H758      1.0  0.94622  0.79103  0.89309  1.0000
  C   C446      1.0  0.55091  0.76105  0.68505  1.0000
  H   H759      1.0  0.55294  0.79176  0.69407  1.0000
  H   H760      1.0  0.97241  0.68752  0.84037  1.0000
  H   H761      1.0  0.96393  0.65273  0.86106  1.0000
  H   H762      1.0  0.52780  0.76850  0.67290  1.0000
  H   H763      1.0  0.95340  0.71704  0.88491  1.0000
  H   H764      1.0  0.96585  0.83160  0.87759  1.0000
  H   H765      1.0  0.50008  0.65080  0.66449  1.0000
  C   C447      1.0  0.97240  0.79686  0.88166  1.0000
  C   C448      1.0  0.97211  0.72012  0.87043  1.0000
  H   H766      1.0  0.64957  0.49604  0.87865  1.0000
  H   H767      1.0  0.53532  0.49124  0.91612  1.0000
  H   H768      1.0  0.49765  0.62347  0.69742  1.0000
