data_image0
_chemical_formula_structural       FeS2FeS2FeSFeS3HFeS3H2FeSCHNHSFeSFeH2S2FeSHSH4NH2SCH2SH2CHC2HC5H3C6H8CHSHC6H4C6H4C6H4C6H4NC6H4CNCH4CHCH7SH5C2HFeHCHCH2SNC4H11CHCH4CSCH2CHCSCH6FeHC2NC6H4C2H4C3HSCH6SCH2CH2FeH2C2NHCH10CH3CH2CH2FeH4CHC3HNC4HC3H20SH2CH2CH3C3H3CH3FeH2CH2SH4SC2HSCSHCHFeSFeS3C2SHSCH3C2Fe2S2FeS2FeS2FeS2HC4H3C3HCHCSHSHC6HCH4C3HC3H2CH2CSCH2CFeH6CH4CH2C3SHCH10CH3CFeH2CHC5H6CHSH4C2HFeNHCH3FeH3SHCH2CH2CH2CS2HCSC2HC2H2CHFeHC3HC2H4NH2CH11NHSHCH2NH2CSC2H2SNC8H9CH7FeH3CH2CHSC2H4CH4CH2NHCSC2H10C2H4CHNCH2CH3SHCH2CFeH2CH2SHFeCH5FeS2FeS2FeSFeS3FeS2FeS2FeSFeS3HSH2SHFeSFeS2C9H5C5H5CH4C6H5C6H3CNC4H4C6H2CHSH2CNHCHCH3NCH2C2FeC2H5C2NHC3HC4H7CH15CHCH7CH2CHCH7CH3CNHC2H2C2HCH8NC8H15C3H3CH4CSH2SHC2HCH3CH2CHCFeHC2HC2H2CH7CHFeH3CNCSCH12SC3H3CH3C2H2C2HCHC2H2SCH3CH2CNSH5CHCHC2H3CH2CHC2H3CH3CH2SCH4FeSFeS2CFeSCSFeS2FeSFe2SFeS3FeS2HSFeSFeS3Fe2HSH3S2FeS2FeS2FeSFeS3FeS2HSFeSFeS3H2NHCHC6H4C6H4C6H4C6H8C6HCH2C6H4FeH2CHSC6H4C2H2C7H4CHCH2NC2HCH2CH3CH4CHCH5C2N2CH2C2H3CHCFeHCHCH4C3HNH2NC8H8C2H11CH2CHCH4SHCH8NCH2SCH2CH2C2HC3H7CH5SH2CHCH3FeH3SH2C3HNHCHC2H2CH2CHNC3H2CH2CH8FeS2H4CH6CNC8H21CH4CH2CHC2HCH2C2H6CH5CH2CH4C2H7CHC2HCHFeS2CHFeHS2H4NHSCFeHSCHNHFeS2FeS2FeSFeS3HSHFeS2FeS2CSHFeS2FeS2FeHFeHS2HCHC6H4C6HCH2C2H3CH2SHC6H4C6H4C6H2CHCHC6HCH2C2H2SCHCH2C2SH3CHCH2NH6CH2CH3CH2SCH2CHCSHFeHFeHCH2FeCH5CH2CH4NHC3H8FeH5C3H4SHCNC8H20NCNC5NHCH4C2H5CNH2CH3C3HC2H8CH6CH2CHSCH5SH2C2HCSHSH3C2H2CH3C2H3NC3H3NH3FeH4FeCHCH4C2H3CHCHCFeHCHCHCSH2SCH5CH3SH4SH2NHC2H2FeSCHCH5SH2SHCHSCHCHC2FeSH2CHCSNFeHSCH3SCFeH4CSHS3C4HC4FeH4CH2C8H6C2HCNH5C2HC2H4CH5C2H2NC5H3C6H4C2HCHC2H3CHFeCH2NH2SCHCHCH3CHCH2CHCSH3CH2CH8CHCNH2CSHCHC2H2NH20CHSC2H3CFeH5S2CH3CH2CHCH3CHNH4CH5C3HC2H2SHCH5CHFeCHC3HCH10CHCHC3H3CHCH2SFeHCHCH2C3FeSHFeS2FeSFeS3HFeS2FeSHSH2FeS2H2FeHCSHSCHFeSCH2SFeS2H2FeSHSHFeS2HS2FeHSFeHSNHCS2HCSH6SC2H5NHSH2CNC2HCHC3HCH3C6H4C6H5SCSCH2C2H2C4H2C6H4C6H5CSH5CH2C3HCH4NHCHC4H5CHC2H4FeH8CHC4H2CHC2HSHCH2CH5NC3HC2H4C2H5C2HC2H2C2H3NHC2NH5NC3H2C3HCH2CSH2CHFe2H10CHCHCH3CHC2H2CSHC2HCFeHCHFeHCHC4HSH5SHCH2FeCHCH3SHCH5CH3C2FeH12C2HCH2CH3SFeS2FeSFe2S3FeS2FeS2FeSFeS3HCFeSHFeS2HSFeS2HCFeCSCFeS3H2CH2C6H3C6H4C6H5C6H4C6H4C3SH4C8H5NC8H20CH3CH8NHCHCH2CH3C3H2C2H3CH3C2H9FeCH2CH3CHCH5SH5NHCH5SC2HC2HCHCH4C3SCHFeHNH2CH7SCNCH2CH5CSHCH7CFeH2CHNHNH2CSC2HCH2C2NH9NC8H7CH4CHC2HC2HC2H5CH16CH2FeSFeS2FeS3CSFeS2FeS2FeSFeS4HCH2C2SFeS2FeS2FeSFeS2H3C4HCH4CH4C4H3C6H2CHC6H4CHNC4H4FeC6H3C6H4SH7C2HCH4NC8H11SH11C2H2CH5CH5SHNC2NCHSH4CSCHSHNHSH6CH4FeHCH2C2NH3C2NHCH4CH4C2HCH2CSHCHCH3CHCH4CH4CHCH5C3H3CHC2H2CSH2CHCHCH2CH2CHCH2NH2CH4CH4CH2CH2SHCFe2H2NC5HFeHCHCHCFeSFeCH2C2H4CH4C2H5CHNCSCS2CSFeSHFeS2FeS2FeSFeS4C2Fe2S2FeS2FeSFeS3H3S2H2CHSC6H4C6H4C6H4C6H4CSCSH2C6H4C6H3C6H4CNH5CNH2C3H3CH2CH4CHCH6CH6NH4CFeCH2CH3CHSFeCHC2H4SNCHC2H4CH5CSFeHNC8H20CSH4C2HCH4CHCSH4C2H3CHNHC4H8NH6CH4C2HC2FeH3FeH3CH2C2H2C3H4CHCH4S2H8CH2CH2CH2CH7CH6CH2CHCH2C2HSCHCH2FeSNHSHFeSCFeS2FeS2FeSFeS3H2FeS2FeS2FeSFeS3H3SHC6H2CHC6H4C6H4C6H4C6H5FeHCNC6H4C7H5SH6CHC2H5NH2CN2C8H24CHC2H7C2HFeHCHCSCNC7H13C2HC3HC2HCH2CHC2SH2C2H2SHC2SH2CH3CH5CHCH2CHCH5SHCFeH8SCHCH6CH3CH6SH3CH10CH3CH8CH3CHNHC2H2SFeS2HFeSFeSH2S2Fe2HFeS2FeS2FeSFeS4HS2HSH3SFeS2FeSFeSHSNC6H4C6H4C2HC2H3CH2C3H5C6H4C10H3C2H2CHC4H7C2NC5NCH7CHC2HCFeH5CH4CHC2SHCNC8H10CH6C2HC2HCH5FeHC2S2HFeH2CH7CHCHCH6C2HCHSH4SH4C2HFeHCH4FeCHNC2HC3FeCH4CFeH3CH2CH3SH3CH2CH3CH3CH3SCSHFeHCH4CH4CSH2CHSH3SNH3CHCH3CH2CHCH2CH3C2NC4H3CH3C2SC2HCHC2H2CH5CH3SHNH2SCH3CH3NCNH4SFeSHSCFeSFeSHSCHCHS2HFe2SHFeS2FeSFeS3FeS2FeS2FeSFeHS2C7H4C3HC6HCH4CH3C2HCHC4HCSH3C6H2FeH2C4H3C6H4C5HCH2C2NH3CSCHFeH4SCH4CH3CH5CHCHFeSH2C2HC4H2CHSCNHNC8H20SCH3CNC2H5CHC3HCH4C2H9C2H3CHNSC2HC4H8SH4CH3CH6CH2C2H2SH4NSHFeCHSH2CNH3CSH3FeC2HSH4CH2CH3C2H2SH8CH2CHFeH2CH4CHCH5C3H2FeHSFeS2FeS2FeSFeS3H2SCHSHFeSFeH3FeS2FeS2FeSFeS3H3FeS2HC5H4C6H4C6H4C6H4C6H4C6H4FeH5CH2FeC6H4NC7H17NC8H15CH4CH6CH8CH3SCH2CH5C2HNCH4SCHCH7C2H2CHCH2CSH4CHNCHNCH3C4NH2C2HC2HC2HNC3H5C2H2C2H2NCH2SHSH5CH2C2H2NHCH3CH4CFeC2HSHC2HCHCH3CHCH3SCH2SCH2CH3CHSC2S2FeSH3FeSH2FeSCH2SFeS2FeS2FeSFeS5Fe2S2FeS2FeSFeS4C6H4C6H4C6H4C6H4C6H5C6H5C6H5NC8H16CH4CHC2HCH4C2HSHFeHC2H2CHFeCHCH2NHCH2SCH2NCHNC5H11CH7CH2CH4CH5SH2CH2NC8H22CH3SH2CH2SHCH4CSHC2HCHFeC2H3CHCH3SC2FeCHCH4NH6CNCHCH5SHFeC2H7CH3C3H4FeS2NSFeSCHSH3FeS2FeSFeSFeS3FeHSHFeH2SHFeS4FeSFeS2FeSFeS3H2C3HC2SH3C6H4C6H4C6H4CHCHCH5C6H4CHC4H5C6H4CFeCH3NCHC2H3CHCH3CH4CH8CH2C3HC2HSH2FeCHCSH5CH3CHNC8H20C2H4CH4CH4C2H3C3SH3CHCH2CH3C2NCH4C2H7NHCH6NH3CH4CHCHSH5SCNC8H22CH2CNHFeH3CHCH2CH3NHCHC3H2C2FeNC5H4SHCHCH4CH5CHCS2FeS2FeS2FeSFeS3HSCFeS2FeHSH2FeSFeHS2FeSFeS2HS2HSCS2FeCSH2FeS2HCHFeNHC2H3CHFeC2H3C6H4C6H4C6H4C6H4C6H4C6H4CHCH2CHCSH2FeH2NCHNH2C2HCHCHC2SHNC8H21C2H2CH4NHC3H2C3HFeNH5CH2CH7CHCH2C3H3C2H2SHCHCHCH3CH5C2HSHC2H10NC5H18CHC2H2CSH6SCHCH4CH6C2Fe2CH3C3HSFeS2CH2Fe2S2FeS2FeSFeS3FeS2FeS2HSFeSHFeHSNHSFeS2CSFe3SHSHCSH3CHSHCH4CH2CH7SC2H5C6H4C6H4C6H4C6H2C6H4C6H4NH2CH2CHC2FeNH2S2H2CH5CH3CH2CH2C2H2NC4HC3FeH8C2HCH10C2H4CHC2HS2H2SCH5CH2CH5SHCH4CH5C3FeCHC2H3NC2HSHCH4CH4SHFeH2C3HSH2CSC2HCFeH4CH6C2H2CH4NC5HC2H7CH3C2H3CH2CH10CH4NCHCH2CH4C2HSCH11FeSHFeSFeSCH4FeSHSHSH2CHCSHFeS3FeSHSH2SHC2SC2H5CH8C2SH3CH3C6H6CH2SC7HCH2C2FeC2S2HCHCH2C6HC2H4C3H7NHC2HC3H6CHSH2C2H2CH2CH4SHC4HFeHC2H6CH2C2H3CHC2H2C2H5NHC3H5CH4C2FeCH5CNH2CHC3N2H6FeHCH8NC4H3CHCH4NCH3CH2NH6C2HCH2S2H4CHCH5CHFeH7CH6FeHSHSHCH2CH2NHSHSH3FeS2H2SH2FeS2FeS2FeSFeS3HCFeS2HSH3FeS2FeS2Fe2CS2HSHC2HC7H4C6H4C6H4C6H4C6H4C3HCH2C2HCHSHCHCH7CHCFeHCH3C3H2NC8H22CH2SC2SHCHCHNH2C2HCNCHCH6CHSNC2HNC3H2C2H3NH8FeSHCHNC4FeC3HCH9CHCH3C2H3SHCHC2H2C2HFeC2FeH2CHC2H5C2HCHCHCH2C2H2FeHCHCH4CH6CSH3CH3CH2CH2CHCH2NC2HCHCHC2HFeH2SH2FeHCH5CH2CHCHCH3SH2CHCH6SH3CFeSHFeS2FeSFeS3FeS2CHCH2SHFeSHFeS3HFeHFeS2FeS2FeSFeS3FeS2HCFeSFeS3HSFeS2FeSFeS3C6H4C6H4C6H3C7H3CH2SCHCH2C2H3C6H6CSHC6H4C6H4C6H6FeH5CH6C2H4CHCH2CH3SH3CSH6CHNC8H9SH4CHFeH6CNC7H17NC8H23NC4H2SHCH10CH3CH3NHSCH4C2HCH3C3H3CHCH2CH2CNHSHCH2C2HC3H2CH2CH9C2HCNH2CH4CH3CH2C3H2CH2C4H3CHCH4CNHCHNC2H5CH4C2HCH2CH4C2H2CFeS2HSCH3FeHCSHCS2HFeS2FeS2FeSFeS3CHSCHSFeNSH3FeS2FeS2FeSFeS3C3HFeCH4C6H4C6H4C6H4C6H5CFeH2CH3SCH5C6H4C6H5CHCH4CH6C2H2C4H2C2H5CHFeCH3CHNC8H26CSHC2H2NHCH2CH3CH2C2NC4H10CH2CH2CH3NC4HSCH6C3H2CH3SH2CN2C8H24C3H2CHCH2C2H4CHSH4NSC3H2Fe2H2CH7CH3CHFeCH2S2C2HC2H2SFeSH4CNHCH2FeS2FeS2FeS2FeHSCH3FeH3CH2C3HCH4SCH3CHCHC3H4CHCH4CSHC2HC4H2CHCH2C2HFeC3H3C2H2FeSCHSHNC5H2CH3CHCHCHC2SCH3CNH3CH6C2H2NC5H5C2HSHFeHCH2CHNH3C4H7C2H4CH3CH3C2H3SFeHC3H4C2H4NCHNC4HC2FeCH9CH3CH4FeHCH2FeCH2CHSCSH12CHSC2HCHC2SH3CH3C2SCH10CH2CH4S2HSHFeCH2FeHSFeCSH4S3FeHSFeS2FeSCH2SFeS2FeS2FeSFeS3HCH2CFeSH2NHSH6FeHCNC6H4C6H4C6H4C2H2C6H4SFeH4C7H3C6H4SCHNC8H13SH5CH2CHCHCH2CH2CH5CH2CFeHCHCHC2HCH5CSHSH2CHSH4CH2CH2SHCH2CHCH2SHSCHCHC2HNH2C2HNH7SCHCNC8H20SHCHSCHNH4SHCH2FeCHCHCFeCHFeCH7SC2H2CH2CNHNHC2HFeH2CH4C2HCH4C4H2CHC
_chemical_formula_sum              "Fe400 S800 H4800 C2800 N200"
_cell_length_a       81.9841
_cell_length_b       80.7314
_cell_length_c       60.0355
_cell_angle_alpha    79.7422
_cell_angle_beta     79.9001
_cell_angle_gamma    103.015

_space_group_name_H-M_alt    "P 1"
_space_group_IT_number       1

loop_
  _space_group_symop_operation_xyz
  'x, y, z'

loop_
  _atom_site_type_symbol
  _atom_site_label
  _atom_site_symmetry_multiplicity
  _atom_site_fract_x
  _atom_site_fract_y
  _atom_site_fract_z
  _atom_site_occupancy
  Fe  Fe1       1.0  0.11213  0.10850  0.36637  1.0000
  S   S1        1.0  0.12804  0.10978  0.33146  1.0000
  S   S2        1.0  0.11281  0.09143  0.40019  1.0000
  Fe  Fe2       1.0  0.09490  0.13528  0.34665  1.0000
  S   S3        1.0  0.10962  0.13877  0.30998  1.0000
  S   S4        1.0  0.07413  0.14901  0.35415  1.0000
  Fe  Fe3       1.0  0.10377  0.10946  0.31889  1.0000
  S   S5        1.0  0.09673  0.09218  0.29423  1.0000
  Fe  Fe4       1.0  0.13267  0.13904  0.32580  1.0000
  S   S6        1.0  0.16037  0.15492  0.30837  1.0000
  S   S7        1.0  0.08753  0.10603  0.35436  1.0000
  S   S8        1.0  0.11825  0.13767  0.36194  1.0000
  H   H1        1.0  0.00174  0.08534  0.00091  1.0000
  Fe  Fe5       1.0  0.23673  0.24399  0.09004  1.0000
  S   S9        1.0  0.12153  0.01544  0.39867  1.0000
  S   S10       1.0  0.02061  0.11424  0.44982  1.0000
  S   S11       1.0  0.99594  0.02227  0.02455  1.0000
  H   H2        1.0  0.18564  0.32380  0.44936  1.0000
  H   H3        1.0  0.08295  0.10585  0.01455  1.0000
  Fe  Fe6       1.0  0.11947  0.11092  0.00177  1.0000
  S   S12       1.0  0.10661  0.08902  0.03318  1.0000
  C   C1        1.0  0.04452  0.02311  0.11336  1.0000
  H   H4        1.0  0.04782  0.21497  0.45586  1.0000
  N   N1        1.0  0.20235  0.27793  0.00108  1.0000
  H   H5        1.0  0.15026  0.13949  0.02729  1.0000
  S   S13       1.0  0.03211  0.02128  0.25581  1.0000
  Fe  Fe7       1.0  0.01463  0.02684  0.28522  1.0000
  S   S14       1.0  0.02024  0.04669  0.30710  1.0000
  Fe  Fe8       1.0  0.00918  0.01727  0.23931  1.0000
  H   H6        1.0  0.05247  0.09480  0.01350  1.0000
  H   H7        1.0  0.18662  0.32606  0.40399  1.0000
  S   S15       1.0  0.02880  0.06119  0.02951  1.0000
  S   S16       1.0  0.20460  0.22922  0.31556  1.0000
  Fe  Fe9       1.0  0.22051  0.23317  0.04992  1.0000
  S   S17       1.0  0.19441  0.21966  0.04358  1.0000
  H   H8        1.0  0.13935  0.09551  0.08479  1.0000
  S   S18       1.0  0.22000  0.25512  0.06864  1.0000
  H   H9        1.0  0.08112  0.07039  0.26685  1.0000
  H   H10       1.0  0.17433  0.27189  0.04222  1.0000
  H   H11       1.0  0.20914  0.23896  0.98717  1.0000
  H   H12       1.0  0.20428  0.27665  0.20826  1.0000
  N   N2        1.0  0.06629  0.01229  0.32431  1.0000
  H   H13       1.0  0.19720  0.32322  0.36871  1.0000
  H   H14       1.0  0.17590  0.16962  0.07906  1.0000
  S   S19       1.0  0.11930  0.13905  0.99887  1.0000
  C   C2        1.0  0.00516  0.01730  0.18129  1.0000
  H   H15       1.0  0.04072  0.04698  0.41238  1.0000
  H   H16       1.0  0.18101  0.14910  0.08561  1.0000
  S   S20       1.0  0.99244  0.02744  0.07786  1.0000
  H   H17       1.0  0.05247  0.01439  0.10808  1.0000
  H   H18       1.0  0.09328  0.02577  0.31087  1.0000
  C   C3        1.0  0.05715  0.05414  0.97748  1.0000
  H   H19       1.0  0.18881  0.27503  0.06094  1.0000
  C   C4        1.0  0.00241  0.99978  0.14477  1.0000
  C   C5        1.0  0.17782  0.17951  0.00013  1.0000
  H   H20       1.0  0.07142  0.04044  0.31507  1.0000
  C   C6        1.0  0.20052  0.19742  0.01422  1.0000
  C   C7        1.0  0.18854  0.20436  0.02640  1.0000
  C   C8        1.0  0.17120  0.19891  0.02516  1.0000
  C   C9        1.0  0.16586  0.18663  0.01206  1.0000
  C   C10       1.0  0.03937  0.07870  0.38224  1.0000
  H   H21       1.0  0.21390  0.20148  0.01491  1.0000
  H   H22       1.0  0.16182  0.20422  0.03447  1.0000
  H   H23       1.0  0.15249  0.18256  0.01136  1.0000
  C   C11       1.0  0.05045  0.06834  0.03066  1.0000
  C   C12       1.0  0.05912  0.08594  0.02129  1.0000
  C   C13       1.0  0.07640  0.09220  0.02180  1.0000
  C   C14       1.0  0.08510  0.08094  0.03193  1.0000
  C   C15       1.0  0.07652  0.06326  0.04113  1.0000
  C   C16       1.0  0.05920  0.05692  0.04038  1.0000
  H   H24       1.0  0.99522  0.07259  0.04138  1.0000
  H   H25       1.0  0.01505  0.18746  0.41438  1.0000
  H   H26       1.0  0.08336  0.05448  0.04857  1.0000
  H   H27       1.0  0.05267  0.04325  0.04725  1.0000
  H   H28       1.0  0.11996  0.12250  0.04936  1.0000
  H   H29       1.0  0.22529  0.25916  0.97744  1.0000
  H   H30       1.0  0.07097  0.01740  0.26392  1.0000
  H   H31       1.0  0.02332  0.05038  0.97195  1.0000
  C   C17       1.0  0.04581  0.08487  0.40281  1.0000
  H   H32       1.0  0.22489  0.21734  0.24681  1.0000
  S   S21       1.0  0.14755  0.11688  0.98564  1.0000
  H   H33       1.0  0.18940  0.14246  0.38846  1.0000
  C   C18       1.0  0.11437  0.07007  0.39960  1.0000
  C   C19       1.0  0.11300  0.05828  0.42049  1.0000
  C   C20       1.0  0.11482  0.04138  0.42043  1.0000
  C   C21       1.0  0.11831  0.03626  0.39940  1.0000
  C   C22       1.0  0.11954  0.04801  0.37853  1.0000
  C   C23       1.0  0.11743  0.06481  0.37863  1.0000
  H   H34       1.0  0.11059  0.06225  0.43679  1.0000
  H   H35       1.0  0.11377  0.03240  0.43662  1.0000
  H   H36       1.0  0.12226  0.04415  0.36221  1.0000
  H   H37       1.0  0.11846  0.07376  0.36243  1.0000
  C   C24       1.0  0.05923  0.13948  0.38071  1.0000
  C   C25       1.0  0.06447  0.13180  0.40002  1.0000
  C   C26       1.0  0.05259  0.12474  0.42136  1.0000
  C   C27       1.0  0.03527  0.12463  0.42327  1.0000
  C   C28       1.0  0.03000  0.13234  0.40399  1.0000
  C   C29       1.0  0.04204  0.14000  0.38282  1.0000
  H   H38       1.0  0.07778  0.13164  0.39857  1.0000
  H   H39       1.0  0.05684  0.11928  0.43638  1.0000
  H   H40       1.0  0.01666  0.13231  0.40530  1.0000
  H   H41       1.0  0.03798  0.14601  0.36789  1.0000
  C   C30       1.0  0.19270  0.20834  0.31370  1.0000
  C   C31       1.0  0.19978  0.19826  0.30004  1.0000
  C   C32       1.0  0.18966  0.18202  0.29856  1.0000
  C   C33       1.0  0.17238  0.17558  0.31079  1.0000
  C   C34       1.0  0.16535  0.18555  0.32471  1.0000
  C   C35       1.0  0.17548  0.20181  0.32614  1.0000
  H   H42       1.0  0.21306  0.20297  0.29068  1.0000
  H   H43       1.0  0.19527  0.17436  0.28788  1.0000
  H   H44       1.0  0.15211  0.18079  0.33426  1.0000
  H   H45       1.0  0.16987  0.20948  0.33681  1.0000
  C   C36       1.0  0.07519  0.08044  0.29734  1.0000
  C   C37       1.0  0.06216  0.08053  0.31578  1.0000
  C   C38       1.0  0.04527  0.07044  0.31828  1.0000
  C   C39       1.0  0.04129  0.06019  0.30239  1.0000
  C   C40       1.0  0.05423  0.06032  0.28374  1.0000
  C   C41       1.0  0.07112  0.07040  0.28125  1.0000
  H   H46       1.0  0.06510  0.08837  0.32809  1.0000
  H   H47       1.0  0.03529  0.07049  0.33265  1.0000
  H   H48       1.0  0.05127  0.05259  0.27129  1.0000
  H   H49       1.0  0.01947  0.06543  0.13958  1.0000
  N   N3        1.0  0.04647  0.05609  0.10953  1.0000
  C   C42       1.0  0.05559  0.04224  0.10530  1.0000
  C   C43       1.0  0.05864  0.07368  0.09740  1.0000
  C   C44       1.0  0.03070  0.05311  0.09932  1.0000
  C   C45       1.0  0.04161  0.05425  0.13546  1.0000
  C   C46       1.0  0.06118  0.01823  0.99683  1.0000
  C   C47       1.0  0.07641  0.07776  0.10351  1.0000
  H   H50       1.0  0.06705  0.05435  0.38840  1.0000
  H   H51       1.0  0.02320  0.07762  0.10279  1.0000
  H   H52       1.0  0.06136  0.04438  0.08649  1.0000
  H   H53       1.0  0.06645  0.04292  0.11422  1.0000
  C   C48       1.0  0.09020  0.01858  0.34735  1.0000
  N   N4        1.0  0.04288  0.07087  0.42455  1.0000
  C   C49       1.0  0.05576  0.03246  0.35001  1.0000
  H   H54       1.0  0.01963  0.04354  0.11202  1.0000
  H   H55       1.0  0.03300  0.04112  0.14412  1.0000
  H   H56       1.0  0.05311  0.05513  0.14307  1.0000
  H   H57       1.0  0.06030  0.18898  0.44572  1.0000
  C   C50       1.0  0.02363  0.06449  0.43394  1.0000
  H   H58       1.0  0.08909  0.00285  0.32190  1.0000
  C   C51       1.0  0.21764  0.00132  0.46119  1.0000
  H   H59       1.0  0.08349  0.09144  0.09457  1.0000
  H   H60       1.0  0.07545  0.07670  0.12237  1.0000
  H   H61       1.0  0.05295  0.08449  0.10064  1.0000
  H   H62       1.0  0.06034  0.02526  0.36398  1.0000
  H   H63       1.0  0.07472  0.07370  0.39814  1.0000
  H   H64       1.0  0.21408  0.28241  0.02984  1.0000
  H   H65       1.0  0.03997  0.08096  0.13734  1.0000
  S   S22       1.0  0.02180  0.00912  0.05504  1.0000
  H   H66       1.0  0.19008  0.16413  0.05737  1.0000
  H   H67       1.0  0.21247  0.25294  0.19765  1.0000
  H   H68       1.0  0.18229  0.10282  0.37900  1.0000
  H   H69       1.0  0.16152  0.07897  0.40782  1.0000
  H   H70       1.0  0.18888  0.14854  0.33622  1.0000
  C   C52       1.0  0.02063  0.17621  0.41377  1.0000
  C   C53       1.0  0.21893  0.30954  0.97914  1.0000
  H   H71       1.0  0.20068  0.16248  0.35109  1.0000
  Fe  Fe10      1.0  0.01341  0.03354  0.04581  1.0000
  H   H72       1.0  0.14396  0.11869  0.40308  1.0000
  C   C54       1.0  0.15701  0.12786  0.39923  1.0000
  H   H73       1.0  0.10398  0.01890  0.34587  1.0000
  C   C55       1.0  0.18625  0.13710  0.37339  1.0000
  H   H74       1.0  0.15499  0.09737  0.05862  1.0000
  H   H75       1.0  0.15099  0.08682  0.38633  1.0000
  S   S23       1.0  0.12511  0.00220  0.46473  1.0000
  N   N5        1.0  0.16916  0.12336  0.38070  1.0000
  C   C56       1.0  0.18832  0.15265  0.35296  1.0000
  C   C57       1.0  0.16080  0.12097  0.36071  1.0000
  C   C58       1.0  0.15434  0.14630  0.39381  1.0000
  C   C59       1.0  0.17069  0.11398  0.34171  1.0000
  H   H76       1.0  0.17891  0.10829  0.40635  1.0000
  H   H77       1.0  0.14769  0.11193  0.36703  1.0000
  H   H78       1.0  0.15814  0.13316  0.35232  1.0000
  H   H79       1.0  0.14742  0.09210  0.41462  1.0000
  H   H80       1.0  0.15041  0.14924  0.37713  1.0000
  H   H81       1.0  0.14382  0.14722  0.40758  1.0000
  H   H82       1.0  0.16597  0.15642  0.39395  1.0000
  H   H83       1.0  0.16576  0.09959  0.34471  1.0000
  H   H84       1.0  0.18470  0.11729  0.34065  1.0000
  H   H85       1.0  0.16905  0.12009  0.32440  1.0000
  H   H86       1.0  0.00315  0.04627  0.46135  1.0000
  C   C60       1.0  0.07556  0.02091  0.27926  1.0000
  H   H87       1.0  0.22520  0.30235  0.05414  1.0000
  C   C61       1.0  0.05130  0.18278  0.43584  1.0000
  H   H88       1.0  0.07350  0.09307  0.45100  1.0000
  H   H89       1.0  0.18390  0.29296  0.99522  1.0000
  H   H90       1.0  0.18296  0.25831  0.19417  1.0000
  H   H91       1.0  0.19375  0.25057  0.17133  1.0000
  C   C62       1.0  0.05052  0.07871  0.44264  1.0000
  S   S24       1.0  0.23231  0.23501  0.12956  1.0000
  C   C63       1.0  0.23058  0.31421  0.04075  1.0000
  H   H92       1.0  0.05804  0.15753  0.44164  1.0000
  H   H93       1.0  0.99194  0.05336  0.97167  1.0000
  C   C64       1.0  0.99879  0.02400  0.16236  1.0000
  H   H94       1.0  0.07738  0.07709  0.43552  1.0000
  C   C65       1.0  0.07008  0.08703  0.43663  1.0000
  S   S25       1.0  0.23030  0.27166  0.27160  1.0000
  C   C66       1.0  0.08497  0.01467  0.32500  1.0000
  H   H95       1.0  0.22008  0.01421  0.46596  1.0000
  H   H96       1.0  0.18740  0.25685  0.04771  1.0000
  H   H97       1.0  0.19011  0.25004  0.01136  1.0000
  H   H98       1.0  0.03285  0.04719  0.08399  1.0000
  H   H99       1.0  0.20458  0.17978  0.99193  1.0000
  H   H100      1.0  0.21086  0.25609  0.01714  1.0000
  Fe  Fe11      1.0  0.14713  0.14519  0.98008  1.0000
  H   H101      1.0  0.03063  0.00331  0.34200  1.0000
  C   C67       1.0  0.19518  0.18510  0.00118  1.0000
  C   C68       1.0  0.17843  0.15850  0.07169  1.0000
  N   N6        1.0  0.16254  0.13318  0.05560  1.0000
  C   C69       1.0  0.21842  0.28997  0.98465  1.0000
  C   C70       1.0  0.16063  0.11933  0.07714  1.0000
  C   C71       1.0  0.18159  0.12031  0.02765  1.0000
  C   C72       1.0  0.15322  0.10012  0.07612  1.0000
  C   C73       1.0  0.99263  0.07207  0.00606  1.0000
  C   C74       1.0  0.14786  0.12933  0.04358  1.0000
  H   H102      1.0  0.16134  0.12641  0.41589  1.0000
  H   H103      1.0  0.17319  0.12034  0.08221  1.0000
  H   H104      1.0  0.15189  0.12157  0.09210  1.0000
  H   H105      1.0  0.07022  0.01013  0.99989  1.0000
  C   C75       1.0  0.06099  0.02890  0.32560  1.0000
  C   C76       1.0  0.13000  0.12834  0.05805  1.0000
  H   H106      1.0  0.19704  0.13135  0.36792  1.0000
  H   H107      1.0  0.01727  0.05795  0.42173  1.0000
  H   H108      1.0  0.08909  0.02020  0.27679  1.0000
  H   H109      1.0  0.03181  0.02456  0.98713  1.0000
  C   C77       1.0  0.99738  0.01527  0.14419  1.0000
  C   C78       1.0  0.02111  0.16668  0.43824  1.0000
  C   C79       1.0  0.18736  0.24697  0.19011  1.0000
  H   H110      1.0  0.07234  0.17415  0.41818  1.0000
  S   S26       1.0  0.17190  0.16320  0.98436  1.0000
  C   C80       1.0  0.17932  0.13569  0.03866  1.0000
  H   H111      1.0  0.07949  0.05778  0.99353  1.0000
  H   H112      1.0  0.02283  0.04001  0.45842  1.0000
  H   H113      1.0  0.12729  0.12007  0.07578  1.0000
  H   H114      1.0  0.02397  0.15404  0.43670  1.0000
  H   H115      1.0  0.01212  0.16705  0.40626  1.0000
  H   H116      1.0  0.04342  0.08994  0.36694  1.0000
  S   S27       1.0  0.00845  0.02964  0.20242  1.0000
  C   C81       1.0  0.18715  0.27075  0.04469  1.0000
  H   H117      1.0  0.05009  0.04834  0.99580  1.0000
  H   H118      1.0  0.02983  0.06453  0.16321  1.0000
  C   C82       1.0  0.20316  0.25914  0.00415  1.0000
  H   H119      1.0  0.18270  0.10923  0.04061  1.0000
  H   H120      1.0  0.06107  0.07506  0.07825  1.0000
  Fe  Fe12      1.0  0.99928  0.00195  0.08596  1.0000
  H   H121      1.0  0.15123  0.14899  0.07636  1.0000
  H   H122      1.0  0.17811  0.15947  0.35526  1.0000
  C   C83       1.0  0.20178  0.28259  0.02444  1.0000
  C   C84       1.0  0.21117  0.25335  0.98260  1.0000
  N   N7        1.0  0.03322  0.17666  0.45042  1.0000
  H   H123      1.0  0.07461  0.09765  0.42074  1.0000
  C   C85       1.0  0.15713  0.09039  0.40046  1.0000
  H   H124      1.0  0.05947  0.09203  0.39610  1.0000
  H   H125      1.0  0.02792  0.20132  0.43798  1.0000
  H   H126      1.0  0.06247  0.02747  0.00843  1.0000
  H   H127      1.0  0.05194  0.16337  0.41433  1.0000
  H   H128      1.0  0.07493  0.03449  0.27908  1.0000
  H   H129      1.0  0.19037  0.13862  0.04705  1.0000
  H   H130      1.0  0.04818  0.06864  0.45894  1.0000
  H   H131      1.0  0.08308  0.00843  0.36315  1.0000
  H   H132      1.0  0.17616  0.23565  0.19243  1.0000
  H   H133      1.0  0.08917  0.03171  0.34950  1.0000
  C   C86       1.0  0.03786  0.20387  0.46811  1.0000
  H   H134      1.0  0.03338  0.07737  0.07375  1.0000
  H   H135      1.0  0.15958  0.09168  0.08634  1.0000
  H   H136      1.0  0.05243  0.19326  0.42039  1.0000
  C   C87       1.0  0.04967  0.05558  0.42012  1.0000
  H   H137      1.0  0.03333  0.02058  0.10525  1.0000
  H   H138      1.0  0.12859  0.14156  0.05903  1.0000
  C   C88       1.0  0.18625  0.28013  0.99350  1.0000
  H   H139      1.0  0.20417  0.32338  0.41573  1.0000
  H   H140      1.0  0.04972  0.02902  0.31763  1.0000
  Fe  Fe13      1.0  0.23097  0.24686  0.29510  1.0000
  H   H141      1.0  0.08438  0.06946  0.09696  1.0000
  H   H142      1.0  0.19930  0.28226  0.23564  1.0000
  H   H143      1.0  0.20043  0.29607  0.02370  1.0000
  H   H144      1.0  0.19388  0.12465  0.01433  1.0000
  C   C89       1.0  0.16275  0.15032  0.06255  1.0000
  H   H145      1.0  0.16203  0.16029  0.04766  1.0000
  C   C90       1.0  0.05862  0.16848  0.42720  1.0000
  C   C91       1.0  0.02456  0.06928  0.09023  1.0000
  C   C92       1.0  0.03224  0.06723  0.14393  1.0000
  H   H146      1.0  0.06109  0.04657  0.34908  1.0000
  N   N8        1.0  0.19467  0.23893  0.23025  1.0000
  C   C93       1.0  0.20038  0.24229  0.20419  1.0000
  C   C94       1.0  0.20943  0.23559  0.24070  1.0000
  C   C95       1.0  0.18990  0.25445  0.23759  1.0000
  C   C96       1.0  0.17912  0.22347  0.23845  1.0000
  H   H147      1.0  0.14664  0.11697  0.03771  1.0000
  C   C97       1.0  0.21326  0.21782  0.23988  1.0000
  C   C98       1.0  0.20328  0.27221  0.22714  1.0000
  C   C99       1.0  0.17190  0.21770  0.26504  1.0000
  H   H148      1.0  0.18147  0.14720  0.02416  1.0000
  H   H149      1.0  0.20358  0.23069  0.19887  1.0000
  H   H150      1.0  0.20761  0.23674  0.25913  1.0000
  H   H151      1.0  0.22153  0.24577  0.23181  1.0000
  H   H152      1.0  0.17748  0.25574  0.23340  1.0000
  H   H153      1.0  0.18762  0.25261  0.25684  1.0000
  H   H154      1.0  0.16828  0.22627  0.23097  1.0000
  H   H155      1.0  0.18150  0.21201  0.23176  1.0000
  H   H156      1.0  0.04495  0.06832  0.37701  1.0000
  H   H157      1.0  0.17143  0.11603  0.01838  1.0000
  H   H158      1.0  0.01181  0.06486  0.08613  1.0000
  H   H159      1.0  0.20266  0.20680  0.25097  1.0000
  H   H160      1.0  0.03338  0.18040  0.40157  1.0000
  H   H161      1.0  0.22992  0.28867  0.99157  1.0000
  H   H162      1.0  0.21618  0.27193  0.23006  1.0000
  H   H163      1.0  0.21597  0.21582  0.22198  1.0000
  H   H164      1.0  0.00773  0.16297  0.44874  1.0000
  H   H165      1.0  0.16024  0.22223  0.27008  1.0000
  H   H166      1.0  0.18106  0.22259  0.27533  1.0000
  H   H167      1.0  0.16835  0.20321  0.27055  1.0000
  S   S28       1.0  0.00496  0.99893  0.30493  1.0000
  H   H168      1.0  0.03944  0.09516  0.40666  1.0000
  H   H169      1.0  0.07611  0.05323  0.41326  1.0000
  C   C100      1.0  0.17275  0.10652  0.39147  1.0000
  H   H170      1.0  0.00081  0.06281  0.00463  1.0000
  H   H171      1.0  0.02515  0.07434  0.38585  1.0000
  C   C101      1.0  0.06779  0.05974  0.40407  1.0000
  H   H172      1.0  0.04010  0.01896  0.13252  1.0000
  H   H173      1.0  0.04994  0.04719  0.43684  1.0000
  H   H174      1.0  0.17476  0.27052  0.00542  1.0000
  C   C102      1.0  0.01735  0.05139  0.45779  1.0000
  C   C103      1.0  0.06408  0.00782  0.30140  1.0000
  C   C104      1.0  0.00956  0.00148  0.18232  1.0000
  H   H175      1.0  0.22071  0.00390  0.44196  1.0000
  H   H176      1.0  0.99255  0.02058  0.12965  1.0000
  H   H177      1.0  0.04407  0.08875  0.44745  1.0000
  C   C105      1.0  0.06590  0.02758  0.97087  1.0000
  H   H178      1.0  0.21840  0.31516  0.99469  1.0000
  H   H179      1.0  0.99519  0.03615  0.16156  1.0000
  H   H180      1.0  0.01353  0.18884  0.46355  1.0000
  Fe  Fe14      1.0  0.99337  0.11683  0.45557  1.0000
  H   H181      1.0  0.21274  0.32767  0.05510  1.0000
  H   H182      1.0  0.04159  0.03005  0.35517  1.0000
  C   C106      1.0  0.22357  0.32860  0.04130  1.0000
  H   H183      1.0  0.04809  0.00918  0.00197  1.0000
  H   H184      1.0  0.05650  0.99868  0.36076  1.0000
  S   S29       1.0  0.23545  0.22111  0.07313  1.0000
  H   H185      1.0  0.01799  0.07570  0.43566  1.0000
  H   H186      1.0  0.05065  0.00674  0.29944  1.0000
  H   H187      1.0  0.07593  0.07737  0.97939  1.0000
  H   H188      1.0  0.05082  0.06425  0.97091  1.0000
  S   S30       1.0  0.99260  0.02520  0.26745  1.0000
  C   C107      1.0  0.07563  0.06380  0.97786  1.0000
  C   C108      1.0  0.02736  0.19244  0.45470  1.0000
  H   H189      1.0  0.03351  0.15139  0.47002  1.0000
  S   S31       1.0  0.20719  0.01027  0.52693  1.0000
  C   C109      1.0  0.00283  0.17629  0.84565  1.0000
  S   S32       1.0  0.08412  0.00105  0.50971  1.0000
  H   H190      1.0  0.00862  0.19089  0.71702  1.0000
  C   C110      1.0  0.02783  0.04390  0.78163  1.0000
  H   H191      1.0  0.02735  0.29274  0.59061  1.0000
  Fe  Fe15      1.0  0.08050  0.01144  0.86199  1.0000
  S   S33       1.0  0.05614  0.01734  0.85427  1.0000
  Fe  Fe16      1.0  0.10312  0.01768  0.89678  1.0000
  S   S34       1.0  0.10355  0.02939  0.92823  1.0000
  S   S35       1.0  0.10558  0.03087  0.85960  1.0000
  S   S36       1.0  0.99947  0.11559  0.90741  1.0000
  C   C111      1.0  0.99330  0.06603  0.79423  1.0000
  C   C112      1.0  0.21894  0.05895  0.84000  1.0000
  S   S37       1.0  0.14982  0.10488  0.92337  1.0000
  H   H192      1.0  0.99061  0.30538  0.81497  1.0000
  S   S38       1.0  0.14069  0.14558  0.94494  1.0000
  C   C113      1.0  0.18129  0.00601  0.50318  1.0000
  H   H193      1.0  0.11846  0.03112  0.52403  1.0000
  H   H194      1.0  0.05778  0.25312  0.87036  1.0000
  H   H195      1.0  0.12069  0.11512  0.91385  1.0000
  C   C114      1.0  0.07635  0.13387  0.94058  1.0000
  C   C115      1.0  0.07590  0.27590  0.84688  1.0000
  Fe  Fe17      1.0  0.22835  0.00233  0.54342  1.0000
  Fe  Fe18      1.0  0.00839  0.27586  0.54648  1.0000
  S   S39       1.0  0.03663  0.29206  0.53638  1.0000
  S   S40       1.0  0.00350  0.25199  0.57546  1.0000
  Fe  Fe19      1.0  0.01268  0.24972  0.78499  1.0000
  S   S41       1.0  0.00243  0.26315  0.81173  1.0000
  S   S42       1.0  0.02537  0.22737  0.78961  1.0000
  Fe  Fe20      1.0  0.00651  0.27497  0.74495  1.0000
  S   S43       1.0  0.99585  0.29077  0.76886  1.0000
  S   S44       1.0  0.01350  0.27949  0.70510  1.0000
  Fe  Fe21      1.0  0.01757  0.28859  0.78707  1.0000
  S   S45       1.0  0.02907  0.31017  0.80489  1.0000
  S   S46       1.0  0.02933  0.27497  0.76142  1.0000
  H   H196      1.0  0.00011  0.29329  0.60260  1.0000
  C   C116      1.0  0.00067  0.26607  0.64673  1.0000
  C   C117      1.0  0.00976  0.27060  0.66367  1.0000
  C   C118      1.0  0.00116  0.27248  0.68517  1.0000
  C   C119      1.0  0.12745  0.14166  0.87551  1.0000
  H   H197      1.0  0.06064  0.09112  0.94052  1.0000
  H   H198      1.0  0.02356  0.27272  0.66010  1.0000
  H   H199      1.0  0.12411  0.09923  0.87139  1.0000
  C   C120      1.0  0.06201  0.26751  0.79851  1.0000
  C   C121      1.0  0.02492  0.04109  0.96068  1.0000
  C   C122      1.0  0.06509  0.32028  0.79713  1.0000
  H   H200      1.0  0.01191  0.32439  0.62497  1.0000
  C   C123      1.0  0.03054  0.22712  0.86089  1.0000
  H   H201      1.0  0.06527  0.31169  0.78522  1.0000
  C   C124      1.0  0.04725  0.31482  0.52764  1.0000
  S   S47       1.0  0.21829  0.01669  0.82088  1.0000
  H   H202      1.0  0.22154  0.05542  0.82297  1.0000
  S   S48       1.0  0.13990  0.01360  0.82017  1.0000
  H   H203      1.0  0.02094  0.26427  0.85157  1.0000
  C   C125      1.0  0.11724  0.05006  0.92642  1.0000
  C   C126      1.0  0.11655  0.05682  0.94642  1.0000
  C   C127      1.0  0.12649  0.07361  0.94553  1.0000
  C   C128      1.0  0.13768  0.08357  0.92480  1.0000
  C   C129      1.0  0.13894  0.07657  0.90493  1.0000
  C   C130      1.0  0.12852  0.05994  0.90563  1.0000
  H   H204      1.0  0.12578  0.07867  0.96108  1.0000
  C   C131      1.0  0.05190  0.99812  0.79698  1.0000
  H   H205      1.0  0.14784  0.08408  0.88894  1.0000
  H   H206      1.0  0.12932  0.05472  0.89020  1.0000
  H   H207      1.0  0.01238  0.07533  0.94011  1.0000
  H   H208      1.0  0.18382  0.02007  0.50008  1.0000
  C   C132      1.0  0.19670  0.01644  0.82004  1.0000
  C   C133      1.0  0.02449  0.00294  0.81240  1.0000
  C   C134      1.0  0.16758  0.01417  0.84128  1.0000
  H   H209      1.0  0.03331  0.31489  0.65263  1.0000
  C   C135      1.0  0.99912  0.30550  0.60807  1.0000
  C   C136      1.0  0.05510  0.13028  0.91661  1.0000
  C   C137      1.0  0.06675  0.14107  0.92611  1.0000
  H   H210      1.0  0.04825  0.13600  0.90480  1.0000
  H   H211      1.0  0.06873  0.15508  0.92167  1.0000
  C   C138      1.0  0.00146  0.20564  0.82813  1.0000
  H   H212      1.0  0.03830  0.27310  0.81224  1.0000
  H   H213      1.0  0.11024  0.01099  0.57077  1.0000
  C   C139      1.0  0.10807  0.00090  0.56034  1.0000
  S   S49       1.0  0.09260  0.14782  0.94968  1.0000
  C   C140      1.0  0.04786  0.00864  0.83245  1.0000
  H   H214      1.0  0.01377  0.20432  0.75082  1.0000
  H   H215      1.0  0.00109  0.07499  0.77838  1.0000
  C   C141      1.0  0.01608  0.20763  0.81088  1.0000
  Fe  Fe22      1.0  0.11782  0.00952  0.85130  1.0000
  H   H216      1.0  0.02729  0.28545  0.87444  1.0000
  H   H217      1.0  0.01205  0.03210  0.96282  1.0000
  H   H218      1.0  0.06295  0.30320  0.60216  1.0000
  H   H219      1.0  0.01248  0.30293  0.63544  1.0000
  H   H220      1.0  0.01208  0.03450  0.59788  1.0000
  H   H221      1.0  0.07984  0.03418  0.96644  1.0000
  C   C142      1.0  0.11027  0.11457  0.90415  1.0000
  H   H222      1.0  0.14031  0.14250  0.87972  1.0000
  H   H223      1.0  0.13575  0.00276  0.57870  1.0000
  H   H224      1.0  0.00617  0.04636  0.57305  1.0000
  H   H225      1.0  0.22081  0.28643  0.96761  1.0000
  C   C143      1.0  0.06281  0.04882  0.93824  1.0000
  H   H226      1.0  0.00500  0.15810  0.48714  1.0000
  H   H227      1.0  0.00342  0.23719  0.69409  1.0000
  C   C144      1.0  0.99498  0.19011  0.84552  1.0000
  C   C145      1.0  0.05932  0.03707  0.92100  1.0000
  C   C146      1.0  0.04936  0.32218  0.80834  1.0000
  S   S50       1.0  0.07716  0.00009  0.89971  1.0000
  H   H228      1.0  0.13840  0.03569  0.50356  1.0000
  C   C147      1.0  0.00708  0.07960  0.95578  1.0000
  H   H229      1.0  0.05583  0.32503  0.64564  1.0000
  H   H230      1.0  0.05797  0.06045  0.93315  1.0000
  H   H231      1.0  0.07702  0.05396  0.93444  1.0000
  H   H232      1.0  0.04646  0.23703  0.82677  1.0000
  H   H233      1.0  0.04255  0.29372  0.84761  1.0000
  H   H234      1.0  0.00878  0.02495  0.57399  1.0000
  H   H235      1.0  0.16130  0.00327  0.48376  1.0000
  H   H236      1.0  0.13298  0.11954  0.83218  1.0000
  H   H237      1.0  0.05900  0.30848  0.57338  1.0000
  H   H238      1.0  0.19993  0.01931  0.78309  1.0000
  C   C148      1.0  0.03848  0.28301  0.86340  1.0000
  H   H239      1.0  0.06456  0.02560  0.92419  1.0000
  H   H240      1.0  0.06593  0.04464  0.90310  1.0000
  H   H241      1.0  0.04548  0.03273  0.92110  1.0000
  C   C149      1.0  0.00498  0.21239  0.74597  1.0000
  Fe  Fe23      1.0  0.11290  0.13700  0.96413  1.0000
  H   H242      1.0  0.02772  0.03306  0.77248  1.0000
  H   H243      1.0  0.01997  0.05779  0.47218  1.0000
  C   C150      1.0  0.02605  0.22430  0.70925  1.0000
  H   H244      1.0  0.10592  0.15247  0.88900  1.0000
  C   C151      1.0  0.06160  0.25867  0.85126  1.0000
  C   C152      1.0  0.09920  0.09551  0.91002  1.0000
  C   C153      1.0  0.03540  0.23987  0.71805  1.0000
  C   C154      1.0  0.00130  0.20040  0.71157  1.0000
  C   C155      1.0  0.04467  0.32625  0.61525  1.0000
  H   H245      1.0  0.14832  0.01421  0.52467  1.0000
  H   H246      1.0  0.03308  0.21406  0.71204  1.0000
  H   H247      1.0  0.02835  0.22900  0.69009  1.0000
  H   H248      1.0  0.16936  0.01843  0.78352  1.0000
  H   H249      1.0  0.13997  0.11297  0.88147  1.0000
  H   H250      1.0  0.06672  0.27894  0.78348  1.0000
  C   C156      1.0  0.19101  0.01790  0.79932  1.0000
  H   H251      1.0  0.07336  0.26419  0.80381  1.0000
  S   S51       1.0  0.99392  0.26058  0.52449  1.0000
  H   H252      1.0  0.07143  0.00378  0.81649  1.0000
  H   H253      1.0  0.09946  0.10731  0.86318  1.0000
  H   H254      1.0  0.02888  0.25050  0.71718  1.0000
  H   H255      1.0  0.02643  0.24234  0.83012  1.0000
  C   C157      1.0  0.03292  0.26485  0.85816  1.0000
  C   C158      1.0  0.19104  0.99753  0.51609  1.0000
  H   H256      1.0  0.03562  0.01885  0.96002  1.0000
  Fe  Fe24      1.0  0.00316  0.09992  0.85015  1.0000
  N   N9        1.0  0.11774  0.12278  0.87870  1.0000
  H   H257      1.0  0.00585  0.09294  0.94962  1.0000
  C   C159      1.0  0.13053  0.11314  0.87026  1.0000
  H   H258      1.0  0.04017  0.22641  0.87162  1.0000
  H   H259      1.0  0.02345  0.16766  0.82808  1.0000
  H   H260      1.0  0.02470  0.32372  0.52483  1.0000
  Fe  Fe25      1.0  0.00029  0.13084  0.87164  1.0000
  H   H261      1.0  0.99825  0.04900  0.61955  1.0000
  H   H262      1.0  0.12220  0.01615  0.50586  1.0000
  H   H263      1.0  0.99529  0.21615  0.82833  1.0000
  S   S52       1.0  0.99454  0.15741  0.86866  1.0000
  H   H264      1.0  0.08773  0.09425  0.90236  1.0000
  C   C160      1.0  0.18492  0.01468  0.84097  1.0000
  H   H265      1.0  0.00018  0.06218  0.50865  1.0000
  H   H266      1.0  0.10213  0.12197  0.91246  1.0000
  C   C161      1.0  0.05412  0.29959  0.59076  1.0000
  H   H267      1.0  0.00879  0.22445  0.75237  1.0000
  H   H268      1.0  0.10839  0.04904  0.96277  1.0000
  C   C162      1.0  0.03510  0.99817  0.79515  1.0000
  H   H269      1.0  0.21210  0.04692  0.85356  1.0000
  H   H270      1.0  0.02904  0.25557  0.87541  1.0000
  C   C163      1.0  0.03088  0.00818  0.83100  1.0000
  S   S53       1.0  0.99060  0.24902  0.76745  1.0000
  S   S54       1.0  0.02307  0.12270  0.85453  1.0000
  H   H271      1.0  0.00739  0.26456  0.63033  1.0000
  C   C164      1.0  0.14113  0.12043  0.84504  1.0000
  S   S55       1.0  0.00550  0.09164  0.81599  1.0000
  C   C165      1.0  0.02390  0.19381  0.81089  1.0000
  C   C166      1.0  0.11923  0.15270  0.89032  1.0000
  H   H272      1.0  0.09093  0.14187  0.86231  1.0000
  C   C167      1.0  0.06216  0.10503  0.93664  1.0000
  C   C168      1.0  0.07343  0.11574  0.94653  1.0000
  H   H273      1.0  0.20992  0.06733  0.83917  1.0000
  H   H274      1.0  0.07215  0.31046  0.52850  1.0000
  C   C169      1.0  0.05323  0.11226  0.92129  1.0000
  H   H275      1.0  0.14906  0.13401  0.84228  1.0000
  Fe  Fe26      1.0  0.02063  0.10580  0.88980  1.0000
  H   H276      1.0  0.08010  0.10996  0.95839  1.0000
  C   C170      1.0  0.06513  0.32021  0.52567  1.0000
  C   C171      1.0  0.08068  0.32946  0.80141  1.0000
  C   C172      1.0  0.16184  0.01544  0.82059  1.0000
  H   H277      1.0  0.12690  0.16654  0.88442  1.0000
  C   C173      1.0  0.03334  0.32686  0.58016  1.0000
  C   C174      1.0  0.17367  0.01744  0.79962  1.0000
  H   H278      1.0  0.16178  0.00328  0.55140  1.0000
  H   H279      1.0  0.09446  0.09123  0.92916  1.0000
  H   H280      1.0  0.04854  0.24549  0.70690  1.0000
  H   H281      1.0  0.02910  0.20913  0.47957  1.0000
  N   N10       1.0  0.00705  0.21683  0.71996  1.0000
  H   H282      1.0  0.02274  0.01225  0.84402  1.0000
  H   H283      1.0  0.02718  0.21434  0.85596  1.0000
  C   C175      1.0  0.98960  0.06653  0.96809  1.0000
  H   H284      1.0  0.10147  0.00592  0.54699  1.0000
  H   H285      1.0  0.01153  0.00307  0.81111  1.0000
  H   H286      1.0  0.02516  0.31940  0.57037  1.0000
  H   H287      1.0  0.07717  0.12002  0.86775  1.0000
  H   H288      1.0  0.23475  0.99940  0.70575  1.0000
  H   H289      1.0  0.04430  0.19664  0.47966  1.0000
  H   H290      1.0  0.15022  0.11238  0.84143  1.0000
  H   H291      1.0  0.15865  0.01267  0.85753  1.0000
  H   H292      1.0  0.05120  0.00781  0.52216  1.0000
  H   H293      1.0  0.13975  0.02495  0.54546  1.0000
  H   H294      1.0  0.10658  0.08637  0.90486  1.0000
  N   N11       1.0  0.03189  0.31621  0.60405  1.0000
  H   H295      1.0  0.08648  0.27673  0.83203  1.0000
  S   S56       1.0  0.11695  0.99760  0.88853  1.0000
  H   H296      1.0  0.05636  0.28558  0.81884  1.0000
  C   C176      1.0  0.01719  0.16159  0.49281  1.0000
  H   H297      1.0  0.19715  0.28273  0.95594  1.0000
  H   H298      1.0  0.09271  0.32771  0.79278  1.0000
  N   N12       1.0  0.05572  0.04020  0.96369  1.0000
  H   H299      1.0  0.01778  0.03859  0.79793  1.0000
  H   H300      1.0  0.03525  0.19525  0.79765  1.0000
  C   C177      1.0  0.05022  0.27210  0.81816  1.0000
  S   S57       1.0  0.00260  0.08235  0.88382  1.0000
  C   C178      1.0  0.08873  0.12811  0.87168  1.0000
  C   C179      1.0  0.00407  0.03346  0.58485  1.0000
  H   H301      1.0  0.06795  0.24946  0.84367  1.0000
  H   H302      1.0  0.08527  0.12725  0.89046  1.0000
  S   S58       1.0  0.04165  0.09854  0.90633  1.0000
  N   N13       1.0  0.04842  0.06487  0.79892  1.0000
  C   C180      1.0  0.04594  0.05023  0.78620  1.0000
  C   C181      1.0  0.06730  0.07050  0.79870  1.0000
  C   C182      1.0  0.04304  0.07969  0.78566  1.0000
  C   C183      1.0  0.03728  0.05800  0.82317  1.0000
  C   C184      1.0  0.12814  0.02500  0.51601  1.0000
  C   C185      1.0  0.07442  0.05695  0.81272  1.0000
  C   C186      1.0  0.04968  0.09807  0.78987  1.0000
  C   C187      1.0  0.03948  0.06973  0.84071  1.0000
  H   H303      1.0  0.05517  0.05404  0.76898  1.0000
  H   H304      1.0  0.04872  0.03849  0.79583  1.0000
  H   H305      1.0  0.07061  0.08238  0.80557  1.0000
  H   H306      1.0  0.07508  0.07427  0.78050  1.0000
  H   H307      1.0  0.04727  0.08108  0.76656  1.0000
  H   H308      1.0  0.02883  0.07683  0.78927  1.0000
  H   H309      1.0  0.02344  0.05525  0.82265  1.0000
  H   H310      1.0  0.03874  0.04504  0.83124  1.0000
  H   H311      1.0  0.05483  0.25660  0.79215  1.0000
  C   C188      1.0  0.01410  0.31263  0.61904  1.0000
  H   H312      1.0  0.11958  0.14863  0.90884  1.0000
  H   H313      1.0  0.06816  0.05370  0.83144  1.0000
  H   H314      1.0  0.07328  0.04486  0.80612  1.0000
  H   H315      1.0  0.08834  0.06258  0.81128  1.0000
  H   H316      1.0  0.04301  0.10696  0.78106  1.0000
  H   H317      1.0  0.06362  0.10356  0.78212  1.0000
  H   H318      1.0  0.04688  0.09849  0.80839  1.0000
  Fe  Fe27      1.0  0.13928  0.11697  0.95202  1.0000
  H   H319      1.0  0.05259  0.07822  0.83795  1.0000
  H   H320      1.0  0.05461  0.28637  0.58834  1.0000
  H   H321      1.0  0.04860  0.28368  0.87353  1.0000
  C   C189      1.0  0.01725  0.17815  0.82810  1.0000
  H   H322      1.0  0.02427  0.05422  0.77016  1.0000
  H   H323      1.0  0.01704  0.15064  0.50705  1.0000
  C   C190      1.0  0.03541  0.29898  0.60156  1.0000
  H   H324      1.0  0.99815  0.31527  0.59317  1.0000
  S   S59       1.0  0.99172  0.01593  0.75439  1.0000
  C   C191      1.0  0.03743  0.24180  0.83857  1.0000
  C   C192      1.0  0.99284  0.07101  0.81550  1.0000
  H   H325      1.0  0.12999  0.14874  0.85704  1.0000
  H   H326      1.0  0.03689  0.06134  0.85843  1.0000
  H   H327      1.0  0.11015  0.12816  0.84598  1.0000
  H   H328      1.0  0.03175  0.28956  0.61862  1.0000
  C   C193      1.0  0.03840  0.32761  0.52363  1.0000
  H   H329      1.0  0.08184  0.27574  0.86217  1.0000
  H   H330      1.0  0.03699  0.23570  0.73601  1.0000
  H   H331      1.0  0.01851  0.22839  0.87141  1.0000
  H   H332      1.0  0.07170  0.28804  0.84425  1.0000
  C   C194      1.0  0.10435  0.12110  0.86433  1.0000
  H   H333      1.0  0.18920  0.01358  0.85709  1.0000
  H   H334      1.0  0.03021  0.07786  0.84079  1.0000
  N   N14       1.0  0.04593  0.25967  0.84161  1.0000
  H   H335      1.0  0.02912  0.04825  0.94224  1.0000
  C   C195      1.0  0.00312  0.20295  0.68506  1.0000
  S   S60       1.0  0.99197  0.02619  0.53106  1.0000
  C   C196      1.0  0.13603  0.01564  0.53440  1.0000
  C   C197      1.0  0.05828  0.00332  0.81561  1.0000
  H   H336      1.0  0.01756  0.17325  0.50030  1.0000
  H   H337      1.0  0.01678  0.20654  0.67563  1.0000
  H   H338      1.0  0.06454  0.01710  0.96105  1.0000
  H   H339      1.0  0.23392  0.03411  0.85315  1.0000
  H   H340      1.0  0.08540  0.06486  0.96214  1.0000
  H   H341      1.0  0.99009  0.22225  0.50335  1.0000
  H   H342      1.0  0.04834  0.30406  0.63981  1.0000
  H   H343      1.0  0.05784  0.33014  0.60393  1.0000
  H   H344      1.0  0.23172  0.07008  0.86444  1.0000
  H   H345      1.0  0.99686  0.19040  0.68117  1.0000
  C   C198      1.0  0.99792  0.23047  0.71267  1.0000
  C   C199      1.0  0.04542  0.31681  0.63966  1.0000
  H   H346      1.0  0.99674  0.21278  0.67799  1.0000
  H   H347      1.0  0.00037  0.24101  0.72227  1.0000
  H   H348      1.0  0.17631  0.28538  0.96244  1.0000
  H   H349      1.0  0.01671  0.08006  0.96670  1.0000
  C   C200      1.0  0.03710  0.03027  0.96824  1.0000
  H   H350      1.0  0.20532  0.25634  0.96767  1.0000
  N   N15       1.0  0.12497  0.99821  0.54918  1.0000
  C   C201      1.0  0.18485  0.27768  0.96896  1.0000
  H   H351      1.0  0.04460  0.16910  0.47964  1.0000
  H   H352      1.0  0.23136  0.31692  0.96702  1.0000
  C   C202      1.0  0.23540  0.06886  0.84614  1.0000
  H   H353      1.0  0.98832  0.06200  0.58832  1.0000
  H   H354      1.0  0.04656  0.32958  0.56942  1.0000
  H   H355      1.0  0.98777  0.20018  0.77944  1.0000
  S   S61       1.0  0.11125  0.10854  0.96861  1.0000
  H   H356      1.0  0.17931  0.26372  0.96929  1.0000
  C   C203      1.0  0.03297  0.16456  0.47288  1.0000
  H   H357      1.0  0.98774  0.19336  0.71962  1.0000
  H   H358      1.0  0.98683  0.30220  0.62123  1.0000
  C   C204      1.0  0.98690  0.20281  0.76091  1.0000
  Fe  Fe28      1.0  0.98721  0.23745  0.55468  1.0000
  H   H359      1.0  0.20857  0.31202  0.97043  1.0000
  H   H360      1.0  0.99745  0.52309  0.38334  1.0000
  C   C205      1.0  0.09433  0.42783  0.37468  1.0000
  H   H361      1.0  0.09931  0.57766  0.00592  1.0000
  H   H362      1.0  0.09543  0.56998  0.39006  1.0000
  S   S62       1.0  0.21471  0.40758  0.00409  1.0000
  H   H363      1.0  0.09802  0.57099  0.35976  1.0000
  Fe  Fe29      1.0  0.08058  0.47249  0.97161  1.0000
  C   C206      1.0  0.98710  0.45597  0.34465  1.0000
  H   H364      1.0  0.12049  0.42269  0.42551  1.0000
  H   H365      1.0  0.09470  0.54592  0.03663  1.0000
  H   H366      1.0  0.14715  0.50610  0.27814  1.0000
  H   H367      1.0  0.08511  0.58023  0.03099  1.0000
  H   H368      1.0  0.99111  0.40549  0.02377  1.0000
  Fe  Fe30      1.0  0.05664  0.46949  0.37731  1.0000
  S   S63       1.0  0.03543  0.48213  0.38657  1.0000
  S   S64       1.0  0.05916  0.44728  0.40429  1.0000
  Fe  Fe31      1.0  0.06705  0.49016  0.32726  1.0000
  S   S65       1.0  0.04678  0.50453  0.33256  1.0000
  S   S66       1.0  0.08490  0.49130  0.29307  1.0000
  Fe  Fe32      1.0  0.05448  0.50702  0.36621  1.0000
  S   S67       1.0  0.05288  0.53185  0.37801  1.0000
  Fe  Fe33      1.0  0.02898  0.47867  0.35259  1.0000
  S   S68       1.0  0.00107  0.47436  0.34991  1.0000
  S   S69       1.0  0.07644  0.49474  0.35943  1.0000
  S   S70       1.0  0.04863  0.46391  0.34481  1.0000
  Fe  Fe34      1.0  0.13312  0.55191  0.11879  1.0000
  S   S71       1.0  0.12830  0.53242  0.15270  1.0000
  S   S72       1.0  0.12826  0.54710  0.08364  1.0000
  Fe  Fe35      1.0  0.15245  0.58224  0.13771  1.0000
  S   S73       1.0  0.14931  0.56481  0.17265  1.0000
  S   S74       1.0  0.16836  0.61072  0.12544  1.0000
  Fe  Fe36      1.0  0.15572  0.54500  0.15306  1.0000
  S   S75       1.0  0.17147  0.52677  0.16483  1.0000
  Fe  Fe37      1.0  0.12224  0.55362  0.16979  1.0000
  S   S76       1.0  0.10052  0.55049  0.20086  1.0000
  S   S77       1.0  0.16104  0.56309  0.11827  1.0000
  S   S78       1.0  0.12488  0.57245  0.13577  1.0000
  H   H369      1.0  0.09434  0.50633  0.45232  1.0000
  S   S79       1.0  0.07112  0.45502  0.00734  1.0000
  H   H370      1.0  0.13926  0.64375  0.46837  1.0000
  H   H371      1.0  0.21560  0.38587  0.37519  1.0000
  S   S80       1.0  0.04656  0.48038  0.01862  1.0000
  H   H372      1.0  0.05675  0.48607  0.26255  1.0000
  Fe  Fe38      1.0  0.07369  0.47994  0.02032  1.0000
  S   S81       1.0  0.08197  0.48296  0.05437  1.0000
  Fe  Fe39      1.0  0.04493  0.45719  0.00253  1.0000
  S   S82       1.0  0.02218  0.43308  0.01389  1.0000
  S   S83       1.0  0.08522  0.49732  0.98473  1.0000
  C   C207      1.0  0.09428  0.57782  0.37356  1.0000
  C   C208      1.0  0.01483  0.48185  0.28835  1.0000
  C   C209      1.0  0.10310  0.38308  0.42003  1.0000
  C   C210      1.0  0.11581  0.52869  0.07616  1.0000
  C   C211      1.0  0.10395  0.51492  0.09280  1.0000
  C   C212      1.0  0.09382  0.50101  0.08582  1.0000
  C   C213      1.0  0.09540  0.50066  0.06217  1.0000
  C   C214      1.0  0.10769  0.51414  0.04562  1.0000
  C   C215      1.0  0.11771  0.52811  0.05256  1.0000
  H   H373      1.0  0.10233  0.51513  0.11101  1.0000
  H   H374      1.0  0.08452  0.49054  0.09882  1.0000
  H   H375      1.0  0.10955  0.51371  0.02749  1.0000
  H   H376      1.0  0.12701  0.53857  0.03955  1.0000
  H   H377      1.0  0.04034  0.45360  0.27397  1.0000
  C   C216      1.0  0.22031  0.54863  0.12646  1.0000
  C   C217      1.0  0.20278  0.54613  0.13623  1.0000
  C   C218      1.0  0.19369  0.53096  0.15297  1.0000
  C   C219      1.0  0.20228  0.51844  0.16008  1.0000
  C   C220      1.0  0.21984  0.52100  0.15045  1.0000
  H   H378      1.0  0.13664  0.41798  0.36460  1.0000
  H   H379      1.0  0.19632  0.55592  0.13073  1.0000
  H   H380      1.0  0.19533  0.50666  0.17302  1.0000
  H   H381      1.0  0.05486  0.50381  0.05207  1.0000
  H   H382      1.0  0.13127  0.50553  0.22791  1.0000
  C   C221      1.0  0.02459  0.47532  0.25068  1.0000
  H   H383      1.0  0.09336  0.44075  0.36572  1.0000
  H   H384      1.0  0.14959  0.50201  0.21077  1.0000
  H   H385      1.0  0.14749  0.49870  0.24136  1.0000
  H   H386      1.0  0.00572  0.44115  0.33990  1.0000
  C   C222      1.0  0.08844  0.50762  0.26752  1.0000
  C   C223      1.0  0.09638  0.50494  0.24624  1.0000
  C   C224      1.0  0.10016  0.51795  0.22565  1.0000
  C   C225      1.0  0.09582  0.53369  0.22619  1.0000
  C   C226      1.0  0.08745  0.53616  0.24738  1.0000
  C   C227      1.0  0.08392  0.52326  0.26802  1.0000
  H   H387      1.0  0.09975  0.49279  0.24572  1.0000
  H   H388      1.0  0.10641  0.51582  0.20937  1.0000
  H   H389      1.0  0.08401  0.54829  0.24790  1.0000
  H   H390      1.0  0.07798  0.52555  0.28435  1.0000
  H   H391      1.0  0.09375  0.41939  0.36211  1.0000
  C   C228      1.0  0.07587  0.54810  0.43757  1.0000
  C   C229      1.0  0.06231  0.55422  0.43126  1.0000
  C   C230      1.0  0.05549  0.54922  0.41285  1.0000
  C   C231      1.0  0.06178  0.53760  0.40110  1.0000
  C   C232      1.0  0.07525  0.53133  0.40749  1.0000
  C   C233      1.0  0.08244  0.53680  0.42546  1.0000
  H   H392      1.0  0.05696  0.56272  0.44064  1.0000
  H   H393      1.0  0.04512  0.55419  0.40792  1.0000
  H   H394      1.0  0.08040  0.52265  0.39819  1.0000
  C   C234      1.0  0.17212  0.65525  0.16456  1.0000
  N   N16       1.0  0.99271  0.50975  0.41952  1.0000
  C   C235      1.0  0.18210  0.64353  0.13160  1.0000
  C   C236      1.0  0.17007  0.62727  0.14153  1.0000
  C   C237      1.0  0.15926  0.62498  0.16326  1.0000
  C   C238      1.0  0.16033  0.63888  0.17471  1.0000
  H   H395      1.0  0.02605  0.51740  0.28415  1.0000
  H   H396      1.0  0.19061  0.64541  0.11488  1.0000
  H   H397      1.0  0.14992  0.61258  0.17110  1.0000
  H   H398      1.0  0.15180  0.63703  0.19141  1.0000
  C   C239      1.0  0.10498  0.44973  0.43874  1.0000
  C   C240      1.0  0.19589  0.36095  0.38925  1.0000
  C   C241      1.0  0.20459  0.37775  0.37035  1.0000
  C   C242      1.0  0.07692  0.44866  0.41729  1.0000
  C   C243      1.0  0.09114  0.46325  0.41034  1.0000
  C   C244      1.0  0.10515  0.46375  0.42102  1.0000
  H   H399      1.0  0.09324  0.53244  0.42981  1.0000
  H   H400      1.0  0.09139  0.47406  0.39663  1.0000
  C   C245      1.0  0.22890  0.53609  0.13353  1.0000
  H   H401      1.0  0.04457  0.48960  0.21906  1.0000
  S   S84       1.0  0.10400  0.63857  0.43830  1.0000
  H   H402      1.0  0.16554  0.51328  0.28868  1.0000
  H   H403      1.0  0.12118  0.38951  0.35310  1.0000
  C   C246      1.0  0.20484  0.41257  0.40597  1.0000
  N   N17       1.0  0.20746  0.34959  0.39537  1.0000
  H   H404      1.0  0.05020  0.54109  0.00850  1.0000
  C   C247      1.0  0.11676  0.59280  0.41360  1.0000
  H   H405      1.0  0.01873  0.48823  0.30226  1.0000
  C   C248      1.0  0.18954  0.41778  0.41031  1.0000
  H   H406      1.0  0.11313  0.42312  0.00595  1.0000
  H   H407      1.0  0.01449  0.47976  0.24296  1.0000
  H   H408      1.0  0.18704  0.42724  0.39705  1.0000
  N   N18       1.0  0.02979  0.48586  0.26786  1.0000
  C   C249      1.0  0.18311  0.65747  0.14299  1.0000
  H   H409      1.0  0.22207  0.34021  0.43648  1.0000
  H   H410      1.0  0.15111  0.42387  0.98367  1.0000
  C   C250      1.0  0.16747  0.65431  0.07972  1.0000
  C   C251      1.0  0.17841  0.50404  0.11094  1.0000
  Fe  Fe40      1.0  0.08495  0.61593  0.46515  1.0000
  C   C252      1.0  0.09078  0.43515  0.44567  1.0000
  C   C253      1.0  0.10017  0.40071  0.40928  1.0000
  H   H411      1.0  0.07506  0.49020  0.42535  1.0000
  H   H412      1.0  0.11205  0.64953  0.13203  1.0000
  H   H413      1.0  0.02817  0.50529  0.42061  1.0000
  H   H414      1.0  0.11620  0.47499  0.41549  1.0000
  H   H415      1.0  0.22633  0.51127  0.15605  1.0000
  C   C254      1.0  0.11530  0.41031  0.00407  1.0000
  C   C255      1.0  0.11110  0.43043  0.38356  1.0000
  N   N19       1.0  0.17103  0.51503  0.09433  1.0000
  H   H416      1.0  0.13904  0.49001  0.10655  1.0000
  C   C256      1.0  0.15416  0.51616  0.10793  1.0000
  C   C257      1.0  0.18324  0.53307  0.08653  1.0000
  C   C258      1.0  0.16911  0.50669  0.07398  1.0000
  H   H417      1.0  0.17039  0.49028  0.11629  1.0000
  C   C259      1.0  0.14065  0.49857  0.11894  1.0000
  C   C260      1.0  0.17839  0.54658  0.06917  1.0000
  C   C261      1.0  0.15569  0.51110  0.06025  1.0000
  C   C262      1.0  0.99589  0.49398  0.41107  1.0000
  H   H418      1.0  0.08873  0.63872  0.38582  1.0000
  H   H419      1.0  0.14793  0.52435  0.09737  1.0000
  H   H420      1.0  0.15634  0.52284  0.12227  1.0000
  H   H421      1.0  0.18500  0.53870  0.10187  1.0000
  H   H422      1.0  0.19620  0.53264  0.07777  1.0000
  H   H423      1.0  0.18171  0.50995  0.06137  1.0000
  H   H424      1.0  0.13315  0.64931  0.08219  1.0000
  C   C263      1.0  0.99261  0.44151  0.33987  1.0000
  H   H425      1.0  0.15027  0.65290  0.13271  1.0000
  H   H426      1.0  0.06440  0.56766  0.97927  1.0000
  H   H427      1.0  0.12799  0.50111  0.12484  1.0000
  H   H428      1.0  0.99293  0.47976  0.27115  1.0000
  H   H429      1.0  0.14387  0.49160  0.13456  1.0000
  H   H430      1.0  0.17930  0.54326  0.05193  1.0000
  H   H431      1.0  0.04895  0.57185  0.00079  1.0000
  H   H432      1.0  0.16557  0.54846  0.07551  1.0000
  H   H433      1.0  0.16060  0.51174  0.04157  1.0000
  H   H434      1.0  0.15265  0.52365  0.06110  1.0000
  H   H435      1.0  0.14356  0.50045  0.06565  1.0000
  H   H436      1.0  0.04768  0.48811  0.29047  1.0000
  H   H437      1.0  0.22726  0.56036  0.11341  1.0000
  H   H438      1.0  0.07604  0.55090  0.04889  1.0000
  H   H439      1.0  0.11439  0.63277  0.39056  1.0000
  C   C264      1.0  0.08713  0.54889  0.99104  1.0000
  H   H440      1.0  0.22474  0.39904  0.20814  1.0000
  C   C265      1.0  0.00449  0.44209  0.98028  1.0000
  H   H441      1.0  0.00110  0.50121  0.27618  1.0000
  H   H442      1.0  0.18158  0.65711  0.07325  1.0000
  H   H443      1.0  0.03446  0.40890  0.98359  1.0000
  H   H444      1.0  0.07998  0.62272  0.41283  1.0000
  H   H445      1.0  0.07431  0.59915  0.39030  1.0000
  H   H446      1.0  0.98966  0.49860  0.46986  1.0000
  H   H447      1.0  0.13286  0.40847  0.41702  1.0000
  C   C266      1.0  0.21666  0.34512  0.37411  1.0000
  H   H448      1.0  0.19890  0.50014  0.08450  1.0000
  H   H449      1.0  0.04274  0.53143  0.26081  1.0000
  C   C267      1.0  0.20526  0.33641  0.35928  1.0000
  H   H450      1.0  0.10191  0.39275  0.36727  1.0000
  C   C268      1.0  0.98804  0.52113  0.40008  1.0000
  H   H451      1.0  0.11613  0.39429  0.97935  1.0000
  H   H452      1.0  0.12816  0.64865  0.35123  1.0000
  H   H453      1.0  0.12162  0.43881  0.36881  1.0000
  H   H454      1.0  0.11652  0.48566  0.46403  1.0000
  H   H455      1.0  0.09905  0.60789  0.42050  1.0000
  H   H456      1.0  0.14046  0.38944  0.98170  1.0000
  H   H457      1.0  0.12315  0.62992  0.33928  1.0000
  C   C269      1.0  0.08509  0.55289  0.03191  1.0000
  H   H458      1.0  0.22455  0.33611  0.37902  1.0000
  H   H459      1.0  0.12828  0.60387  0.41066  1.0000
  H   H460      1.0  0.16339  0.64176  0.09281  1.0000
  C   C270      1.0  0.15214  0.39995  0.97274  1.0000
  N   N20       1.0  0.10209  0.60787  0.38403  1.0000
  H   H461      1.0  0.11613  0.40988  0.34371  1.0000
  C   C271      1.0  0.20802  0.40044  0.42329  1.0000
  C   C272      1.0  0.02082  0.50984  0.43455  1.0000
  H   H462      1.0  0.16770  0.50464  0.26299  1.0000
  H   H463      1.0  0.10387  0.40019  0.01524  1.0000
  C   C273      1.0  0.07056  0.52540  0.02394  1.0000
  C   C274      1.0  0.03505  0.50497  0.25593  1.0000
  H   H464      1.0  0.19716  0.34457  0.35271  1.0000
  C   C275      1.0  0.03909  0.47616  0.22992  1.0000
  H   H465      1.0  0.02544  0.50832  0.24614  1.0000
  H   H466      1.0  0.04731  0.50818  0.24264  1.0000
  H   H467      1.0  0.01855  0.46134  0.25945  1.0000
  H   H468      1.0  0.11216  0.38437  0.43166  1.0000
  H   H469      1.0  0.11973  0.66137  0.09402  1.0000
  H   H470      1.0  0.10557  0.60249  0.34968  1.0000
  H   H471      1.0  0.03367  0.46794  0.21858  1.0000
  H   H472      1.0  0.04953  0.47096  0.23538  1.0000
  N   N21       1.0  0.15310  0.53525  0.24204  1.0000
  C   C276      1.0  0.15799  0.55474  0.23216  1.0000
  C   C277      1.0  0.13456  0.53018  0.25502  1.0000
  C   C278      1.0  0.15503  0.52644  0.22188  1.0000
  C   C279      1.0  0.16510  0.53149  0.25747  1.0000
  C   C280      1.0  0.17582  0.56256  0.21537  1.0000
  C   C281      1.0  0.13073  0.53781  0.27654  1.0000
  C   C282      1.0  0.14523  0.50706  0.22619  1.0000
  C   C283      1.0  0.16100  0.51277  0.27237  1.0000
  H   H473      1.0  0.14834  0.55842  0.22266  1.0000
  H   H474      1.0  0.15795  0.56203  0.24623  1.0000
  H   H475      1.0  0.12924  0.51585  0.26104  1.0000
  H   H476      1.0  0.12647  0.53427  0.24316  1.0000
  H   H477      1.0  0.15055  0.53323  0.20721  1.0000
  H   H478      1.0  0.16881  0.52737  0.21490  1.0000
  H   H479      1.0  0.17839  0.53415  0.24690  1.0000
  H   H480      1.0  0.16653  0.54068  0.26926  1.0000
  H   H481      1.0  0.17697  0.55711  0.19962  1.0000
  H   H482      1.0  0.17768  0.57682  0.20918  1.0000
  H   H483      1.0  0.18644  0.56096  0.22400  1.0000
  H   H484      1.0  0.13281  0.55216  0.27178  1.0000
  H   H485      1.0  0.11692  0.53222  0.28526  1.0000
  H   H486      1.0  0.13823  0.53429  0.28947  1.0000
  H   H487      1.0  0.08024  0.54173  0.97973  1.0000
  C   C284      1.0  0.14001  0.65218  0.12285  1.0000
  C   C285      1.0  0.04478  0.48132  0.27650  1.0000
  C   C286      1.0  0.11697  0.40825  0.97878  1.0000
  H   H488      1.0  0.05311  0.55145  0.03176  1.0000
  H   H489      1.0  0.03035  0.51866  0.44117  1.0000
  H   H490      1.0  0.06445  0.52220  0.06210  1.0000
  C   C287      1.0  0.00464  0.43013  0.00014  1.0000
  H   H491      1.0  0.00005  0.48523  0.42405  1.0000
  H   H492      1.0  0.11246  0.55131  0.00023  1.0000
  H   H493      1.0  0.22302  0.40861  0.18029  1.0000
  H   H494      1.0  0.21539  0.36685  0.41784  1.0000
  C   C288      1.0  0.19657  0.33297  0.41202  1.0000
  S   S85       1.0  0.22095  0.36178  0.02534  1.0000
  H   H495      1.0  0.16156  0.65282  0.06469  1.0000
  H   H496      1.0  0.18776  0.55947  0.06649  1.0000
  S   S86       1.0  0.04850  0.52016  0.97254  1.0000
  H   H497      1.0  0.00666  0.49820  0.39535  1.0000
  C   C289      1.0  0.17753  0.41096  0.43174  1.0000
  C   C290      1.0  0.04255  0.46178  0.28669  1.0000
  H   H498      1.0  0.03213  0.45663  0.30262  1.0000
  C   C291      1.0  0.11836  0.63616  0.35319  1.0000
  H   H499      1.0  0.21991  0.39666  0.42031  1.0000
  H   H500      1.0  0.08995  0.39746  0.39970  1.0000
  H   H501      1.0  0.01052  0.46763  0.29640  1.0000
  C   C292      1.0  0.08595  0.66347  0.44224  1.0000
  H   H502      1.0  0.09068  0.37440  0.43092  1.0000
  H   H503      1.0  0.05460  0.46024  0.29184  1.0000
  C   C293      1.0  0.10096  0.59899  0.40877  1.0000
  H   H504      1.0  0.00577  0.52858  0.43672  1.0000
  C   C294      1.0  0.19590  0.39342  0.44461  1.0000
  Fe  Fe41      1.0  0.05801  0.49629  0.98224  1.0000
  H   H505      1.0  0.09416  0.40589  0.42375  1.0000
  C   C295      1.0  0.23055  0.34425  0.02423  1.0000
  C   C296      1.0  0.11617  0.62467  0.37757  1.0000
  H   H506      1.0  0.12659  0.40836  0.01096  1.0000
  C   C297      1.0  0.11548  0.39963  0.35913  1.0000
  C   C298      1.0  0.18063  0.39869  0.44896  1.0000
  H   H507      1.0  0.15089  0.43748  0.41285  1.0000
  H   H508      1.0  0.10951  0.43865  0.39636  1.0000
  C   C299      1.0  0.18659  0.33516  0.43523  1.0000
  H   H509      1.0  0.19290  0.34684  0.44082  1.0000
  H   H510      1.0  0.13987  0.44743  0.39367  1.0000
  H   H511      1.0  0.04791  0.51591  0.28150  1.0000
  H   H512      1.0  0.11395  0.58613  0.43225  1.0000
  H   H513      1.0  0.12440  0.66176  0.14895  1.0000
  H   H514      1.0  0.06428  0.51894  0.01158  1.0000
  H   H515      1.0  0.01735  0.52927  0.40846  1.0000
  C   C300      1.0  0.14352  0.43519  0.39930  1.0000
  H   H516      1.0  0.07118  0.57934  0.00059  1.0000
  Fe  Fe42      1.0  0.23180  0.38923  0.00224  1.0000
  H   H517      1.0  0.12052  0.63864  0.15414  1.0000
  H   H518      1.0  0.11963  0.58317  0.40352  1.0000
  H   H519      1.0  0.22261  0.45492  0.17065  1.0000
  C   C301      1.0  0.07682  0.43463  0.43494  1.0000
  N   N22       1.0  0.11591  0.41431  0.39428  1.0000
  C   C302      1.0  0.05825  0.51831  0.04815  1.0000
  S   S87       1.0  0.08494  0.55439  0.46033  1.0000
  C   C303      1.0  0.10045  0.65943  0.43088  1.0000
  H   H520      1.0  0.06584  0.42330  0.44039  1.0000
  H   H521      1.0  0.10319  0.53036  0.99441  1.0000
  H   H522      1.0  0.19528  0.38572  0.36849  1.0000
  H   H523      1.0  0.11965  0.59549  0.36618  1.0000
  H   H524      1.0  0.19978  0.49260  0.11406  1.0000
  H   H525      1.0  0.15238  0.43278  0.38478  1.0000
  H   H526      1.0  0.08283  0.42269  0.38929  1.0000
  H   H527      1.0  0.08064  0.57769  0.37445  1.0000
  H   H528      1.0  0.10752  0.37633  0.40653  1.0000
  H   H529      1.0  0.17823  0.50871  0.12731  1.0000
  H   H530      1.0  0.13186  0.39761  0.38361  1.0000
  H   H531      1.0  0.08184  0.52018  0.02507  1.0000
  S   S88       1.0  0.21940  0.42139  0.37859  1.0000
  C   C304      1.0  0.12560  0.40742  0.37588  1.0000
  C   C305      1.0  0.12770  0.41945  0.41009  1.0000
  C   C306      1.0  0.23183  0.44879  0.17825  1.0000
  H   H532      1.0  0.99968  0.54775  0.40417  1.0000
  H   H533      1.0  0.22422  0.43831  0.19349  1.0000
  H   H534      1.0  0.20887  0.37502  0.35314  1.0000
  C   C307      1.0  0.08491  0.61123  0.38231  1.0000
  H   H535      1.0  0.07602  0.65341  0.45498  1.0000
  H   H536      1.0  0.19844  0.38402  0.45790  1.0000
  H   H537      1.0  0.01406  0.49851  0.44899  1.0000
  C   C308      1.0  0.03800  0.51794  0.27177  1.0000
  C   C309      1.0  0.12322  0.65066  0.14025  1.0000
  H   H538      1.0  0.20650  0.51539  0.10178  1.0000
  H   H539      1.0  0.06692  0.62610  0.39264  1.0000
  C   C310      1.0  0.00891  0.52014  0.42464  1.0000
  C   C311      1.0  0.10621  0.59652  0.36759  1.0000
  H   H540      1.0  0.09053  0.42429  0.45934  1.0000
  C   C312      1.0  0.19696  0.50314  0.10193  1.0000
  H   H541      1.0  0.18471  0.35357  0.38369  1.0000
  C   C313      1.0  0.05965  0.55081  0.01416  1.0000
  C   C314      1.0  0.02896  0.39816  0.97558  1.0000
  H   H542      1.0  0.16525  0.49220  0.08002  1.0000
  H   H543      1.0  0.04603  0.52210  0.04893  1.0000
  S   S89       1.0  0.12278  0.45066  0.45156  1.0000
  C   C315      1.0  0.22090  0.35937  0.40603  1.0000
  H   H544      1.0  0.12885  0.62202  0.37799  1.0000
  H   H545      1.0  0.05409  0.49337  0.42806  1.0000
  H   H546      1.0  0.10527  0.57528  0.03279  1.0000
  C   C316      1.0  0.06145  0.56848  0.99775  1.0000
  H   H547      1.0  0.02000  0.38781  0.99008  1.0000
  H   H548      1.0  0.16587  0.41516  0.43491  1.0000
  C   C317      1.0  0.10463  0.54456  0.98957  1.0000
  N   N23       1.0  0.07586  0.54499  0.01512  1.0000
  S   S90       1.0  0.06663  0.59549  0.45420  1.0000
  H   H549      1.0  0.13868  0.63938  0.11784  1.0000
  H   H550      1.0  0.08955  0.58751  0.41515  1.0000
  H   H551      1.0  0.19016  0.36518  0.40482  1.0000
  H   H552      1.0  0.01471  0.45402  0.97391  1.0000
  H   H553      1.0  0.23095  0.36951  0.39238  1.0000
  C   C318      1.0  0.99863  0.48700  0.28318  1.0000
  H   H554      1.0  0.09508  0.48621  0.44545  1.0000
  C   C319      1.0  0.09399  0.57263  0.02477  1.0000
  H   H555      1.0  0.10641  0.63957  0.35037  1.0000
  C   C320      1.0  0.13325  0.66243  0.08565  1.0000
  C   C321      1.0  0.23046  0.34821  0.41970  1.0000
  H   H556      1.0  0.16109  0.39939  0.98463  1.0000
  H   H557      1.0  0.22603  0.35694  0.36231  1.0000
  H   H558      1.0  0.08399  0.61471  0.36386  1.0000
  C   C322      1.0  0.08012  0.62554  0.39410  1.0000
  H   H559      1.0  0.23574  0.33963  0.40961  1.0000
  H   H560      1.0  0.21376  0.33462  0.34379  1.0000
  C   C323      1.0  0.98709  0.53949  0.40341  1.0000
  H   H561      1.0  0.17342  0.33601  0.43397  1.0000
  C   C324      1.0  0.23221  0.40431  0.18991  1.0000
  C   C325      1.0  0.06211  0.48626  0.43701  1.0000
  H   H562      1.0  0.98874  0.48358  0.29971  1.0000
  H   H563      1.0  0.05616  0.47216  0.43891  1.0000
  H   H564      1.0  0.23182  0.43270  0.15385  1.0000
  C   C326      1.0  0.99111  0.41479  0.00838  1.0000
  H   H565      1.0  0.09013  0.56281  0.98211  1.0000
  H   H566      1.0  0.23630  0.39358  0.18319  1.0000
  H   H567      1.0  0.06549  0.50557  0.45704  1.0000
  C   C327      1.0  0.09255  0.49235  0.46038  1.0000
  H   H568      1.0  0.10512  0.41029  0.97326  1.0000
  H   H569      1.0  0.13371  0.44238  0.97769  1.0000
  S   S91       1.0  0.12002  0.40035  0.47015  1.0000
  C   C328      1.0  0.06232  0.49109  0.46076  1.0000
  H   H570      1.0  0.07200  0.46094  0.46084  1.0000
  H   H571      1.0  0.11206  0.54906  0.97126  1.0000
  H   H572      1.0  0.08692  0.39757  0.79795  1.0000
  H   H573      1.0  0.13381  0.43023  0.70067  1.0000
  Fe  Fe43      1.0  0.14235  0.39947  0.48708  1.0000
  S   S92       1.0  0.14646  0.42683  0.49218  1.0000
  Fe  Fe44      1.0  0.10303  0.39026  0.50622  1.0000
  S   S93       1.0  0.10486  0.41717  0.51320  1.0000
  S   S94       1.0  0.07525  0.37361  0.51204  1.0000
  C   C329      1.0  0.13010  0.64609  0.48270  1.0000
  Fe  Fe45      1.0  0.12838  0.41485  0.52688  1.0000
  S   S95       1.0  0.13316  0.42025  0.56172  1.0000
  C   C330      1.0  0.12603  0.41377  0.73557  1.0000
  S   S96       1.0  0.12517  0.38713  0.52271  1.0000
  Fe  Fe46      1.0  0.13946  0.38834  0.86492  1.0000
  S   S97       1.0  0.13176  0.41324  0.86515  1.0000
  S   S98       1.0  0.16183  0.38230  0.88003  1.0000
  Fe  Fe47      1.0  0.11011  0.37344  0.84083  1.0000
  S   S99       1.0  0.10035  0.39737  0.84046  1.0000
  Fe  Fe48      1.0  0.12280  0.42686  0.47809  1.0000
  Fe  Fe49      1.0  0.12816  0.41252  0.82893  1.0000
  S   S100      1.0  0.13539  0.43713  0.80034  1.0000
  Fe  Fe50      1.0  0.10487  0.39589  0.87664  1.0000
  S   S101      1.0  0.08621  0.39826  0.90786  1.0000
  S   S102      1.0  0.13798  0.38891  0.82754  1.0000
  S   S103      1.0  0.11260  0.37070  0.87818  1.0000
  Fe  Fe51      1.0  0.17416  0.62413  0.64882  1.0000
  S   S104      1.0  0.14633  0.61215  0.65125  1.0000
  S   S105      1.0  0.19421  0.60888  0.64511  1.0000
  H   H574      1.0  0.03755  0.33542  0.83217  1.0000
  S   S106      1.0  0.14030  0.65072  0.65434  1.0000
  Fe  Fe52      1.0  0.14165  0.62693  0.67929  1.0000
  S   S107      1.0  0.12571  0.61183  0.71508  1.0000
  Fe  Fe53      1.0  0.14748  0.63680  0.62599  1.0000
  S   S108      1.0  0.14077  0.63807  0.59031  1.0000
  S   S109      1.0  0.16963  0.63725  0.67848  1.0000
  S   S110      1.0  0.17588  0.64824  0.62218  1.0000
  Fe  Fe54      1.0  0.04843  0.59335  0.48772  1.0000
  Fe  Fe55      1.0  0.07676  0.59505  0.51532  1.0000
  H   H575      1.0  0.11793  0.63583  0.48543  1.0000
  S   S111      1.0  0.08139  0.59334  0.55214  1.0000
  H   H576      1.0  0.04253  0.53458  0.90587  1.0000
  H   H577      1.0  0.17066  0.61221  0.60671  1.0000
  H   H578      1.0  0.07733  0.36715  0.75516  1.0000
  S   S112      1.0  0.06596  0.61567  0.49723  1.0000
  S   S113      1.0  0.05767  0.57262  0.50820  1.0000
  Fe  Fe56      1.0  0.06416  0.62984  0.87717  1.0000
  S   S114      1.0  0.08613  0.62383  0.85462  1.0000
  S   S115      1.0  0.06416  0.64583  0.90507  1.0000
  Fe  Fe57      1.0  0.03676  0.60457  0.86042  1.0000
  S   S116      1.0  0.05665  0.59674  0.83690  1.0000
  S   S117      1.0  0.00773  0.59333  0.86796  1.0000
  Fe  Fe58      1.0  0.07024  0.59583  0.86640  1.0000
  S   S118      1.0  0.08139  0.57292  0.87518  1.0000
  Fe  Fe59      1.0  0.07075  0.62527  0.82696  1.0000
  S   S119      1.0  0.08083  0.64042  0.78930  1.0000
  S   S120      1.0  0.04935  0.60164  0.89063  1.0000
  S   S121      1.0  0.04977  0.63332  0.84868  1.0000
  Fe  Fe60      1.0  0.19582  0.48328  0.62032  1.0000
  S   S122      1.0  0.17544  0.48131  0.65176  1.0000
  S   S123      1.0  0.19165  0.47742  0.58531  1.0000
  H   H579      1.0  0.11253  0.39248  0.94225  1.0000
  S   S124      1.0  0.20663  0.49784  0.67654  1.0000
  Fe  Fe61      1.0  0.19261  0.47137  0.67321  1.0000
  S   S125      1.0  0.18505  0.44680  0.70231  1.0000
  Fe  Fe62      1.0  0.19092  0.50808  0.65257  1.0000
  S   S126      1.0  0.17404  0.52638  0.65943  1.0000
  S   S127      1.0  0.21199  0.47136  0.64162  1.0000
  S   S128      1.0  0.21048  0.51076  0.61976  1.0000
  H   H580      1.0  0.01864  0.57858  0.82871  1.0000
  H   H581      1.0  0.12575  0.37422  0.75669  1.0000
  N   N24       1.0  0.02929  0.41579  0.93477  1.0000
  H   H582      1.0  0.02327  0.52091  0.86580  1.0000
  C   C331      1.0  0.08175  0.66068  0.91058  1.0000
  H   H583      1.0  0.21898  0.43434  0.51249  1.0000
  C   C332      1.0  0.07352  0.55904  0.90310  1.0000
  C   C333      1.0  0.06202  0.56301  0.92013  1.0000
  C   C334      1.0  0.05458  0.55103  0.94145  1.0000
  C   C335      1.0  0.05888  0.53514  0.94612  1.0000
  C   C336      1.0  0.07089  0.53135  0.92952  1.0000
  C   C337      1.0  0.07814  0.54327  0.90798  1.0000
  H   H584      1.0  0.05868  0.57523  0.91687  1.0000
  H   H585      1.0  0.07430  0.51910  0.93306  1.0000
  H   H586      1.0  0.08711  0.54014  0.89494  1.0000
  H   H587      1.0  0.07889  0.41562  0.78842  1.0000
  C   C338      1.0  0.18864  0.58608  0.64722  1.0000
  C   C339      1.0  0.17149  0.57646  0.65185  1.0000
  C   C340      1.0  0.16736  0.55824  0.65473  1.0000
  C   C341      1.0  0.18029  0.54941  0.65314  1.0000
  C   C342      1.0  0.19749  0.55902  0.64797  1.0000
  C   C343      1.0  0.20163  0.57732  0.64503  1.0000
  H   H588      1.0  0.16137  0.58297  0.65378  1.0000
  H   H589      1.0  0.15404  0.55085  0.65860  1.0000
  H   H590      1.0  0.20755  0.55233  0.64672  1.0000
  H   H591      1.0  0.21496  0.58466  0.64144  1.0000
  C   C344      1.0  0.11298  0.61990  0.73528  1.0000
  C   C345      1.0  0.10725  0.63468  0.72852  1.0000
  C   C346      1.0  0.09753  0.64092  0.74528  1.0000
  C   C347      1.0  0.09316  0.63224  0.76884  1.0000
  C   C348      1.0  0.09851  0.61721  0.77551  1.0000
  C   C349      1.0  0.10838  0.61107  0.75878  1.0000
  H   H592      1.0  0.11037  0.64131  0.71039  1.0000
  H   H593      1.0  0.15696  0.63842  0.72689  1.0000
  H   H594      1.0  0.09514  0.61037  0.79359  1.0000
  H   H595      1.0  0.11257  0.59950  0.76413  1.0000
  C   C350      1.0  0.12402  0.62541  0.58033  1.0000
  C   C351      1.0  0.11023  0.61252  0.59540  1.0000
  C   C352      1.0  0.09728  0.60289  0.58647  1.0000
  C   C353      1.0  0.09795  0.60601  0.56244  1.0000
  C   C354      1.0  0.11183  0.61879  0.54738  1.0000
  C   C355      1.0  0.12479  0.62840  0.55630  1.0000
  H   H596      1.0  0.10945  0.61005  0.61392  1.0000
  H   H597      1.0  0.08662  0.59300  0.59826  1.0000
  H   H598      1.0  0.11263  0.62106  0.52890  1.0000
  H   H599      1.0  0.13559  0.63810  0.54453  1.0000
  H   H600      1.0  0.12364  0.42367  0.92972  1.0000
  H   H601      1.0  0.12543  0.56495  0.63089  1.0000
  H   H602      1.0  0.22297  0.41666  0.86401  1.0000
  H   H603      1.0  0.14244  0.45188  0.92408  1.0000
  C   C356      1.0  0.09042  0.41791  0.91743  1.0000
  C   C357      1.0  0.08226  0.41818  0.93991  1.0000
  C   C358      1.0  0.08501  0.43377  0.94778  1.0000
  C   C359      1.0  0.09612  0.44913  0.93329  1.0000
  C   C360      1.0  0.10458  0.44877  0.91100  1.0000
  C   C361      1.0  0.10160  0.43326  0.90298  1.0000
  H   H604      1.0  0.07379  0.40630  0.95130  1.0000
  C   C362      1.0  0.08433  0.40532  0.78247  1.0000
  H   H605      1.0  0.11330  0.46060  0.89979  1.0000
  H   H606      1.0  0.10788  0.43324  0.88558  1.0000
  C   C363      1.0  0.15015  0.44014  0.77377  1.0000
  C   C364      1.0  0.15857  0.42743  0.76920  1.0000
  C   C365      1.0  0.16946  0.42981  0.74732  1.0000
  C   C366      1.0  0.17207  0.44491  0.72990  1.0000
  C   C367      1.0  0.16391  0.45775  0.73462  1.0000
  C   C368      1.0  0.15298  0.45535  0.75649  1.0000
  H   H607      1.0  0.15639  0.41562  0.78226  1.0000
  H   H608      1.0  0.17572  0.41981  0.74372  1.0000
  H   H609      1.0  0.16582  0.46941  0.72129  1.0000
  H   H610      1.0  0.14651  0.46523  0.75989  1.0000
  Fe  Fe63      1.0  0.22372  0.41564  0.96511  1.0000
  H   H611      1.0  0.02543  0.63738  0.77555  1.0000
  H   H612      1.0  0.04941  0.64627  0.71376  1.0000
  C   C369      1.0  0.02886  0.50803  0.90886  1.0000
  H   H613      1.0  0.06502  0.35184  0.83916  1.0000
  S   S129      1.0  0.20513  0.42273  0.94250  1.0000
  C   C370      1.0  0.14903  0.43678  0.56792  1.0000
  C   C371      1.0  0.16003  0.45072  0.55059  1.0000
  C   C372      1.0  0.17289  0.46307  0.55628  1.0000
  C   C373      1.0  0.17473  0.46187  0.57937  1.0000
  C   C374      1.0  0.16353  0.44810  0.59673  1.0000
  C   C375      1.0  0.15082  0.43563  0.59101  1.0000
  H   H614      1.0  0.15863  0.45200  0.53284  1.0000
  H   H615      1.0  0.18140  0.47373  0.54273  1.0000
  H   H616      1.0  0.16479  0.44697  0.61455  1.0000
  H   H617      1.0  0.14235  0.42496  0.60458  1.0000
  C   C376      1.0  0.16333  0.55628  0.59820  1.0000
  C   C377      1.0  0.12660  0.39792  0.93535  1.0000
  H   H618      1.0  0.15821  0.45333  0.94198  1.0000
  H   H619      1.0  0.13151  0.58259  0.54296  1.0000
  C   C378      1.0  0.08087  0.34093  0.81661  1.0000
  C   C379      1.0  0.19304  0.41098  0.92562  1.0000
  C   C380      1.0  0.18174  0.41858  0.91477  1.0000
  C   C381      1.0  0.17167  0.40974  0.90149  1.0000
  C   C382      1.0  0.17310  0.39333  0.89833  1.0000
  C   C383      1.0  0.18457  0.38583  0.90889  1.0000
  C   C384      1.0  0.19436  0.39449  0.92263  1.0000
  H   H620      1.0  0.02937  0.61191  0.81781  1.0000
  H   H621      1.0  0.16303  0.41578  0.89338  1.0000
  H   H622      1.0  0.18588  0.37318  0.90651  1.0000
  H   H623      1.0  0.20301  0.38846  0.93079  1.0000
  C   C385      1.0  0.00233  0.40806  0.91803  1.0000
  H   H624      1.0  0.03010  0.59858  0.73278  1.0000
  C   C386      1.0  0.00567  0.57344  0.48547  1.0000
  H   H625      1.0  0.05750  0.48329  0.50686  1.0000
  H   H626      1.0  0.12907  0.39757  0.91667  1.0000
  N   N25       1.0  0.03632  0.61628  0.76779  1.0000
  C   C387      1.0  0.01335  0.55861  0.91525  1.0000
  C   C388      1.0  0.21067  0.42110  0.51358  1.0000
  H   H627      1.0  0.00760  0.59186  0.74181  1.0000
  C   C389      1.0  0.04630  0.54219  0.85839  1.0000
  H   H628      1.0  0.03388  0.43806  0.95050  1.0000
  H   H629      1.0  0.14499  0.60302  0.54381  1.0000
  C   C390      1.0  0.14471  0.45306  0.94149  1.0000
  H   H630      1.0  0.03835  0.65077  0.73928  1.0000
  H   H631      1.0  0.18303  0.45193  0.49074  1.0000
  H   H632      1.0  0.06832  0.65920  0.94542  1.0000
  C   C391      1.0  0.00480  0.57560  0.83268  1.0000
  H   H633      1.0  0.19030  0.39161  0.54522  1.0000
  H   H634      1.0  0.11711  0.43562  0.71867  1.0000
  H   H635      1.0  0.04177  0.33882  0.61720  1.0000
  H   H636      1.0  0.18079  0.43142  0.91667  1.0000
  C   C392      1.0  0.07902  0.45457  0.49299  1.0000
  H   H637      1.0  0.03710  0.56059  0.89205  1.0000
  C   C393      1.0  0.99633  0.58088  0.85136  1.0000
  H   H638      1.0  0.12493  0.40458  0.78163  1.0000
  H   H639      1.0  0.01752  0.57282  0.91445  1.0000
  H   H640      1.0  0.20607  0.42682  0.86900  1.0000
  H   H641      1.0  0.05191  0.61895  0.73325  1.0000
  H   H642      1.0  0.04977  0.54072  0.84025  1.0000
  C   C394      1.0  0.03292  0.62877  0.78295  1.0000
  C   C395      1.0  0.02969  0.34493  0.57886  1.0000
  N   N26       1.0  0.01995  0.53575  0.89230  1.0000
  N   N27       1.0  0.11092  0.40236  0.75444  1.0000
  C   C396      1.0  0.02322  0.55475  0.89326  1.0000
  H   H643      1.0  0.07859  0.48396  0.50928  1.0000
  H   H644      1.0  0.20397  0.44864  0.48838  1.0000
  C   C397      1.0  0.17844  0.61389  0.58902  1.0000
  C   C398      1.0  0.10726  0.49169  0.47331  1.0000
  H   H645      1.0  0.00194  0.56295  0.80422  1.0000
  H   H646      1.0  0.14536  0.42291  0.92571  1.0000
  H   H647      1.0  0.00711  0.39780  0.91106  1.0000
  C   C399      1.0  0.10041  0.38895  0.74431  1.0000
  H   H648      1.0  0.02045  0.56268  0.87794  1.0000
  C   C400      1.0  0.08197  0.66161  0.50703  1.0000
  Fe  Fe64      1.0  0.16883  0.66043  0.65216  1.0000
  H   H649      1.0  0.15813  0.54979  0.58521  1.0000
  C   C401      1.0  0.10061  0.41414  0.76314  1.0000
  H   H650      1.0  0.99157  0.44745  0.95251  1.0000
  C   C402      1.0  0.04019  0.64003  0.73070  1.0000
  H   H651      1.0  0.07722  0.45655  0.51094  1.0000
  H   H652      1.0  0.05555  0.45922  0.48544  1.0000
  H   H653      1.0  0.10787  0.38579  0.78868  1.0000
  H   H654      1.0  0.13888  0.65461  0.71952  1.0000
  C   C403      1.0  0.06506  0.35086  0.51724  1.0000
  C   C404      1.0  0.16500  0.39511  0.55033  1.0000
  C   C405      1.0  0.01956  0.59358  0.74847  1.0000
  H   H655      1.0  0.98863  0.52811  0.86944  1.0000
  N   N28       1.0  0.19291  0.41862  0.52815  1.0000
  H   H656      1.0  0.04533  0.55404  0.95427  1.0000
  H   H657      1.0  0.14348  0.39187  0.75780  1.0000
  N   N29       1.0  0.19625  0.42103  0.82457  1.0000
  C   C406      1.0  0.20534  0.41230  0.84114  1.0000
  C   C407      1.0  0.18594  0.40686  0.81540  1.0000
  C   C408      1.0  0.18412  0.42898  0.83839  1.0000
  C   C409      1.0  0.20952  0.43485  0.80570  1.0000
  C   C410      1.0  0.21505  0.42391  0.85504  1.0000
  C   C411      1.0  0.19634  0.39629  0.80261  1.0000
  C   C412      1.0  0.17320  0.43845  0.82510  1.0000
  C   C413      1.0  0.20438  0.44031  0.78236  1.0000
  H   H658      1.0  0.19614  0.40092  0.85401  1.0000
  H   H659      1.0  0.21505  0.40682  0.83171  1.0000
  H   H660      1.0  0.17847  0.41195  0.80346  1.0000
  H   H661      1.0  0.17602  0.39732  0.82990  1.0000
  H   H662      1.0  0.17503  0.41873  0.85289  1.0000
  H   H663      1.0  0.17701  0.60666  0.55646  1.0000
  H   H664      1.0  0.21370  0.44690  0.81212  1.0000
  H   H665      1.0  0.22129  0.43032  0.80117  1.0000
  C   C414      1.0  0.13173  0.43870  0.96116  1.0000
  C   C415      1.0  0.02674  0.53463  0.86777  1.0000
  H   H666      1.0  0.17406  0.55069  0.60188  1.0000
  H   H667      1.0  0.18807  0.38846  0.79332  1.0000
  H   H668      1.0  0.20782  0.40473  0.78956  1.0000
  H   H669      1.0  0.20025  0.38686  0.81507  1.0000
  H   H670      1.0  0.02181  0.63088  0.81767  1.0000
  H   H671      1.0  0.18118  0.45045  0.81235  1.0000
  H   H672      1.0  0.01148  0.59774  0.78207  1.0000
  H   H673      1.0  0.21020  0.45453  0.77521  1.0000
  H   H674      1.0  0.19049  0.43816  0.78330  1.0000
  H   H675      1.0  0.20989  0.43386  0.76912  1.0000
  H   H676      1.0  0.14292  0.46597  0.94371  1.0000
  C   C416      1.0  0.06517  0.34310  0.82745  1.0000
  H   H677      1.0  0.01072  0.43078  0.93126  1.0000
  H   H678      1.0  0.06071  0.45564  0.92498  1.0000
  C   C417      1.0  0.06957  0.46474  0.47777  1.0000
  H   H679      1.0  0.05747  0.40871  0.88954  1.0000
  C   C418      1.0  0.18307  0.42760  0.51309  1.0000
  H   H680      1.0  0.19382  0.45532  0.51345  1.0000
  H   H681      1.0  0.07435  0.51117  0.51438  1.0000
  H   H682      1.0  0.12999  0.55796  0.60465  1.0000
  H   H683      1.0  0.02054  0.54178  0.85553  1.0000
  S   S130      1.0  0.09687  0.59671  0.48376  1.0000
  H   H684      1.0  0.01604  0.55174  0.93133  1.0000
  C   C419      1.0  0.01693  0.42232  0.92184  1.0000
  H   H685      1.0  0.16431  0.44278  0.83763  1.0000
  H   H686      1.0  0.98780  0.58718  0.47421  1.0000
  H   H687      1.0  0.18998  0.60905  0.59014  1.0000
  H   H688      1.0  0.01573  0.49911  0.91447  1.0000
  H   H689      1.0  0.18315  0.62816  0.58144  1.0000
  H   H690      1.0  0.18088  0.42804  0.55695  1.0000
  H   H691      1.0  0.99770  0.52913  0.49925  1.0000
  H   H692      1.0  0.02321  0.52722  0.92724  1.0000
  N   N30       1.0  0.13269  0.42016  0.96156  1.0000
  C   C420      1.0  0.20150  0.41874  0.56793  1.0000
  H   H693      1.0  0.19116  0.43886  0.84648  1.0000
  H   H694      1.0  0.02378  0.34797  0.56385  1.0000
  S   S131      1.0  0.02095  0.59286  0.48548  1.0000
  C   C421      1.0  0.03913  0.40522  0.92207  1.0000
  H   H695      1.0  0.02798  0.63340  0.72678  1.0000
  H   H696      1.0  0.09622  0.65060  0.48335  1.0000
  C   C422      1.0  0.13247  0.41701  0.93752  1.0000
  H   H697      1.0  0.13427  0.40588  0.72835  1.0000
  H   H698      1.0  0.18251  0.39403  0.51962  1.0000
  C   C423      1.0  0.04726  0.34548  0.51856  1.0000
  C   C424      1.0  0.12178  0.42444  0.71438  1.0000
  H   H699      1.0  0.04023  0.35524  0.51582  1.0000
  C   C425      1.0  0.05326  0.44483  0.91867  1.0000
  C   C426      1.0  0.04485  0.41136  0.89528  1.0000
  C   C427      1.0  0.07504  0.50905  0.49648  1.0000
  H   H700      1.0  0.03535  0.50662  0.89176  1.0000
  H   H701      1.0  0.13442  0.42329  0.74275  1.0000
  H   H702      1.0  0.15918  0.61354  0.56928  1.0000
  H   H703      1.0  0.22153  0.40633  0.53950  1.0000
  H   H704      1.0  0.21502  0.39491  0.51780  1.0000
  H   H705      1.0  0.11698  0.57310  0.60731  1.0000
  H   H706      1.0  0.09601  0.42118  0.74889  1.0000
  C   C428      1.0  0.12851  0.56940  0.61166  1.0000
  H   H707      1.0  0.07364  0.44038  0.49452  1.0000
  H   H708      1.0  0.10884  0.42442  0.76960  1.0000
  H   H709      1.0  0.17033  0.42735  0.52344  1.0000
  H   H710      1.0  0.11459  0.50514  0.47299  1.0000
  H   H711      1.0  0.21003  0.42044  0.49531  1.0000
  S   S132      1.0  0.10049  0.46867  0.94304  1.0000
  H   H712      1.0  0.02008  0.58057  0.75771  1.0000
  H   H713      1.0  0.06295  0.43938  0.90928  1.0000
  C   C429      1.0  0.00106  0.52654  0.89921  1.0000
  H   H714      1.0  0.05384  0.53526  0.86850  1.0000
  C   C430      1.0  0.15041  0.57996  0.56385  1.0000
  H   H715      1.0  0.06841  0.60550  0.75352  1.0000
  H   H716      1.0  0.06003  0.63477  0.74807  1.0000
  H   H717      1.0  0.20142  0.44086  0.54282  1.0000
  Fe  Fe65      1.0  0.07704  0.57619  0.47500  1.0000
  H   H718      1.0  0.12788  0.59078  0.56857  1.0000
  H   H719      1.0  0.10909  0.38474  0.73128  1.0000
  H   H720      1.0  0.09861  0.64479  0.51224  1.0000
  S   S133      1.0  0.10106  0.35210  0.82125  1.0000
  H   H721      1.0  0.08766  0.34197  0.51958  1.0000
  H   H722      1.0  0.02053  0.34568  0.59426  1.0000
  C   C431      1.0  0.99007  0.57451  0.47937  1.0000
  C   C432      1.0  0.02891  0.52712  0.90904  1.0000
  C   C433      1.0  0.01923  0.60610  0.76505  1.0000
  H   H723      1.0  0.02039  0.55601  0.49697  1.0000
  N   N31       1.0  0.07435  0.48435  0.47427  1.0000
  H   H724      1.0  0.03621  0.50359  0.92161  1.0000
  C   C434      1.0  0.16597  0.64441  0.73677  1.0000
  H   H725      1.0  0.08809  0.51631  0.48614  1.0000
  C   C435      1.0  0.18339  0.39950  0.53532  1.0000
  C   C436      1.0  0.04782  0.62712  0.74499  1.0000
  H   H726      1.0  0.09576  0.36131  0.76161  1.0000
  H   H727      1.0  0.08468  0.37296  0.77947  1.0000
  C   C437      1.0  0.08911  0.37187  0.76146  1.0000
  H   H728      1.0  0.13239  0.37541  0.78329  1.0000
  H   H729      1.0  0.04973  0.58847  0.75360  1.0000
  C   C438      1.0  0.02281  0.62038  0.80820  1.0000
  H   H730      1.0  0.00946  0.61300  0.80914  1.0000
  N   N32       1.0  0.15785  0.58634  0.58302  1.0000
  C   C439      1.0  0.16790  0.60520  0.57326  1.0000
  C   C440      1.0  0.00848  0.55700  0.49217  1.0000
  C   C441      1.0  0.17040  0.57620  0.58939  1.0000
  H   H731      1.0  0.16092  0.58077  0.54880  1.0000
  H   H732      1.0  0.19843  0.40436  0.57139  1.0000
  C   C442      1.0  0.09842  0.65609  0.49866  1.0000
  H   H733      1.0  0.15970  0.38071  0.55547  1.0000
  H   H734      1.0  0.01034  0.39217  0.95538  1.0000
  C   C443      1.0  0.14433  0.58550  0.60413  1.0000
  H   H735      1.0  0.03591  0.40347  0.88686  1.0000
  H   H736      1.0  0.04183  0.35525  0.57636  1.0000
  H   H737      1.0  0.07096  0.64978  0.51336  1.0000
  H   H738      1.0  0.09284  0.45737  0.48479  1.0000
  H   H739      1.0  0.17618  0.58072  0.60340  1.0000
  H   H740      1.0  0.15019  0.58634  0.61937  1.0000
  H   H741      1.0  0.04524  0.63763  0.78392  1.0000
  H   H742      1.0  0.04663  0.42537  0.88816  1.0000
  Fe  Fe66      1.0  0.22523  0.49858  0.64359  1.0000
  S   S134      1.0  0.05431  0.47315  0.96593  1.0000
  S   S135      1.0  0.16570  0.38948  0.47597  1.0000
  H   H743      1.0  0.02349  0.43091  0.90460  1.0000
  H   H744      1.0  0.04620  0.45077  0.90677  1.0000
  H   H745      1.0  0.15624  0.40020  0.54054  1.0000
  H   H746      1.0  0.17731  0.63905  0.73386  1.0000
  C   C444      1.0  0.07115  0.48926  0.49745  1.0000
  H   H747      1.0  0.15808  0.39696  0.95636  1.0000
  H   H748      1.0  0.10340  0.48424  0.49151  1.0000
  H   H749      1.0  0.16463  0.39992  0.56656  1.0000
  H   H750      1.0  0.16501  0.42982  0.81673  1.0000
  H   H751      1.0  0.09333  0.65249  0.73997  1.0000
  H   H752      1.0  0.05040  0.55634  0.85787  1.0000
  C   C445      1.0  0.99530  0.56655  0.81908  1.0000
  N   N33       1.0  0.15985  0.56951  0.72204  1.0000
  C   C446      1.0  0.17449  0.56179  0.71427  1.0000
  C   C447      1.0  0.16550  0.58872  0.71050  1.0000
  C   C448      1.0  0.14436  0.56046  0.71414  1.0000
  C   C449      1.0  0.15623  0.56633  0.74817  1.0000
  C   C450      1.0  0.17036  0.54164  0.71984  1.0000
  C   C451      1.0  0.18165  0.59938  0.71640  1.0000
  C   C452      1.0  0.13047  0.57023  0.71126  1.0000
  C   C453      1.0  0.14283  0.57456  0.76007  1.0000
  H   H753      1.0  0.17963  0.56628  0.69517  1.0000
  H   H754      1.0  0.18553  0.56634  0.72213  1.0000
  H   H755      1.0  0.15529  0.59539  0.71446  1.0000
  H   H756      1.0  0.16811  0.59053  0.69128  1.0000
  H   H757      1.0  0.14839  0.55770  0.69684  1.0000
  H   H758      1.0  0.13785  0.54749  0.72606  1.0000
  H   H759      1.0  0.15150  0.55209  0.75607  1.0000
  H   H760      1.0  0.16821  0.57024  0.75448  1.0000
  H   H761      1.0  0.16571  0.53577  0.73869  1.0000
  H   H762      1.0  0.16105  0.53576  0.71021  1.0000
  H   H763      1.0  0.18233  0.53780  0.71396  1.0000
  H   H764      1.0  0.18003  0.59862  0.73530  1.0000
  H   H765      1.0  0.19332  0.59547  0.70950  1.0000
  H   H766      1.0  0.18402  0.61333  0.70780  1.0000
  H   H767      1.0  0.12543  0.57434  0.72707  1.0000
  H   H768      1.0  0.11940  0.56143  0.70725  1.0000
  H   H769      1.0  0.13525  0.58172  0.69636  1.0000
  H   H770      1.0  0.12969  0.56567  0.76389  1.0000
  H   H771      1.0  0.14287  0.58751  0.75021  1.0000
  H   H772      1.0  0.14585  0.57694  0.77675  1.0000
  H   H773      1.0  0.11250  0.41632  0.70670  1.0000
  C   C454      1.0  0.11808  0.39428  0.77391  1.0000
  H   H774      1.0  0.06541  0.51493  0.48962  1.0000
  H   H775      1.0  0.13910  0.59712  0.60136  1.0000
  H   H776      1.0  0.18135  0.57856  0.57425  1.0000
  H   H777      1.0  0.07428  0.39717  0.77589  1.0000
  C   C455      1.0  0.13060  0.38336  0.76722  1.0000
  H   H778      1.0  0.14337  0.56598  0.56906  1.0000
  H   H779      1.0  0.09189  0.39482  0.73467  1.0000
  C   C456      1.0  0.07398  0.33808  0.52063  1.0000
  H   H780      1.0  0.18038  0.42056  0.49917  1.0000
  C   C457      1.0  0.04129  0.43112  0.93977  1.0000
  C   C458      1.0  0.04543  0.60424  0.77981  1.0000
  H   H781      1.0  0.99894  0.51272  0.89771  1.0000
  C   C459      1.0  0.05670  0.59571  0.76455  1.0000
  H   H782      1.0  0.05421  0.61135  0.78919  1.0000
  H   H783      1.0  0.03607  0.59347  0.79332  1.0000
  C   C460      1.0  0.19372  0.42700  0.54862  1.0000
  C   C461      1.0  0.13804  0.58979  0.55447  1.0000
  H   H784      1.0  0.22382  0.43620  0.84380  1.0000
  H   H785      1.0  0.01104  0.61479  0.76012  1.0000
  H   H786      1.0  0.06128  0.58622  0.77604  1.0000
  H   H787      1.0  0.99239  0.40201  0.93438  1.0000
  H   H788      1.0  0.15993  0.64010  0.75561  1.0000
  H   H789      1.0  0.15374  0.55276  0.61489  1.0000
  C   C462      1.0  0.98962  0.53417  0.88456  1.0000
  H   H790      1.0  0.05000  0.42672  0.95029  1.0000
  H   H791      1.0  0.19582  0.42160  0.58458  1.0000
  H   H792      1.0  0.05076  0.40441  0.92887  1.0000
  H   H793      1.0  0.12329  0.65824  0.52254  1.0000
  H   H794      1.0  0.03121  0.39148  0.92552  1.0000
  C   C463      1.0  0.22068  0.40784  0.52113  1.0000
  H   H795      1.0  0.21564  0.42433  0.56409  1.0000
  H   H796      1.0  0.13557  0.64444  0.49831  1.0000
  C   C464      1.0  0.19172  0.44695  0.50091  1.0000
  H   H797      1.0  0.23405  0.41244  0.51045  1.0000
  H   H798      1.0  0.99564  0.52543  0.91795  1.0000
  H   H799      1.0  0.03923  0.39262  0.96790  1.0000
  H   H800      1.0  0.11871  0.44006  0.95976  1.0000
  C   C465      1.0  0.99558  0.54178  0.49344  1.0000
  C   C466      1.0  0.01879  0.40427  0.95783  1.0000
  H   H801      1.0  0.07867  0.43387  0.96514  1.0000
  H   H802      1.0  0.13352  0.38928  0.94376  1.0000
  H   H803      1.0  0.99425  0.54845  0.87805  1.0000
  H   H804      1.0  0.16047  0.42654  0.95451  1.0000
  H   H805      1.0  0.99574  0.41412  0.90542  1.0000
  H   H806      1.0  0.99932  0.55544  0.91627  1.0000
  H   H807      1.0  0.13966  0.65522  0.75744  1.0000
  C   C467      1.0  0.04958  0.33375  0.82340  1.0000
  H   H808      1.0  0.00995  0.41095  0.96649  1.0000
  C   C468      1.0  0.99134  0.43835  0.96821  1.0000
  C   C469      1.0  0.14922  0.41836  0.96829  1.0000
  H   H809      1.0  0.04882  0.48647  0.47119  1.0000
  C   C470      1.0  0.98874  0.78554  0.31621  1.0000
  H   H810      1.0  0.99923  0.96448  0.97280  1.0000
  Fe  Fe67      1.0  0.03474  0.87926  0.37748  1.0000
  S   S136      1.0  0.03063  0.87430  0.34287  1.0000
  S   S137      1.0  0.06112  0.89516  0.37884  1.0000
  C   C471      1.0  0.13718  0.67541  0.06196  1.0000
  H   H811      1.0  0.03551  0.93339  0.46367  1.0000
  Fe  Fe68      1.0  0.01650  0.84676  0.36199  1.0000
  H   H812      1.0  0.16916  0.75345  0.00165  1.0000
  S   S138      1.0  0.01056  0.88772  0.38547  1.0000
  S   S139      1.0  0.02261  0.85124  0.39608  1.0000
  H   H813      1.0  0.20382  0.81156  0.99950  1.0000
  H   H814      1.0  0.04327  0.74745  0.36113  1.0000
  H   H815      1.0  0.06827  0.94215  0.98657  1.0000
  H   H816      1.0  0.98784  0.82529  0.25727  1.0000
  N   N34       1.0  0.14499  0.66703  0.10164  1.0000
  H   H817      1.0  0.20901  0.80901  0.39969  1.0000
  S   S140      1.0  0.12145  0.96999  0.43713  1.0000
  C   C472      1.0  0.03246  0.94027  0.00846  1.0000
  Fe  Fe69      1.0  0.10779  0.73822  0.98618  1.0000
  H   H818      1.0  0.11609  0.78149  0.26474  1.0000
  S   S141      1.0  0.00799  0.98373  0.00679  1.0000
  C   C473      1.0  0.00434  0.73442  0.38892  1.0000
  H   H819      1.0  0.99809  0.70893  0.08352  1.0000
  N   N35       1.0  0.10895  0.73699  0.26359  1.0000
  H   H820      1.0  0.03837  0.97059  0.45184  1.0000
  Fe  Fe70      1.0  0.13762  0.77246  0.36687  1.0000
  S   S142      1.0  0.14131  0.74530  0.37434  1.0000
  S   S143      1.0  0.15500  0.79759  0.37235  1.0000
  Fe  Fe71      1.0  0.10655  0.76033  0.34466  1.0000
  S   S144      1.0  0.10835  0.73269  0.35063  1.0000
  S   S145      1.0  0.08617  0.76968  0.32794  1.0000
  Fe  Fe72      1.0  0.11246  0.73603  0.38568  1.0000
  S   S146      1.0  0.09630  0.71585  0.41786  1.0000
  Fe  Fe73      1.0  0.13693  0.74418  0.33843  1.0000
  S   S147      1.0  0.15184  0.73021  0.31584  1.0000
  S   S148      1.0  0.10887  0.76325  0.38067  1.0000
  S   S149      1.0  0.13502  0.77183  0.32993  1.0000
  H   H821      1.0  0.12796  0.74832  0.21446  1.0000
  S   S150      1.0  0.11296  0.71163  0.99008  1.0000
  H   H822      1.0  0.18806  0.77693  0.04954  1.0000
  Fe  Fe74      1.0  0.13917  0.72559  0.99408  1.0000
  S   S151      1.0  0.15427  0.71414  0.01854  1.0000
  S   S152      1.0  0.13316  0.75141  0.99300  1.0000
  Fe  Fe75      1.0  0.00548  0.72627  0.28059  1.0000
  S   S153      1.0  0.02914  0.72003  0.29177  1.0000
  S   S154      1.0  0.00440  0.75175  0.25929  1.0000
  C   C474      1.0  0.01640  0.71108  0.14295  1.0000
  S   S155      1.0  0.00526  0.71040  0.01798  1.0000
  H   H823      1.0  0.01095  0.92115  0.98663  1.0000
  Fe  Fe76      1.0  0.19036  0.73468  0.12973  1.0000
  S   S156      1.0  0.20673  0.71574  0.13400  1.0000
  S   S157      1.0  0.18221  0.74730  0.09773  1.0000
  Fe  Fe77      1.0  0.18403  0.73568  0.18153  1.0000
  S   S158      1.0  0.19913  0.71635  0.18964  1.0000
  S   S159      1.0  0.17270  0.75108  0.20558  1.0000
  Fe  Fe78      1.0  0.21865  0.73219  0.15715  1.0000
  H   H824      1.0  0.12239  0.73932  0.29151  1.0000
  Fe  Fe79      1.0  0.18610  0.70159  0.16616  1.0000
  H   H825      1.0  0.11514  0.87582  0.46023  1.0000
  S   S160      1.0  0.20400  0.75214  0.15009  1.0000
  S   S161      1.0  0.16929  0.71986  0.16080  1.0000
  H   H826      1.0  0.15963  0.78508  0.98392  1.0000
  C   C475      1.0  0.01698  0.79943  0.32139  1.0000
  H   H827      1.0  0.08763  0.70528  0.25998  1.0000
  C   C476      1.0  0.16112  0.72294  0.04141  1.0000
  C   C477      1.0  0.15476  0.73596  0.04956  1.0000
  C   C478      1.0  0.16094  0.74289  0.06737  1.0000
  C   C479      1.0  0.17323  0.73663  0.07757  1.0000
  C   C480      1.0  0.17935  0.72340  0.06968  1.0000
  C   C481      1.0  0.17341  0.71671  0.05156  1.0000
  H   H828      1.0  0.14521  0.74080  0.04201  1.0000
  H   H829      1.0  0.15626  0.75325  0.07320  1.0000
  H   H830      1.0  0.18914  0.71879  0.07693  1.0000
  H   H831      1.0  0.17866  0.70693  0.04499  1.0000
  C   C482      1.0  0.02729  0.72080  0.01424  1.0000
  C   C483      1.0  0.03311  0.73855  0.01374  1.0000
  C   C484      1.0  0.05084  0.74641  0.00989  1.0000
  C   C485      1.0  0.06287  0.73658  0.00677  1.0000
  C   C486      1.0  0.05701  0.71876  0.00768  1.0000
  C   C487      1.0  0.03931  0.71097  0.01111  1.0000
  H   H832      1.0  0.02397  0.74626  0.01594  1.0000
  C   C488      1.0  0.02942  0.86361  0.28777  1.0000
  H   H833      1.0  0.06612  0.71101  0.00569  1.0000
  H   H834      1.0  0.03489  0.69722  0.01150  1.0000
  C   C489      1.0  0.09749  0.69401  0.42134  1.0000
  C   C490      1.0  0.11166  0.68979  0.40936  1.0000
  H   H835      1.0  0.99751  0.70162  0.12411  1.0000
  H   H836      1.0  0.20781  0.77120  0.04824  1.0000
  H   H837      1.0  0.17555  0.80533  0.98118  1.0000
  C   C491      1.0  0.08454  0.68075  0.43758  1.0000
  H   H838      1.0  0.12170  0.69992  0.39685  1.0000
  H   H839      1.0  0.11040  0.70944  0.31557  1.0000
  S   S162      1.0  0.22500  0.86701  0.44651  1.0000
  H   H840      1.0  0.01199  0.98072  0.16478  1.0000
  C   C492      1.0  0.15868  0.73664  0.28526  1.0000
  C   C493      1.0  0.15875  0.75310  0.27303  1.0000
  C   C494      1.0  0.16367  0.75750  0.24861  1.0000
  C   C495      1.0  0.16835  0.74544  0.23622  1.0000
  C   C496      1.0  0.16876  0.72916  0.24844  1.0000
  C   C497      1.0  0.16400  0.72482  0.27289  1.0000
  H   H841      1.0  0.15490  0.76238  0.28238  1.0000
  H   H842      1.0  0.16352  0.77020  0.23922  1.0000
  H   H843      1.0  0.17238  0.71979  0.23907  1.0000
  H   H844      1.0  0.16408  0.71209  0.28227  1.0000
  C   C498      1.0  0.07019  0.75568  0.31829  1.0000
  C   C499      1.0  0.06773  0.73758  0.32315  1.0000
  C   C500      1.0  0.05510  0.72690  0.31494  1.0000
  C   C501      1.0  0.04462  0.73412  0.30203  1.0000
  C   C502      1.0  0.04678  0.75219  0.29763  1.0000
  C   C503      1.0  0.05956  0.76291  0.30563  1.0000
  H   H845      1.0  0.07550  0.73177  0.33332  1.0000
  H   H846      1.0  0.05334  0.71292  0.31878  1.0000
  H   H847      1.0  0.03880  0.75793  0.28774  1.0000
  H   H848      1.0  0.06128  0.77688  0.30184  1.0000
  C   C504      1.0  0.16495  0.80291  0.39541  1.0000
  C   C505      1.0  0.17527  0.82001  0.39275  1.0000
  C   C506      1.0  0.18326  0.82492  0.41053  1.0000
  C   C507      1.0  0.18110  0.81276  0.43135  1.0000
  C   C508      1.0  0.17083  0.79568  0.43397  1.0000
  C   C509      1.0  0.16287  0.79077  0.41619  1.0000
  H   H849      1.0  0.17696  0.82957  0.37684  1.0000
  H   H850      1.0  0.19096  0.83814  0.40821  1.0000
  C   C510      1.0  0.00644  0.78729  0.31221  1.0000
  H   H851      1.0  0.15500  0.77760  0.41863  1.0000
  C   C511      1.0  0.09703  0.89244  0.43096  1.0000
  H   H852      1.0  0.08729  0.88117  0.46762  1.0000
  C   C512      1.0  0.06368  0.90723  0.40050  1.0000
  C   C513      1.0  0.05192  0.90245  0.42192  1.0000
  C   C514      1.0  0.05509  0.91122  0.43962  1.0000
  C   C515      1.0  0.06980  0.92517  0.43592  1.0000
  C   C516      1.0  0.08138  0.93025  0.41433  1.0000
  C   C517      1.0  0.07841  0.92118  0.39678  1.0000
  H   H853      1.0  0.04062  0.89162  0.42508  1.0000
  C   C518      1.0  0.14316  0.68389  0.10789  1.0000
  H   H854      1.0  0.09282  0.94089  0.41129  1.0000
  H   H855      1.0  0.08761  0.92492  0.38027  1.0000
  C   C519      1.0  0.10939  0.76748  0.27211  1.0000
  C   C520      1.0  0.00124  0.71012  0.35771  1.0000
  H   H856      1.0  0.15559  0.67960  0.13790  1.0000
  H   H857      1.0  0.16834  0.68158  0.07615  1.0000
  S   S163      1.0  0.99350  0.89654  0.32892  1.0000
  C   C521      1.0  0.99229  0.80819  0.33861  1.0000
  H   H858      1.0  0.10756  0.73236  0.21761  1.0000
  C   C522      1.0  0.11041  0.73125  0.28841  1.0000
  H   H859      1.0  0.05364  0.93759  0.02600  1.0000
  H   H860      1.0  0.01128  0.69982  0.15817  1.0000
  C   C523      1.0  0.02460  0.95304  0.29644  1.0000
  C   C524      1.0  0.22196  0.78545  0.19343  1.0000
  S   S164      1.0  0.99939  0.98856  0.25556  1.0000
  H   H861      1.0  0.02898  0.91467  0.32623  1.0000
  H   H862      1.0  0.03863  0.85871  0.29700  1.0000
  H   H863      1.0  0.13057  0.75997  0.25406  1.0000
  C   C525      1.0  0.23298  0.83583  0.40340  1.0000
  H   H864      1.0  0.98884  0.86213  0.31272  1.0000
  C   C526      1.0  0.01253  0.84900  0.29331  1.0000
  H   H865      1.0  0.13472  0.68810  0.06389  1.0000
  H   H866      1.0  0.04840  0.77058  0.35384  1.0000
  N   N36       1.0  0.22812  0.97308  0.46651  1.0000
  H   H867      1.0  0.01712  0.71907  0.06246  1.0000
  H   H868      1.0  0.14705  0.69786  0.13526  1.0000
  H   H869      1.0  0.00992  0.84740  0.22825  1.0000
  H   H870      1.0  0.01540  0.69271  0.12137  1.0000
  H   H871      1.0  0.01456  0.99622  0.19677  1.0000
  H   H872      1.0  0.09550  0.76623  0.27342  1.0000
  C   C527      1.0  0.03240  0.94109  0.30735  1.0000
  H   H873      1.0  0.02520  0.76223  0.33548  1.0000
  H   H874      1.0  0.13293  0.73163  0.25018  1.0000
  C   C528      1.0  0.05181  0.91660  0.99042  1.0000
  H   H875      1.0  0.18401  0.74124  0.97250  1.0000
  H   H876      1.0  0.99042  0.74303  0.41751  1.0000
  H   H877      1.0  0.22166  0.80645  0.43989  1.0000
  C   C529      1.0  0.01222  0.71035  0.07995  1.0000
  H   H878      1.0  0.22323  0.85026  0.37594  1.0000
  H   H879      1.0  0.00616  0.68182  0.09214  1.0000
  S   S165      1.0  0.08798  0.98546  0.45171  1.0000
  C   C530      1.0  0.05700  0.93648  0.97972  1.0000
  H   H880      1.0  0.08419  0.88702  0.42763  1.0000
  H   H881      1.0  0.08889  0.73955  0.24461  1.0000
  C   C531      1.0  0.12046  0.73452  0.22162  1.0000
  H   H882      1.0  0.21957  0.77641  0.18174  1.0000
  C   C532      1.0  0.00458  0.86100  0.25617  1.0000
  S   S166      1.0  0.02382  0.82513  0.34560  1.0000
  H   H883      1.0  0.22830  0.86155  0.39784  1.0000
  Fe  Fe80      1.0  0.02072  0.99306  0.27450  1.0000
  H   H884      1.0  0.10831  0.68572  0.46465  1.0000
  Fe  Fe81      1.0  0.09418  0.95958  0.45776  1.0000
  H   H885      1.0  0.03046  0.71553  0.14125  1.0000
  C   C533      1.0  0.11913  0.91949  0.45077  1.0000
  H   H886      1.0  0.10492  0.88339  0.42702  1.0000
  H   H887      1.0  0.02569  0.72822  0.35069  1.0000
  Fe  Fe82      1.0  0.11566  0.99631  0.43328  1.0000
  C   C534      1.0  0.18058  0.76252  0.98890  1.0000
  H   H888      1.0  0.00790  0.84533  0.31258  1.0000
  H   H889      1.0  0.04619  0.90696  0.45636  1.0000
  H   H890      1.0  0.20451  0.75929  0.28785  1.0000
  H   H891      1.0  0.11499  0.71435  0.25237  1.0000
  H   H892      1.0  0.09971  0.73341  0.30076  1.0000
  C   C535      1.0  0.99238  0.86681  0.29342  1.0000
  H   H893      1.0  0.22373  0.78678  0.38504  1.0000
  H   H894      1.0  0.05528  0.76018  0.00937  1.0000
  C   C536      1.0  0.02156  0.75878  0.35485  1.0000
  H   H895      1.0  0.05760  0.91376  0.00561  1.0000
  H   H896      1.0  0.04334  0.73483  0.05678  1.0000
  H   H897      1.0  0.01471  0.72809  0.39233  1.0000
  H   H898      1.0  0.11190  0.76428  0.28971  1.0000
  N   N37       1.0  0.18917  0.77679  0.99953  1.0000
  H   H899      1.0  0.10027  0.70252  0.29359  1.0000
  C   C537      1.0  0.03819  0.75872  0.36368  1.0000
  C   C538      1.0  0.19741  0.76861  0.01774  1.0000
  C   C539      1.0  0.20040  0.77793  0.03756  1.0000
  H   H900      1.0  0.23142  0.94764  0.43832  1.0000
  H   H901      1.0  0.01604  0.83728  0.28914  1.0000
  H   H902      1.0  0.02032  0.94432  0.45697  1.0000
  H   H903      1.0  0.06010  0.98504  0.34175  1.0000
  H   H904      1.0  0.20755  0.79200  0.37092  1.0000
  H   H905      1.0  0.02522  0.92636  0.01278  1.0000
  H   H906      1.0  0.18015  0.79377  0.02058  1.0000
  H   H907      1.0  0.02855  0.86153  0.23265  1.0000
  Fe  Fe83      1.0  0.00542  0.88047  0.35265  1.0000
  H   H908      1.0  0.21003  0.76691  0.00951  1.0000
  H   H909      1.0  0.12948  0.68348  0.11453  1.0000
  H   H910      1.0  0.01433  0.91083  0.45941  1.0000
  H   H911      1.0  0.20369  0.94371  0.45514  1.0000
  H   H912      1.0  0.99379  0.75105  0.33766  1.0000
  C   C540      1.0  0.01483  0.69235  0.07766  1.0000
  C   C541      1.0  0.05211  0.96533  0.98037  1.0000
  C   C542      1.0  0.22699  0.79782  0.42999  1.0000
  H   H913      1.0  0.12441  0.66954  0.40535  1.0000
  H   H914      1.0  0.00225  0.70374  0.37518  1.0000
  H   H915      1.0  0.21638  0.78892  0.42528  1.0000
  H   H916      1.0  0.13079  0.89404  0.44138  1.0000
  S   S167      1.0  0.00229  0.98919  0.12139  1.0000
  H   H917      1.0  0.02896  0.98250  0.36005  1.0000
  C   C543      1.0  0.11315  0.67257  0.41420  1.0000
  N   N38       1.0  0.07412  0.81926  0.36031  1.0000
  C   C544      1.0  0.05627  0.81051  0.37495  1.0000
  C   C545      1.0  0.07263  0.82546  0.33566  1.0000
  C   C546      1.0  0.08261  0.83478  0.36879  1.0000
  C   C547      1.0  0.08481  0.80632  0.36184  1.0000
  C   C548      1.0  0.05484  0.80438  0.40125  1.0000
  C   C549      1.0  0.06882  0.81117  0.32189  1.0000
  C   C550      1.0  0.07236  0.84853  0.37097  1.0000
  C   C551      1.0  0.10345  0.81287  0.34711  1.0000
  H   H918      1.0  0.04764  0.81923  0.37294  1.0000
  H   H919      1.0  0.05028  0.79883  0.36896  1.0000
  H   H920      1.0  0.08441  0.83553  0.32525  1.0000
  H   H921      1.0  0.06220  0.83223  0.33535  1.0000
  H   H922      1.0  0.08570  0.83060  0.38589  1.0000
  H   H923      1.0  0.09529  0.84180  0.35691  1.0000
  H   H924      1.0  0.08611  0.80220  0.37999  1.0000
  H   H925      1.0  0.07838  0.79386  0.35783  1.0000
  H   H926      1.0  0.04102  0.79909  0.41001  1.0000
  H   H927      1.0  0.06102  0.79364  0.40512  1.0000
  H   H928      1.0  0.06005  0.81520  0.40921  1.0000
  H   H929      1.0  0.07993  0.80565  0.31784  1.0000
  H   H930      1.0  0.05727  0.80051  0.33110  1.0000
  H   H931      1.0  0.06635  0.81701  0.30502  1.0000
  H   H932      1.0  0.06930  0.85381  0.35431  1.0000
  H   H933      1.0  0.08024  0.85976  0.37605  1.0000
  H   H934      1.0  0.06035  0.84334  0.38468  1.0000
  H   H935      1.0  0.11243  0.81842  0.35743  1.0000
  H   H936      1.0  0.10502  0.82276  0.33104  1.0000
  H   H937      1.0  0.10748  0.80176  0.34136  1.0000
  N   N39       1.0  0.01987  0.71802  0.09816  1.0000
  C   C552      1.0  0.01176  0.70520  0.12121  1.0000
  N   N40       1.0  0.11096  0.90093  0.46433  1.0000
  C   C553      1.0  0.01480  0.73472  0.09958  1.0000
  C   C554      1.0  0.03914  0.72096  0.09397  1.0000
  C   C555      1.0  0.99330  0.95606  0.98979  1.0000
  C   C556      1.0  0.02175  0.74987  0.07792  1.0000
  C   C557      1.0  0.04943  0.72743  0.06848  1.0000
  N   N41       1.0  0.22378  0.76323  0.22911  1.0000
  H   H938      1.0  0.14729  0.69474  0.09213  1.0000
  C   C558      1.0  0.00558  0.91830  0.31695  1.0000
  H   H939      1.0  0.22328  0.72664  0.24238  1.0000
  H   H940      1.0  0.01927  0.74025  0.11379  1.0000
  H   H941      1.0  0.04464  0.73038  0.10392  1.0000
  H   H942      1.0  0.04229  0.70854  0.10063  1.0000
  C   C559      1.0  0.99779  0.93023  0.30605  1.0000
  C   C560      1.0  0.16641  0.79377  0.99362  1.0000
  H   H943      1.0  0.00052  0.73208  0.10379  1.0000
  H   H944      1.0  0.01583  0.76063  0.08082  1.0000
  H   H945      1.0  0.12331  0.92000  0.43197  1.0000
  H   H946      1.0  0.03583  0.75529  0.07510  1.0000
  H   H947      1.0  0.05244  0.71644  0.06124  1.0000
  C   C561      1.0  0.99487  0.96252  0.00973  1.0000
  N   N42       1.0  0.00729  0.74207  0.36329  1.0000
  H   H948      1.0  0.05732  0.90988  0.97751  1.0000
  H   H949      1.0  0.19233  0.66993  0.13506  1.0000
  C   C562      1.0  0.22955  0.73367  0.22421  1.0000
  H   H950      1.0  0.22343  0.80475  0.99344  1.0000
  H   H951      1.0  0.21431  0.78646  0.22892  1.0000
  H   H952      1.0  0.15649  0.79857  0.00375  1.0000
  C   C563      1.0  0.09041  0.73306  0.26182  1.0000
  C   C564      1.0  0.23248  0.85273  0.38714  1.0000
  C   C565      1.0  0.00998  0.80996  0.33459  1.0000
  H   H953      1.0  0.98758  0.70885  0.35733  1.0000
  C   C566      1.0  0.17529  0.78425  0.01052  1.0000
  C   C567      1.0  0.01252  0.72917  0.34991  1.0000
  H   H954      1.0  0.19756  0.77056  0.26461  1.0000
  H   H955      1.0  0.00106  0.95673  0.28783  1.0000
  H   H956      1.0  0.16899  0.78614  0.44996  1.0000
  H   H957      1.0  0.21682  0.82299  0.37186  1.0000
  H   H958      1.0  0.12344  0.71019  0.28826  1.0000
  H   H959      1.0  0.01908  0.84066  0.25202  1.0000
  H   H960      1.0  0.16512  0.77372  0.02353  1.0000
  H   H961      1.0  0.07352  0.68393  0.44684  1.0000
  C   C568      1.0  0.04219  0.94278  0.02790  1.0000
  H   H962      1.0  0.01026  0.72137  0.14725  1.0000
  H   H963      1.0  0.06143  0.96742  0.99169  1.0000
  H   H964      1.0  0.21518  0.79560  0.18887  1.0000
  H   H965      1.0  0.12749  0.72661  0.21225  1.0000
  H   H966      1.0  0.22360  0.74843  0.26319  1.0000
  H   H967      1.0  0.03066  0.80079  0.31798  1.0000
  C   C569      1.0  0.11950  0.72878  0.24783  1.0000
  H   H968      1.0  0.19608  0.74348  0.99409  1.0000
  H   H969      1.0  0.00279  0.87909  0.28980  1.0000
  C   C570      1.0  0.11640  0.75654  0.25598  1.0000
  H   H970      1.0  0.00573  0.76088  0.39673  1.0000
  S   S168      1.0  0.17217  0.67255  0.17921  1.0000
  C   C571      1.0  0.02287  0.92379  0.31781  1.0000
  H   H971      1.0  0.01840  0.74631  0.06200  1.0000
  H   H972      1.0  0.03348  0.93565  0.04494  1.0000
  H   H973      1.0  0.04253  0.97266  0.98540  1.0000
  H   H974      1.0  0.01201  0.77942  0.30184  1.0000
  H   H975      1.0  0.11424  0.76168  0.23858  1.0000
  S   S169      1.0  0.03681  0.97459  0.28304  1.0000
  H   H976      1.0  0.04583  0.94521  0.30772  1.0000
  H   H977      1.0  0.02762  0.87534  0.29397  1.0000
  C   C572      1.0  0.19184  0.75104  0.97992  1.0000
  C   C573      1.0  0.16351  0.66949  0.09014  1.0000
  H   H978      1.0  0.01304  0.73370  0.33108  1.0000
  C   C574      1.0  0.22058  0.79744  0.37366  1.0000
  S   S170      1.0  0.07379  0.93473  0.45948  1.0000
  H   H979      1.0  0.10961  0.92739  0.45176  1.0000
  S   S171      1.0  0.08494  0.74693  0.00293  1.0000
  H   H980      1.0  0.22732  0.72405  0.21323  1.0000
  H   H981      1.0  0.18942  0.75521  0.02670  1.0000
  H   H982      1.0  0.23244  0.78957  0.44193  1.0000
  C   C575      1.0  0.08028  0.71372  0.26729  1.0000
  C   C576      1.0  0.15385  0.69028  0.12499  1.0000
  H   H983      1.0  0.13961  0.94287  0.44686  1.0000
  H   H984      1.0  0.08299  0.73894  0.27407  1.0000
  C   C577      1.0  0.11104  0.71220  0.29659  1.0000
  H   H985      1.0  0.02230  0.94737  0.01040  1.0000
  H   H986      1.0  0.16677  0.69873  0.11556  1.0000
  H   H987      1.0  0.03351  0.98513  0.32935  1.0000
  C   C578      1.0  0.20250  0.79022  0.98039  1.0000
  C   C579      1.0  0.99113  0.74525  0.35665  1.0000
  H   H988      1.0  0.20373  0.99515  0.46797  1.0000
  H   H989      1.0  0.21907  0.77851  0.26878  1.0000
  H   H990      1.0  0.02831  0.69184  0.07668  1.0000
  N   N43       1.0  0.04338  0.94613  0.98402  1.0000
  C   C580      1.0  0.00815  0.99274  0.16414  1.0000
  C   C581      1.0  0.09469  0.89421  0.45647  1.0000
  C   C582      1.0  0.00720  0.94762  0.29610  1.0000
  H   H991      1.0  0.08601  0.90287  0.45836  1.0000
  H   H992      1.0  0.03645  0.75917  0.38224  1.0000
  H   H993      1.0  0.22049  0.83126  0.41632  1.0000
  N   N44       1.0  0.99852  0.85338  0.28197  1.0000
  H   H994      1.0  0.17558  0.76796  0.97396  1.0000
  H   H995      1.0  0.03790  0.91023  0.99559  1.0000
  H   H996      1.0  0.06211  0.73630  0.06784  1.0000
  Fe  Fe84      1.0  0.21187  0.83871  0.46321  1.0000
  H   H997      1.0  0.99759  0.81739  0.28053  1.0000
  H   H998      1.0  0.00604  0.70256  0.34542  1.0000
  H   H999      1.0  0.12604  0.71457  0.46546  1.0000
  H   H1000     1.0  0.10254  0.90525  0.41852  1.0000
  Fe  Fe85      1.0  0.99789  0.85940  0.40175  1.0000
  C   C583      1.0  0.01612  0.85199  0.24190  1.0000
  H   H1001     1.0  0.04597  0.95673  0.02869  1.0000
  C   C584      1.0  0.21204  0.80680  0.98684  1.0000
  H   H1002     1.0  0.01746  0.77017  0.35927  1.0000
  H   H1003     1.0  0.01137  0.68947  0.06140  1.0000
  H   H1004     1.0  0.07535  0.70854  0.28629  1.0000
  H   H1005     1.0  0.20779  0.79174  0.03133  1.0000
  C   C585      1.0  0.03606  0.99188  0.34346  1.0000
  C   C586      1.0  0.22203  0.74897  0.21577  1.0000
  H   H1006     1.0  0.06912  0.71259  0.25896  1.0000
  H   H1007     1.0  0.13926  0.70062  0.45896  1.0000
  H   H1008     1.0  0.04940  0.98401  0.46802  1.0000
  C   C587      1.0  0.21465  0.77607  0.21918  1.0000
  H   H1009     1.0  0.20091  0.76941  0.22102  1.0000
  C   C588      1.0  0.00329  0.74703  0.40548  1.0000
  H   H1010     1.0  0.15045  0.67761  0.05184  1.0000
  C   C589      1.0  0.13503  0.92940  0.45786  1.0000
  Fe  Fe86      1.0  0.00233  0.99710  0.03630  1.0000
  H   H1011     1.0  0.20825  0.74332  0.21604  1.0000
  C   C590      1.0  0.22020  0.81328  0.38462  1.0000
  H   H1012     1.0  0.22031  0.97572  0.43373  1.0000
  C   C591      1.0  0.21507  0.75485  0.25427  1.0000
  H   H1013     1.0  0.22852  0.75417  0.19714  1.0000
  C   C592      1.0  0.20888  0.76673  0.26946  1.0000
  S   S172      1.0  0.98902  0.70958  0.26185  1.0000
  H   H1014     1.0  0.03561  0.86744  0.26902  1.0000
  H   H1015     1.0  0.20335  0.74420  0.25554  1.0000
  S   S173      1.0  0.19093  0.81795  0.45455  1.0000
  C   C593      1.0  0.23205  0.97515  0.44048  1.0000
  H   H1016     1.0  0.01279  0.74628  0.41652  1.0000
  H   H1017     1.0  0.99222  0.72368  0.39478  1.0000
  H   H1018     1.0  0.98801  0.95648  0.04712  1.0000
  H   H1019     1.0  0.22950  0.80121  0.35634  1.0000
  H   H1020     1.0  0.99078  0.77011  0.36769  1.0000
  C   C594      1.0  0.12273  0.88933  0.45942  1.0000
  H   H1021     1.0  0.14585  0.92344  0.45471  1.0000
  H   H1022     1.0  0.12844  0.67004  0.05127  1.0000
  H   H1023     1.0  0.01184  0.87499  0.25280  1.0000
  S   S174      1.0  0.99075  0.85264  0.36934  1.0000
  H   H1024     1.0  0.17185  0.67159  0.10270  1.0000
  H   H1025     1.0  0.21273  0.78448  0.97294  1.0000
  H   H1026     1.0  0.23583  0.79213  0.18988  1.0000
  H   H1027     1.0  0.06633  0.99479  0.30061  1.0000
  S   S175      1.0  0.23650  0.83153  0.46656  1.0000
  H   H1028     1.0  0.99337  0.86115  0.24809  1.0000
  H   H1029     1.0  0.12429  0.66567  0.45837  1.0000
  N   N45       1.0  0.23636  0.82145  0.39173  1.0000
  H   H1030     1.0  0.21646  0.81764  0.97104  1.0000
  C   C595      1.0  0.05543  0.99685  0.34321  1.0000
  C   C596      1.0  0.98685  0.95166  0.03161  1.0000
  H   H1031     1.0  0.99695  0.91984  0.46948  1.0000
  H   H1032     1.0  0.14411  0.87982  0.46854  1.0000
  Fe  Fe87      1.0  0.12857  0.97506  0.47058  1.0000
  S   S176      1.0  0.98683  0.74411  0.20376  1.0000
  C   C597      1.0  0.03773  0.97339  0.46934  1.0000
  H   H1033     1.0  0.13513  0.93772  0.82348  1.0000
  C   C598      1.0  0.11260  0.67798  0.53289  1.0000
  H   H1034     1.0  0.15594  0.98069  0.80630  1.0000
  H   H1035     1.0  0.12161  0.68375  0.54300  1.0000
  H   H1036     1.0  0.03223  0.67821  0.92611  1.0000
  H   H1037     1.0  0.04992  0.95389  0.48147  1.0000
  H   H1038     1.0  0.07886  0.67003  0.49249  1.0000
  S   S177      1.0  0.00160  0.92361  0.90586  1.0000
  H   H1039     1.0  0.03159  0.71857  0.91930  1.0000
  H   H1040     1.0  0.06067  0.68937  0.93726  1.0000
  S   S178      1.0  0.02793  0.99264  0.77081  1.0000
  H   H1041     1.0  0.22524  0.80926  0.58553  1.0000
  C   C599      1.0  0.03778  0.95734  0.48766  1.0000
  H   H1042     1.0  0.05364  0.97637  0.94350  1.0000
  S   S179      1.0  0.01142  0.95123  0.56325  1.0000
  C   C600      1.0  0.11732  0.92141  0.85453  1.0000
  H   H1043     1.0  0.22672  0.76042  0.57705  1.0000
  C   C601      1.0  0.12177  0.96328  0.82702  1.0000
  H   H1044     1.0  0.99399  0.93366  0.79103  1.0000
  C   C602      1.0  0.14683  0.66929  0.75271  1.0000
  C   C603      1.0  0.04980  0.99410  0.52895  1.0000
  Fe  Fe88      1.0  0.12449  0.72002  0.95147  1.0000
  S   S180      1.0  0.08033  0.95247  0.90562  1.0000
  H   H1045     1.0  0.15467  0.67043  0.76604  1.0000
  H   H1046     1.0  0.10229  0.66710  0.54498  1.0000
  C   C604      1.0  0.03888  0.94273  0.83793  1.0000
  H   H1047     1.0  0.01264  0.91717  0.51886  1.0000
  C   C605      1.0  0.09275  0.67863  0.93642  1.0000
  S   S181      1.0  0.21385  0.89395  0.49570  1.0000
  N   N46       1.0  0.06747  0.71491  0.91404  1.0000
  Fe  Fe89      1.0  0.22349  0.87221  0.48247  1.0000
  H   H1048     1.0  0.12020  0.90992  0.84852  1.0000
  S   S182      1.0  0.20807  0.84459  0.49877  1.0000
  C   C606      1.0  0.17767  0.70154  0.73560  1.0000
  H   H1049     1.0  0.08953  0.73339  0.91919  1.0000
  H   H1050     1.0  0.23445  0.93135  0.75440  1.0000
  H   H1051     1.0  0.13313  0.93890  0.88882  1.0000
  S   S183      1.0  0.10161  0.96246  0.49148  1.0000
  C   C607      1.0  0.11324  0.68721  0.48049  1.0000
  Fe  Fe90      1.0  0.09773  0.98919  0.48349  1.0000
  H   H1052     1.0  0.02383  0.93459  0.80098  1.0000
  H   H1053     1.0  0.10713  0.68864  0.52616  1.0000
  H   H1054     1.0  0.21605  0.76448  0.83417  1.0000
  H   H1055     1.0  0.13666  0.69283  0.74750  1.0000
  C   C608      1.0  0.16520  0.97834  0.49761  1.0000
  S   S184      1.0  0.15830  0.78433  0.93395  1.0000
  H   H1056     1.0  0.08993  0.97513  0.56576  1.0000
  S   S185      1.0  0.12307  0.70545  0.92216  1.0000
  S   S186      1.0  0.11767  0.74572  0.94741  1.0000
  S   S187      1.0  0.17802  0.68911  0.65419  1.0000
  C   C609      1.0  0.10963  0.68201  0.89782  1.0000
  C   C610      1.0  0.12258  0.67129  0.51374  1.0000
  C   C611      1.0  0.23617  0.89017  0.56972  1.0000
  C   C612      1.0  0.12957  0.70259  0.47293  1.0000
  H   H1057     1.0  0.02793  0.96466  0.83377  1.0000
  C   C613      1.0  0.21068  0.69461  0.66395  1.0000
  C   C614      1.0  0.19719  0.70171  0.65953  1.0000
  C   C615      1.0  0.19873  0.71943  0.65971  1.0000
  C   C616      1.0  0.21361  0.72998  0.66395  1.0000
  Fe  Fe91      1.0  0.09087  0.98114  0.88841  1.0000
  H   H1058     1.0  0.20972  0.68102  0.66395  1.0000
  H   H1059     1.0  0.18834  0.72506  0.65647  1.0000
  H   H1060     1.0  0.21458  0.74356  0.66400  1.0000
  H   H1061     1.0  0.09412  0.95140  0.84384  1.0000
  C   C617      1.0  0.10754  0.68724  0.91907  1.0000
  H   H1062     1.0  0.01260  0.94527  0.76874  1.0000
  H   H1063     1.0  0.12862  0.68302  0.71441  1.0000
  C   C618      1.0  0.22076  0.79438  0.80067  1.0000
  C   C619      1.0  0.22725  0.93295  0.52913  1.0000
  C   C620      1.0  0.21648  0.80862  0.90846  1.0000
  C   C621      1.0  0.20490  0.81871  0.90560  1.0000
  C   C622      1.0  0.18712  0.81094  0.91317  1.0000
  C   C623      1.0  0.18073  0.79302  0.92342  1.0000
  C   C624      1.0  0.19230  0.78278  0.92545  1.0000
  C   C625      1.0  0.21013  0.79062  0.91835  1.0000
  H   H1064     1.0  0.20963  0.83258  0.89807  1.0000
  H   H1065     1.0  0.17824  0.81893  0.91139  1.0000
  H   H1066     1.0  0.18751  0.76890  0.93280  1.0000
  H   H1067     1.0  0.21903  0.78272  0.92056  1.0000
  H   H1068     1.0  0.14105  0.67366  0.47189  1.0000
  H   H1069     1.0  0.20307  0.75867  0.96586  1.0000
  C   C626      1.0  0.16671  0.69317  0.72006  1.0000
  C   C627      1.0  0.06406  0.98727  0.52525  1.0000
  H   H1070     1.0  0.03901  0.74177  0.91122  1.0000
  C   C628      1.0  0.05947  0.72897  0.90439  1.0000
  N   N47       1.0  0.15804  0.67390  0.72852  1.0000
  H   H1071     1.0  0.21379  0.84799  0.57263  1.0000
  H   H1072     1.0  0.08313  0.98873  0.58357  1.0000
  H   H1073     1.0  0.22243  0.73263  0.59389  1.0000
  H   H1074     1.0  0.21493  0.77424  0.60803  1.0000
  H   H1075     1.0  0.04563  0.94482  0.81956  1.0000
  C   C629      1.0  0.09345  0.91044  0.49782  1.0000
  C   C630      1.0  0.09416  0.72455  0.87969  1.0000
  H   H1076     1.0  0.22555  0.98948  0.49128  1.0000
  C   C631      1.0  0.21782  0.91968  0.52040  1.0000
  C   C632      1.0  0.20564  0.94321  0.47305  1.0000
  H   H1077     1.0  0.20396  0.91696  0.52378  1.0000
  H   H1078     1.0  0.22067  0.94033  0.53922  1.0000
  H   H1079     1.0  0.18962  0.69723  0.73519  1.0000
  H   H1080     1.0  0.08636  0.71154  0.93432  1.0000
  C   C633      1.0  0.02393  0.92869  0.51311  1.0000
  H   H1081     1.0  0.02255  0.98840  0.54314  1.0000
  H   H1082     1.0  0.20623  0.78511  0.87129  1.0000
  H   H1083     1.0  0.08237  0.69851  0.90024  1.0000
  H   H1084     1.0  0.08266  0.66824  0.52154  1.0000
  H   H1085     1.0  0.23500  0.87756  0.53047  1.0000
  C   C634      1.0  0.17482  0.96984  0.51074  1.0000
  C   C635      1.0  0.12230  0.98540  0.53375  1.0000
  H   H1086     1.0  0.17232  0.95579  0.51382  1.0000
  H   H1087     1.0  0.19488  0.97265  0.53012  1.0000
  N   N48       1.0  0.12972  0.95524  0.84562  1.0000
  C   C636      1.0  0.06224  0.96956  0.53416  1.0000
  C   C637      1.0  0.04616  0.95871  0.54676  1.0000
  C   C638      1.0  0.03175  0.96541  0.54975  1.0000
  C   C639      1.0  0.03360  0.98313  0.54087  1.0000
  C   C640      1.0  0.22617  0.90997  0.50724  1.0000
  H   H1088     1.0  0.07323  0.96426  0.53157  1.0000
  H   H1089     1.0  0.04478  0.94503  0.55371  1.0000
  H   H1090     1.0  0.09137  0.73733  0.87463  1.0000
  C   C641      1.0  0.02329  0.93138  0.90698  1.0000
  C   C642      1.0  0.03258  0.92012  0.91567  1.0000
  C   C643      1.0  0.05011  0.92664  0.91523  1.0000
  C   C644      1.0  0.05844  0.94438  0.90590  1.0000
  C   C645      1.0  0.04911  0.95559  0.89730  1.0000
  C   C646      1.0  0.03160  0.94914  0.89805  1.0000
  H   H1091     1.0  0.02629  0.90638  0.92250  1.0000
  H   H1092     1.0  0.19956  0.78335  0.84518  1.0000
  H   H1093     1.0  0.05535  0.96927  0.89004  1.0000
  H   H1094     1.0  0.02448  0.95803  0.89170  1.0000
  C   C647      1.0  0.09684  0.66878  0.89359  1.0000
  C   C648      1.0  0.13741  0.67941  0.70113  1.0000
  H   H1095     1.0  0.15741  0.70099  0.71752  1.0000
  C   C649      1.0  0.13296  0.67914  0.75737  1.0000
  H   H1096     1.0  0.04283  0.73043  0.93724  1.0000
  C   C650      1.0  0.99004  0.93411  0.51389  1.0000
  C   C651      1.0  0.00922  0.91743  0.47276  1.0000
  H   H1097     1.0  0.14368  0.93527  0.84854  1.0000
  H   H1098     1.0  0.03873  0.69647  0.90150  1.0000
  H   H1099     1.0  0.98878  0.80479  0.96856  1.0000
  C   C652      1.0  0.02307  0.95022  0.84037  1.0000
  H   H1100     1.0  0.12667  0.98066  0.58045  1.0000
  Fe  Fe92      1.0  0.14344  0.75691  0.95442  1.0000
  C   C653      1.0  0.13223  0.93777  0.84230  1.0000
  H   H1101     1.0  0.19442  0.80907  0.85838  1.0000
  H   H1102     1.0  0.99556  0.95861  0.86626  1.0000
  N   N49       1.0  0.11534  0.66999  0.49252  1.0000
  H   H1103     1.0  0.12947  0.96436  0.80937  1.0000
  H   H1104     1.0  0.10619  0.94444  0.87255  1.0000
  S   S188      1.0  0.99123  0.88844  0.96628  1.0000
  C   C654      1.0  0.07805  0.71023  0.89401  1.0000
  H   H1105     1.0  0.06977  0.98801  0.95559  1.0000
  C   C655      1.0  0.01719  0.94496  0.80340  1.0000
  H   H1106     1.0  0.10344  0.69170  0.49126  1.0000
  C   C656      1.0  0.11775  0.96571  0.54550  1.0000
  H   H1107     1.0  0.00296  0.95437  0.48338  1.0000
  H   H1108     1.0  0.03546  0.92871  0.84668  1.0000
  H   H1109     1.0  0.15663  0.98412  0.57397  1.0000
  C   C657      1.0  0.15975  0.97188  0.81965  1.0000
  H   H1110     1.0  0.11558  0.96674  0.86971  1.0000
  C   C658      1.0  0.12684  0.94961  0.89003  1.0000
  H   H1111     1.0  0.05992  0.71584  0.96194  1.0000
  H   H1112     1.0  0.18186  0.71591  0.72866  1.0000
  C   C659      1.0  0.10327  0.95374  0.82694  1.0000
  H   H1113     1.0  0.18091  0.66792  0.71140  1.0000
  C   C660      1.0  0.05431  0.69840  0.92802  1.0000
  S   S189      1.0  0.22592  0.97763  0.56950  1.0000
  H   H1114     1.0  0.07172  0.96790  0.94850  1.0000
  H   H1115     1.0  0.09858  0.96213  0.81411  1.0000
  H   H1116     1.0  0.07022  0.70653  0.88140  1.0000
  C   C661      1.0  0.22559  0.70519  0.66806  1.0000
  H   H1117     1.0  0.12757  0.87818  0.49311  1.0000
  H   H1118     1.0  0.11299  0.96226  0.56451  1.0000
  C   C662      1.0  0.04350  0.68796  0.91400  1.0000
  H   H1119     1.0  0.22505  0.98351  0.67647  1.0000
  H   H1120     1.0  0.99122  0.93000  0.53208  1.0000
  H   H1121     1.0  0.05723  0.91789  0.92196  1.0000
  H   H1122     1.0  0.05190  0.93179  0.50768  1.0000
  H   H1123     1.0  0.12106  0.68853  0.88432  1.0000
  H   H1124     1.0  0.21512  0.93582  0.47639  1.0000
  H   H1125     1.0  0.13530  0.70522  0.48776  1.0000
  H   H1126     1.0  0.09912  0.97836  0.59076  1.0000
  C   C663      1.0  0.23541  0.99538  0.67088  1.0000
  H   H1127     1.0  0.15654  0.66566  0.69628  1.0000
  C   C664      1.0  0.23319  0.79906  0.81653  1.0000
  N   N50       1.0  0.00910  0.94276  0.82876  1.0000
  H   H1128     1.0  0.03888  0.91130  0.52502  1.0000
  H   H1129     1.0  0.12177  0.97691  0.82820  1.0000
  C   C665      1.0  0.21020  0.96165  0.47768  1.0000
  S   S190      1.0  0.15113  0.73193  0.95573  1.0000
  H   H1130     1.0  0.17034  0.69915  0.75374  1.0000
  C   C666      1.0  0.14790  0.66761  0.71152  1.0000
  H   H1131     1.0  0.10286  0.94145  0.82100  1.0000
  C   C667      1.0  0.04233  0.72979  0.91912  1.0000
  C   C668      1.0  0.20974  0.79091  0.85227  1.0000
  H   H1132     1.0  0.22183  0.74494  0.86604  1.0000
  H   H1133     1.0  0.00888  0.95798  0.50961  1.0000
  N   N51       1.0  0.02238  0.94175  0.49275  1.0000
  H   H1134     1.0  0.13061  0.67990  0.77592  1.0000
  H   H1135     1.0  0.06864  0.74210  0.90106  1.0000
  H   H1136     1.0  0.14598  0.69133  0.68866  1.0000
  H   H1137     1.0  0.01157  0.92757  0.95668  1.0000
  H   H1138     1.0  0.12064  0.67210  0.75406  1.0000
  H   H1139     1.0  0.20810  0.79680  0.80649  1.0000
  H   H1140     1.0  0.10739  0.95847  0.53847  1.0000
  H   H1141     1.0  0.14251  0.89896  0.47874  1.0000
  H   H1142     1.0  0.20833  0.86842  0.56334  1.0000
  H   H1143     1.0  0.20933  0.85361  0.54480  1.0000
  H   H1144     1.0  0.23490  0.79166  0.87394  1.0000
  H   H1145     1.0  0.13623  0.67915  0.50914  1.0000
  H   H1146     1.0  0.22638  0.80276  0.78295  1.0000
  H   H1147     1.0  0.04515  0.70093  0.94212  1.0000
  H   H1148     1.0  0.20773  0.96010  0.49690  1.0000
  H   H1149     1.0  0.21740  0.75328  0.61980  1.0000
  H   H1150     1.0  0.17520  0.69575  0.70250  1.0000
  H   H1151     1.0  0.08048  0.90530  0.49482  1.0000
  H   H1152     1.0  0.10483  0.92239  0.85073  1.0000
  H   H1153     1.0  0.98910  0.90812  0.81862  1.0000
  C   C669      1.0  0.00643  0.94789  0.49919  1.0000
  H   H1154     1.0  0.12890  0.96031  0.54082  1.0000
  S   S191      1.0  0.14952  0.96577  0.48586  1.0000
  C   C670      1.0  0.14707  0.96758  0.84347  1.0000
  C   C671      1.0  0.00157  0.92372  0.84050  1.0000
  H   H1155     1.0  0.04822  0.94967  0.84675  1.0000
  H   H1156     1.0  0.14553  0.98017  0.84749  1.0000
  H   H1157     1.0  0.11596  0.91849  0.87364  1.0000
  C   C672      1.0  0.13416  0.99288  0.56785  1.0000
  Fe  Fe93      1.0  0.98975  0.96403  0.56248  1.0000
  H   H1158     1.0  0.02399  0.93453  0.52852  1.0000
  H   H1159     1.0  0.11661  0.94543  0.90626  1.0000
  H   H1160     1.0  0.09841  0.92450  0.48937  1.0000
  H   H1161     1.0  0.02658  0.97865  0.47431  1.0000
  H   H1162     1.0  0.05103  0.68048  0.90453  1.0000
  S   S192      1.0  0.09267  0.99122  0.85060  1.0000
  S   S193      1.0  0.98732  0.97553  0.74822  1.0000
  C   C673      1.0  0.22723  0.72297  0.66794  1.0000
  H   H1163     1.0  0.13631  0.96128  0.89175  1.0000
  H   H1164     1.0  0.99869  0.92168  0.85975  1.0000
  H   H1165     1.0  0.16123  0.96000  0.81358  1.0000
  C   C674      1.0  0.07939  0.72140  0.92897  1.0000
  H   H1166     1.0  0.05684  0.72769  0.88710  1.0000
  H   H1167     1.0  0.22596  0.71916  0.61807  1.0000
  C   C675      1.0  0.23461  0.86809  0.54665  1.0000
  H   H1168     1.0  0.10008  0.88598  0.49959  1.0000
  C   C676      1.0  0.20775  0.80965  0.84974  1.0000
  H   H1169     1.0  0.23231  0.85755  0.59347  1.0000
  H   H1170     1.0  0.21903  0.78071  0.79883  1.0000
  H   H1171     1.0  0.10466  0.72590  0.88926  1.0000
  C   C677      1.0  0.00526  0.94512  0.78621  1.0000
  H   H1172     1.0  0.00240  0.96726  0.82303  1.0000
  N   N52       1.0  0.22724  0.78929  0.84162  1.0000
  H   H1173     1.0  0.09105  0.68236  0.95294  1.0000
  H   H1174     1.0  0.19706  0.79436  0.96526  1.0000
  H   H1175     1.0  0.02405  0.95384  0.96747  1.0000
  H   H1176     1.0  0.11745  0.90428  0.49721  1.0000
  C   C678      1.0  0.21547  0.85914  0.55790  1.0000
  H   H1177     1.0  0.15390  0.96223  0.85634  1.0000
  H   H1178     1.0  0.22437  0.94619  0.76618  1.0000
  H   H1179     1.0  0.01796  0.94804  0.85930  1.0000
  H   H1180     1.0  0.17262  0.97903  0.82122  1.0000
  H   H1181     1.0  0.02736  0.95756  0.79685  1.0000
  C   C679      1.0  0.03987  0.92155  0.50945  1.0000
  C   C680      1.0  0.13488  0.88667  0.47597  1.0000
  C   C681      1.0  0.11881  0.95413  0.86910  1.0000
  H   H1182     1.0  0.18021  0.66876  0.74093  1.0000
  C   C682      1.0  0.18765  0.97936  0.51995  1.0000
  C   C683      1.0  0.22184  0.75847  0.86750  1.0000
  H   H1183     1.0  0.22903  0.92863  0.82417  1.0000
  H   H1184     1.0  0.01125  0.91625  0.83709  1.0000
  S   S194      1.0  0.23599  0.98924  0.62705  1.0000
  H   H1185     1.0  0.03917  0.96199  0.50372  1.0000
  C   C684      1.0  0.07115  0.72621  0.95111  1.0000
  H   H1186     1.0  0.04076  0.91541  0.49435  1.0000
  H   H1187     1.0  0.13407  0.98790  0.51985  1.0000
  H   H1188     1.0  0.09916  0.72065  0.86354  1.0000
  H   H1189     1.0  0.22497  0.88360  0.58452  1.0000
  H   H1190     1.0  0.21637  0.81741  0.85857  1.0000
  C   C685      1.0  0.99608  0.95324  0.83129  1.0000
  H   H1191     1.0  0.20991  0.81661  0.83139  1.0000
  Fe  Fe94      1.0  0.23346  0.83914  0.50110  1.0000
  C   C686      1.0  0.22460  0.76682  0.61058  1.0000
  H   H1192     1.0  0.06780  0.73880  0.94702  1.0000
  C   C687      1.0  0.06233  0.97471  0.95549  1.0000
  C   C688      1.0  0.09456  0.98465  0.57599  1.0000
  C   C689      1.0  0.01984  0.92636  0.96936  1.0000
  H   H1193     1.0  0.22389  0.94453  0.73708  1.0000
  C   C690      1.0  0.22616  0.77025  0.84282  1.0000
  H   H1194     1.0  0.11210  0.98743  0.52435  1.0000
  H   H1195     1.0  0.15222  0.98220  0.54630  1.0000
  H   H1196     1.0  0.09179  0.90944  0.51682  1.0000
  H   H1197     1.0  0.00087  0.95721  0.78431  1.0000
  H   H1198     1.0  0.23077  0.89644  0.55565  1.0000
  H   H1199     1.0  0.19319  0.93558  0.48494  1.0000
  H   H1200     1.0  0.03988  0.94798  0.94878  1.0000
  H   H1201     1.0  0.20883  0.75783  0.87730  1.0000
  H   H1202     1.0  0.08072  0.72816  0.96203  1.0000
  H   H1203     1.0  0.13214  0.93074  0.47609  1.0000
  C   C691      1.0  0.23202  0.94437  0.75001  1.0000
  H   H1204     1.0  0.00670  0.90784  0.48937  1.0000
  C   C692      1.0  0.17206  0.66455  0.72893  1.0000
  H   H1205     1.0  0.12938  0.67227  0.69096  1.0000
  C   C693      1.0  0.10602  0.89983  0.49010  1.0000
  C   C694      1.0  0.07990  0.66550  0.93211  1.0000
  C   C695      1.0  0.15217  0.99052  0.55908  1.0000
  H   H1206     1.0  0.20031  0.96767  0.47192  1.0000
  H   H1207     1.0  0.23621  0.81344  0.81502  1.0000
  H   H1208     1.0  0.23143  0.76254  0.87772  1.0000
  C   C696      1.0  0.03204  0.94444  0.96685  1.0000
  H   H1209     1.0  0.06212  0.93837  0.96070  1.0000
  C   C697      1.0  0.16848  0.99651  0.49395  1.0000
  H   H1210     1.0  0.23604  0.69960  0.67115  1.0000
  H   H1211     1.0  0.06016  0.99443  0.78366  1.0000
  S   S195      1.0  0.23067  0.82166  0.53658  1.0000
  Fe  Fe95      1.0  0.00078  0.99283  0.76850  1.0000
  H   H1212     1.0  0.09844  0.66523  0.87695  1.0000
  C   C698      1.0  0.22897  0.99076  0.47210  1.0000
  H   H1213     1.0  0.23240  0.77293  0.62174  1.0000
  C   C699      1.0  0.12795  0.66469  0.47546  1.0000
  H   H1214     1.0  0.99252  0.99526  0.65898  1.0000
  H   H1215     1.0  0.02699  0.91686  0.96485  1.0000
  C   C700      1.0  0.23263  0.72813  0.60104  1.0000
  C   C701      1.0  0.23550  0.76727  0.58667  1.0000
  C   C702      1.0  0.02255  0.93472  0.47109  1.0000
  Fe  Fe96      1.0  0.40118  0.29683  0.36845  1.0000
  S   S196      1.0  0.41539  0.27624  0.37137  1.0000
  H   H1216     1.0  0.39512  0.21937  0.46605  1.0000
  Fe  Fe97      1.0  0.37022  0.27252  0.35740  1.0000
  S   S197      1.0  0.38232  0.24987  0.35983  1.0000
  S   S198      1.0  0.34231  0.27206  0.35657  1.0000
  Fe  Fe98      1.0  0.39024  0.25759  0.39132  1.0000
  S   S199      1.0  0.38945  0.24143  0.42687  1.0000
  Fe  Fe99      1.0  0.40662  0.27027  0.33944  1.0000
  S   S200      1.0  0.42730  0.26436  0.31375  1.0000
  S   S201      1.0  0.37657  0.27873  0.39056  1.0000
  S   S202      1.0  0.39405  0.29241  0.33491  1.0000
  H   H1217     1.0  0.39225  0.12398  0.97981  1.0000
  Fe  Fe100     1.0  0.41191  0.24997  0.01122  1.0000
  S   S203      1.0  0.40815  0.27546  0.99384  1.0000
  S   S204      1.0  0.42414  0.24525  0.04263  1.0000
  Fe  Fe101     1.0  0.38242  0.25934  0.99123  1.0000
  S   S205      1.0  0.35889  0.26983  0.99721  1.0000
  H   H1218     1.0  0.25238  0.30376  0.33943  1.0000
  S   S206      1.0  0.38537  0.23426  0.01095  1.0000
  H   H1219     1.0  0.41930  0.21294  0.41283  1.0000
  H   H1220     1.0  0.43588  0.28276  0.12747  1.0000
  Fe  Fe102     1.0  0.27013  0.25713  0.28434  1.0000
  S   S207      1.0  0.27188  0.28229  0.25988  1.0000
  S   S208      1.0  0.29583  0.25098  0.28596  1.0000
  H   H1221     1.0  0.41978  0.18349  0.41350  1.0000
  H   H1222     1.0  0.42480  0.31384  0.14151  1.0000
  Fe  Fe103     1.0  0.25121  0.26679  0.24598  1.0000
  H   H1223     1.0  0.39154  0.14626  0.97577  1.0000
  C   C703      1.0  0.43755  0.32378  0.99783  1.0000
  S   S209      1.0  0.25074  0.24110  0.26846  1.0000
  H   H1224     1.0  0.37995  0.31701  0.41760  1.0000
  S   S210      1.0  0.26149  0.26018  0.06546  1.0000
  C   C704      1.0  0.47515  0.99779  0.34652  1.0000
  H   H1225     1.0  0.45854  0.12090  0.46180  1.0000
  Fe  Fe104     1.0  0.25937  0.23800  0.04747  1.0000
  S   S211      1.0  0.28143  0.22546  0.04019  1.0000
  C   C705      1.0  0.34640  0.20512  0.99318  1.0000
  H   H1226     1.0  0.30012  0.22960  0.08076  1.0000
  H   H1227     1.0  0.32637  0.24719  0.09050  1.0000
  S   S212      1.0  0.41048  0.32406  0.37462  1.0000
  Fe  Fe105     1.0  0.45832  0.07271  0.37859  1.0000
  S   S213      1.0  0.46530  0.05249  0.40335  1.0000
  S   S214      1.0  0.44420  0.09220  0.38934  1.0000
  H   H1228     1.0  0.34711  0.15493  0.46065  1.0000
  H   H1229     1.0  0.31805  0.26619  0.08607  1.0000
  Fe  Fe106     1.0  0.45733  0.03480  0.37975  1.0000
  S   S215      1.0  0.44401  0.00610  0.39543  1.0000
  H   H1230     1.0  0.28443  0.27699  0.11977  1.0000
  S   S216      1.0  0.44842  0.05436  0.35666  1.0000
  H   H1231     1.0  0.47309  0.28922  0.01945  1.0000
  Fe  Fe107     1.0  0.46543  0.28919  0.17890  1.0000
  S   S217      1.0  0.47350  0.31206  0.14851  1.0000
  S   S218      1.0  0.44083  0.28841  0.20376  1.0000
  H   H1232     1.0  0.48024  0.15557  0.11831  1.0000
  S   S219      1.0  0.46679  0.29753  0.09343  1.0000
  S   S220      1.0  0.46770  0.26992  0.15650  1.0000
  Fe  Fe108     1.0  0.46098  0.07909  0.02781  1.0000
  H   H1233     1.0  0.40252  0.31449  0.43804  1.0000
  S   S221      1.0  0.46105  0.09206  0.05886  1.0000
  Fe  Fe109     1.0  0.43999  0.04916  0.00999  1.0000
  H   H1234     1.0  0.40372  0.24931  0.17735  1.0000
  S   S222      1.0  0.41650  0.02571  0.02004  1.0000
  N   N53       1.0  0.47584  0.18263  0.19665  1.0000
  H   H1235     1.0  0.46139  0.30604  0.25340  1.0000
  C   C706      1.0  0.29048  0.21652  0.15190  1.0000
  S   S223      1.0  0.46168  0.05124  0.02859  1.0000
  S   S224      1.0  0.43755  0.07614  0.01217  1.0000
  H   H1236     1.0  0.27484  0.20978  0.09007  1.0000
  C   C707      1.0  0.42201  0.23144  0.37122  1.0000
  S   S225      1.0  0.25038  0.26118  0.31268  1.0000
  H   H1237     1.0  0.32291  0.25590  0.06281  1.0000
  H   H1238     1.0  0.25466  0.20331  0.11029  1.0000
  H   H1239     1.0  0.46219  0.10464  0.10054  1.0000
  H   H1240     1.0  0.29027  0.22660  0.16223  1.0000
  H   H1241     1.0  0.41236  0.23285  0.38576  1.0000
  H   H1242     1.0  0.46182  0.18503  0.15544  1.0000
  S   S226      1.0  0.25250  0.27531  0.20708  1.0000
  C   C708      1.0  0.42613  0.17498  0.97424  1.0000
  C   C709      1.0  0.34247  0.12129  0.46326  1.0000
  H   H1243     1.0  0.43801  0.32708  0.97903  1.0000
  H   H1244     1.0  0.31686  0.29119  0.29986  1.0000
  H   H1245     1.0  0.42525  0.25076  0.40556  1.0000
  H   H1246     1.0  0.42803  0.01448  0.35650  1.0000
  H   H1247     1.0  0.41529  0.24156  0.14187  1.0000
  N   N54       1.0  0.41199  0.27490  0.15383  1.0000
  H   H1248     1.0  0.44850  0.15309  0.23471  1.0000
  S   S227      1.0  0.38612  0.16068  0.44988  1.0000
  H   H1249     1.0  0.26972  0.26125  0.11069  1.0000
  H   H1250     1.0  0.48210  0.29486  0.23794  1.0000
  C   C710      1.0  0.42476  0.00044  0.36251  1.0000
  N   N55       1.0  0.46603  0.31542  0.98641  1.0000
  C   C711      1.0  0.43731  0.09312  0.41855  1.0000
  C   C712      1.0  0.44039  0.08181  0.43692  1.0000
  H   H1251     1.0  0.25025  0.28739  0.16028  1.0000
  C   C713      1.0  0.28348  0.26616  0.11053  1.0000
  H   H1252     1.0  0.44675  0.07189  0.43342  1.0000
  C   C714      1.0  0.38641  0.18298  0.44430  1.0000
  C   C715      1.0  0.24448  0.31526  0.02284  1.0000
  C   C716      1.0  0.26868  0.20868  0.10842  1.0000
  H   H1253     1.0  0.28241  0.24797  0.14145  1.0000
  C   C717      1.0  0.42739  0.30584  0.12874  1.0000
  H   H1254     1.0  0.28266  0.30724  0.34544  1.0000
  H   H1255     1.0  0.42403  0.26224  0.17874  1.0000
  H   H1256     1.0  0.39993  0.29476  0.16346  1.0000
  C   C718      1.0  0.45412  0.28246  0.08078  1.0000
  C   C719      1.0  0.45362  0.26472  0.08512  1.0000
  C   C720      1.0  0.44424  0.25355  0.07345  1.0000
  C   C721      1.0  0.43533  0.25992  0.05725  1.0000
  C   C722      1.0  0.43542  0.27756  0.05345  1.0000
  C   C723      1.0  0.44470  0.28870  0.06523  1.0000
  H   H1257     1.0  0.46077  0.25969  0.09702  1.0000
  H   H1258     1.0  0.44415  0.23991  0.07668  1.0000
  H   H1259     1.0  0.42828  0.28257  0.04152  1.0000
  H   H1260     1.0  0.44468  0.30231  0.06224  1.0000
  C   C724      1.0  0.33753  0.25730  0.01004  1.0000
  C   C725      1.0  0.32412  0.26547  0.00964  1.0000
  C   C726      1.0  0.30690  0.25594  0.01913  1.0000
  C   C727      1.0  0.30293  0.23807  0.02890  1.0000
  C   C728      1.0  0.31634  0.22991  0.02964  1.0000
  C   C729      1.0  0.33359  0.23951  0.02046  1.0000
  H   H1261     1.0  0.32706  0.27927  0.00181  1.0000
  H   H1262     1.0  0.29670  0.26239  0.01855  1.0000
  H   H1263     1.0  0.31336  0.21612  0.03741  1.0000
  H   H1264     1.0  0.34383  0.23319  0.02144  1.0000
  H   H1265     1.0  0.46716  0.16511  0.24238  1.0000
  S   S228      1.0  0.25304  0.29721  0.02016  1.0000
  C   C730      1.0  0.46273  0.15609  0.23152  1.0000
  S   S229      1.0  0.25240  0.31377  0.28981  1.0000
  C   C731      1.0  0.43231  0.31690  0.40328  1.0000
  H   H1266     1.0  0.46165  0.02798  0.29567  1.0000
  H   H1267     1.0  0.43176  0.30504  0.39712  1.0000
  C   C732      1.0  0.38764  0.21880  0.43344  1.0000
  C   C733      1.0  0.48448  0.18708  0.17123  1.0000
  H   H1268     1.0  0.40821  0.26271  0.45339  1.0000
  H   H1269     1.0  0.29089  0.27186  0.09242  1.0000
  C   C734      1.0  0.47508  0.10422  0.09325  1.0000
  C   C735      1.0  0.38283  0.20825  0.41834  1.0000
  C   C736      1.0  0.39059  0.04864  0.97807  1.0000
  C   C737      1.0  0.41192  0.21891  0.35870  1.0000
  H   H1270     1.0  0.32109  0.22856  0.98115  1.0000
  H   H1271     1.0  0.37952  0.21386  0.40254  1.0000
  C   C738      1.0  0.43106  0.27151  0.28323  1.0000
  C   C739      1.0  0.44464  0.26766  0.26907  1.0000
  C   C740      1.0  0.44787  0.27284  0.24468  1.0000
  C   C741      1.0  0.43750  0.28193  0.23429  1.0000
  C   C742      1.0  0.42398  0.28587  0.24842  1.0000
  C   C743      1.0  0.42080  0.28075  0.27281  1.0000
  H   H1272     1.0  0.45261  0.26048  0.27700  1.0000
  H   H1273     1.0  0.45821  0.26961  0.23396  1.0000
  H   H1274     1.0  0.41587  0.29285  0.24051  1.0000
  H   H1275     1.0  0.41030  0.28376  0.28353  1.0000
  C   C744      1.0  0.32956  0.26481  0.33736  1.0000
  C   C745      1.0  0.33667  0.26166  0.31609  1.0000
  C   C746      1.0  0.32610  0.25705  0.30077  1.0000
  C   C747      1.0  0.30838  0.25572  0.30642  1.0000
  C   C748      1.0  0.30122  0.25854  0.32788  1.0000
  C   C749      1.0  0.31176  0.26302  0.34325  1.0000
  H   H1276     1.0  0.35033  0.26297  0.31134  1.0000
  H   H1277     1.0  0.33173  0.25479  0.28427  1.0000
  H   H1278     1.0  0.28757  0.25728  0.33258  1.0000
  H   H1279     1.0  0.30611  0.26526  0.35976  1.0000
  H   H1280     1.0  0.46921  0.11547  0.42430  1.0000
  C   C750      1.0  0.39254  0.30218  0.43954  1.0000
  S   S230      1.0  0.48395  0.06496  0.29639  1.0000
  H   H1281     1.0  0.47482  0.30799  0.03249  1.0000
  H   H1282     1.0  0.44741  0.00889  0.31523  1.0000
  H   H1283     1.0  0.30302  0.11647  0.46623  1.0000
  H   H1284     1.0  0.31477  0.19138  0.98762  1.0000
  H   H1285     1.0  0.39862  0.25836  0.10862  1.0000
  C   C751      1.0  0.24830  0.26383  0.18521  1.0000
  H   H1286     1.0  0.44066  0.21130  0.41126  1.0000
  H   H1287     1.0  0.48318  0.10610  0.39554  1.0000
  C   C752      1.0  0.39086  0.19344  0.45965  1.0000
  C   C753      1.0  0.46669  0.31992  0.25361  1.0000
  C   C754      1.0  0.48247  0.31500  0.99424  1.0000
  H   H1288     1.0  0.42453  0.16214  0.98570  1.0000
  C   C755      1.0  0.41572  0.25876  0.16650  1.0000
  H   H1289     1.0  0.34615  0.19264  0.98785  1.0000
  H   H1290     1.0  0.48160  0.19249  0.22674  1.0000
  H   H1291     1.0  0.37870  0.18235  0.41185  1.0000
  H   H1292     1.0  0.47185  0.31081  0.21299  1.0000
  N   N56       1.0  0.31276  0.31549  0.30678  1.0000
  H   H1293     1.0  0.44386  0.21040  0.35632  1.0000
  C   C756      1.0  0.48269  0.09921  0.45752  1.0000
  H   H1294     1.0  0.46217  0.02463  0.32547  1.0000
  C   C757      1.0  0.37636  0.30761  0.43475  1.0000
  C   C758      1.0  0.46791  0.13165  0.44840  1.0000
  C   C759      1.0  0.48543  0.01441  0.42027  1.0000
  C   C760      1.0  0.39860  0.05067  0.46353  1.0000
  H   H1295     1.0  0.30359  0.25812  0.12490  1.0000
  H   H1296     1.0  0.31769  0.29881  0.33592  1.0000
  H   H1297     1.0  0.39050  0.26189  0.20262  1.0000
  H   H1298     1.0  0.46412  0.24916  0.34113  1.0000
  H   H1299     1.0  0.46142  0.15672  0.19628  1.0000
  C   C761      1.0  0.24036  0.23708  0.17171  1.0000
  H   H1300     1.0  0.41959  0.21172  0.34917  1.0000
  C   C762      1.0  0.35031  0.22077  0.97242  1.0000
  C   C763      1.0  0.24766  0.27332  0.16347  1.0000
  H   H1301     1.0  0.46462  0.00369  0.35223  1.0000
  H   H1302     1.0  0.23741  0.22299  0.17506  1.0000
  H   H1303     1.0  0.42650  0.11466  0.40924  1.0000
  H   H1304     1.0  0.39274  0.28063  0.13549  1.0000
  Fe  Fe110     1.0  0.47866  0.06207  0.99277  1.0000
  H   H1305     1.0  0.32665  0.31297  0.26019  1.0000
  H   H1306     1.0  0.38976  0.25801  0.14696  1.0000
  H   H1307     1.0  0.26563  0.23450  0.10358  1.0000
  H   H1308     1.0  0.27296  0.19904  0.11996  1.0000
  H   H1309     1.0  0.31236  0.23215  0.12580  1.0000
  H   H1310     1.0  0.43753  0.29018  0.15286  1.0000
  H   H1311     1.0  0.48128  0.08731  0.41843  1.0000
  H   H1312     1.0  0.41762  0.11755  0.44980  1.0000
  C   C764      1.0  0.41370  0.00919  0.00417  1.0000
  H   H1313     1.0  0.26387  0.22463  0.13288  1.0000
  C   C765      1.0  0.24500  0.24566  0.18907  1.0000
  C   C766      1.0  0.47821  0.09800  0.07283  1.0000
  C   C767      1.0  0.42567  0.01004  0.98402  1.0000
  C   C768      1.0  0.29918  0.24133  0.08768  1.0000
  H   H1314     1.0  0.45413  0.18643  0.21945  1.0000
  H   H1315     1.0  0.33367  0.12398  0.45188  1.0000
  C   C769      1.0  0.38733  0.27142  0.18941  1.0000
  H   H1316     1.0  0.44541  0.25877  0.41223  1.0000
  C   C770      1.0  0.29038  0.25187  0.12338  1.0000
  C   C771      1.0  0.29915  0.22466  0.12603  1.0000
  H   H1317     1.0  0.37220  0.06907  0.45086  1.0000
  S   S231      1.0  0.48374  0.04197  0.35692  1.0000
  H   H1318     1.0  0.29166  0.24791  0.07697  1.0000
  C   C772      1.0  0.42559  0.19293  0.39652  1.0000
  H   H1319     1.0  0.35097  0.23235  0.98012  1.0000
  H   H1320     1.0  0.27725  0.20820  0.15442  1.0000
  C   C773      1.0  0.40771  0.26871  0.11369  1.0000
  H   H1321     1.0  0.38073  0.03591  0.98368  1.0000
  H   H1322     1.0  0.41999  0.26511  0.11182  1.0000
  H   H1323     1.0  0.29803  0.20801  0.15931  1.0000
  H   H1324     1.0  0.44762  0.31082  0.42787  1.0000
  H   H1325     1.0  0.46641  0.14395  0.23788  1.0000
  N   N57       1.0  0.43688  0.22662  0.37995  1.0000
  C   C774      1.0  0.44660  0.24217  0.38743  1.0000
  C   C775      1.0  0.44942  0.22261  0.36141  1.0000
  C   C776      1.0  0.43063  0.21147  0.40091  1.0000
  H   H1326     1.0  0.44975  0.21169  0.19526  1.0000
  C   C777      1.0  0.27168  0.22658  0.11501  1.0000
  C   C778      1.0  0.45637  0.23678  0.33860  1.0000
  H   H1327     1.0  0.28581  0.28726  0.33810  1.0000
  H   H1328     1.0  0.45578  0.32588  0.25258  1.0000
  H   H1329     1.0  0.47576  0.14086  0.45649  1.0000
  H   H1330     1.0  0.45036  0.25414  0.37318  1.0000
  C   C779      1.0  0.42875  0.28783  0.14086  1.0000
  C   C780      1.0  0.25624  0.32793  0.35130  1.0000
  H   H1331     1.0  0.38472  0.05895  0.97118  1.0000
  H   H1332     1.0  0.44962  0.18123  0.19348  1.0000
  H   H1333     1.0  0.45149  0.31327  0.02090  1.0000
  H   H1334     1.0  0.48264  0.10036  0.29961  1.0000
  H   H1335     1.0  0.25643  0.32175  0.36875  1.0000
  C   C781      1.0  0.40795  0.28739  0.46409  1.0000
  C   C782      1.0  0.47096  0.16310  0.20530  1.0000
  H   H1336     1.0  0.45883  0.24005  0.39154  1.0000
  C   C783      1.0  0.31317  0.30549  0.26811  1.0000
  C   C784      1.0  0.47349  0.18022  0.15477  1.0000
  H   H1337     1.0  0.41750  0.30481  0.11828  1.0000
  H   H1338     1.0  0.47002  0.16578  0.15805  1.0000
  C   C785      1.0  0.39146  0.21130  0.45423  1.0000
  C   C786      1.0  0.39977  0.27040  0.13832  1.0000
  H   H1339     1.0  0.45954  0.32912  0.18808  1.0000
  H   H1340     1.0  0.45844  0.31295  0.29122  1.0000
  H   H1341     1.0  0.44589  0.23933  0.33020  1.0000
  N   N58       1.0  0.29011  0.23613  0.11301  1.0000
  H   H1342     1.0  0.41588  0.19134  0.38590  1.0000
  C   C787      1.0  0.40368  0.28318  0.17187  1.0000
  C   C788      1.0  0.25400  0.32559  0.31199  1.0000
  N   N59       1.0  0.48162  0.32884  0.23323  1.0000
  H   H1343     1.0  0.35690  0.20719  0.00264  1.0000
  H   H1344     1.0  0.40059  0.20946  0.37102  1.0000
  H   H1345     1.0  0.43369  0.23662  0.42477  1.0000
  H   H1346     1.0  0.43643  0.25592  0.13926  1.0000
  H   H1347     1.0  0.31440  0.31865  0.34158  1.0000
  N   N60       1.0  0.39039  0.28975  0.46252  1.0000
  C   C789      1.0  0.30080  0.32666  0.30174  1.0000
  C   C790      1.0  0.43539  0.08351  0.45988  1.0000
  C   C791      1.0  0.46054  0.01770  0.31131  1.0000
  H   H1348     1.0  0.42732  0.31145  0.00575  1.0000
  H   H1349     1.0  0.44494  0.29827  0.97761  1.0000
  C   C792      1.0  0.34510  0.31652  0.29858  1.0000
  C   C793      1.0  0.25398  0.31770  0.33472  1.0000
  C   C794      1.0  0.42725  0.09643  0.46462  1.0000
  H   H1350     1.0  0.29102  0.29302  0.36375  1.0000
  C   C795      1.0  0.44134  0.32024  0.42063  1.0000
  H   H1351     1.0  0.43993  0.31308  0.11677  1.0000
  H   H1352     1.0  0.30426  0.31273  0.26177  1.0000
  C   C796      1.0  0.43698  0.24711  0.40875  1.0000
  S   S232      1.0  0.48480  0.08289  0.35505  1.0000
  H   H1353     1.0  0.40722  0.22665  0.34516  1.0000
  H   H1354     1.0  0.37119  0.31439  0.44773  1.0000
  C   C797      1.0  0.45490  0.32215  0.00343  1.0000
  H   H1355     1.0  0.40924  0.28085  0.10054  1.0000
  Fe  Fe111     1.0  0.47761  0.29313  0.12618  1.0000
  Fe  Fe112     1.0  0.47563  0.06296  0.33521  1.0000
  H   H1356     1.0  0.42753  0.23759  0.16301  1.0000
  H   H1357     1.0  0.48019  0.00028  0.42194  1.0000
  H   H1358     1.0  0.30093  0.21388  0.11736  1.0000
  H   H1359     1.0  0.38105  0.27967  0.19913  1.0000
  H   H1360     1.0  0.42615  0.24467  0.35948  1.0000
  H   H1361     1.0  0.48050  0.31395  0.28138  1.0000
  H   H1362     1.0  0.37782  0.26455  0.18084  1.0000
  H   H1363     1.0  0.36469  0.27490  0.46328  1.0000
  H   H1364     1.0  0.39707  0.29667  0.42467  1.0000
  H   H1365     1.0  0.34463  0.30942  0.31639  1.0000
  C   C798      1.0  0.38228  0.19041  0.42373  1.0000
  H   H1366     1.0  0.46497  0.23212  0.32613  1.0000
  C   C799      1.0  0.42386  0.10751  0.44634  1.0000
  H   H1367     1.0  0.41293  0.28824  0.18218  1.0000
  C   C800      1.0  0.31764  0.25332  0.08183  1.0000
  H   H1368     1.0  0.43699  0.18898  0.38866  1.0000
  H   H1369     1.0  0.24244  0.27223  0.12956  1.0000
  H   H1370     1.0  0.47368  0.00480  0.28910  1.0000
  C   C801      1.0  0.46217  0.20845  0.19034  1.0000
  H   H1371     1.0  0.36619  0.29640  0.43343  1.0000
  C   C802      1.0  0.29121  0.29844  0.34532  1.0000
  C   C803      1.0  0.45980  0.18886  0.20051  1.0000
  H   H1372     1.0  0.31844  0.14467  0.46168  1.0000
  H   H1373     1.0  0.48204  0.15760  0.20063  1.0000
  C   C804      1.0  0.30936  0.30053  0.29488  1.0000
  S   S233      1.0  0.42361  0.24398  0.97768  1.0000
  H   H1374     1.0  0.48499  0.02046  0.40236  1.0000
  C   C805      1.0  0.41524  0.27673  0.44775  1.0000
  C   C806      1.0  0.42894  0.10588  0.42338  1.0000
  H   H1375     1.0  0.31104  0.29326  0.26166  1.0000
  C   C807      1.0  0.42425  0.24811  0.15143  1.0000
  Fe  Fe113     1.0  0.25099  0.28554  0.28707  1.0000
  H   H1376     1.0  0.41989  0.09023  0.97341  1.0000
  C   C808      1.0  0.48228  0.15544  0.09956  1.0000
  H   H1377     1.0  0.29566  0.29286  0.30052  1.0000
  Fe  Fe114     1.0  0.24473  0.26961  0.04276  1.0000
  H   H1378     1.0  0.46591  0.21182  0.17108  1.0000
  C   C809      1.0  0.47462  0.00812  0.30612  1.0000
  H   H1379     1.0  0.46065  0.22012  0.36822  1.0000
  C   C810      1.0  0.47031  0.32035  0.27789  1.0000
  C   C811      1.0  0.47874  0.12455  0.43064  1.0000
  C   C812      1.0  0.30988  0.30819  0.33251  1.0000
  C   C813      1.0  0.24325  0.26476  0.14600  1.0000
  H   H1380     1.0  0.41510  0.28143  0.42937  1.0000
  S   S234      1.0  0.24435  0.24838  0.02277  1.0000
  H   H1381     1.0  0.42884  0.27764  0.44853  1.0000
  H   H1382     1.0  0.45046  0.28904  0.00317  1.0000
  H   H1383     1.0  0.28729  0.31852  0.30568  1.0000
  H   H1384     1.0  0.47170  0.21698  0.19727  1.0000
  H   H1385     1.0  0.35539  0.13047  0.45584  1.0000
  S   S235      1.0  0.45707  0.05799  0.97428  1.0000
  H   H1386     1.0  0.38079  0.26859  0.44645  1.0000
  C   C814      1.0  0.48056  0.30279  0.01801  1.0000
  H   H1387     1.0  0.34448  0.30729  0.28692  1.0000
  H   H1388     1.0  0.47017  0.09290  0.45411  1.0000
  Fe  Fe115     1.0  0.45629  0.08507  0.97765  1.0000
  C   C815      1.0  0.45617  0.29747  0.98545  1.0000
  H   H1389     1.0  0.48531  0.13565  0.41545  1.0000
  C   C816      1.0  0.36708  0.07446  0.46551  1.0000
  H   H1390     1.0  0.48128  0.18514  0.13665  1.0000
  H   H1391     1.0  0.36908  0.08863  0.45838  1.0000
  H   H1392     1.0  0.24581  0.23825  0.20553  1.0000
  S   S236      1.0  0.47958  0.09003  0.99313  1.0000
  H   H1393     1.0  0.48284  0.14700  0.05937  1.0000
  C   C817      1.0  0.23936  0.24657  0.15014  1.0000
  H   H1394     1.0  0.45753  0.27491  0.97097  1.0000
  H   H1395     1.0  0.41743  0.30033  0.46091  1.0000
  H   H1396     1.0  0.41843  0.18165  0.98498  1.0000
  H   H1397     1.0  0.47680  0.01910  0.43266  1.0000
  H   H1398     1.0  0.29834  0.19687  0.97357  1.0000
  C   C818      1.0  0.30832  0.20168  0.98296  1.0000
  H   H1399     1.0  0.46420  0.00272  0.97304  1.0000
  H   H1400     1.0  0.47479  0.14243  0.09844  1.0000
  H   H1401     1.0  0.35793  0.32607  0.29238  1.0000
  C   C819      1.0  0.33107  0.32650  0.29803  1.0000
  C   C820      1.0  0.46639  0.28744  0.97135  1.0000
  Fe  Fe116     1.0  0.39685  0.23052  0.97565  1.0000
  H   H1402     1.0  0.30116  0.20338  0.99958  1.0000
  H   H1403     1.0  0.39458  0.05168  0.99398  1.0000
  H   H1404     1.0  0.39985  0.04288  0.45011  1.0000
  H   H1405     1.0  0.43721  0.02068  0.97833  1.0000
  H   H1406     1.0  0.46010  0.13895  0.43929  1.0000
  H   H1407     1.0  0.24225  0.99946  0.46608  1.0000
  H   H1408     1.0  0.47708  0.16572  0.09088  1.0000
  H   H1409     1.0  0.33445  0.20417  0.00583  1.0000
  H   H1410     1.0  0.34398  0.10798  0.46300  1.0000
  H   H1411     1.0  0.48590  0.11470  0.11989  1.0000
  H   H1412     1.0  0.40087  0.06440  0.45414  1.0000
  H   H1413     1.0  0.47674  0.28408  0.97942  1.0000
  C   C821      1.0  0.47646  0.32508  0.21136  1.0000
  C   C822      1.0  0.37771  0.27292  0.46293  1.0000
  H   H1414     1.0  0.37135  0.04176  0.46835  1.0000
  C   C823      1.0  0.42377  0.32878  0.39423  1.0000
  H   H1415     1.0  0.44978  0.32743  0.21756  1.0000
  H   H1416     1.0  0.35079  0.18227  0.47022  1.0000
  C   C824      1.0  0.42242  0.99739  0.97083  1.0000
  H   H1417     1.0  0.42144  0.13997  0.97069  1.0000
  H   H1418     1.0  0.26593  0.03292  0.84423  1.0000
  H   H1419     1.0  0.26621  0.03731  0.87275  1.0000
  S   S237      1.0  0.43944  0.28653  0.93052  1.0000
  Fe  Fe117     1.0  0.36951  0.11588  0.52487  1.0000
  S   S238      1.0  0.39303  0.11455  0.53881  1.0000
  S   S239      1.0  0.34304  0.09873  0.54507  1.0000
  Fe  Fe118     1.0  0.39009  0.14610  0.48369  1.0000
  S   S240      1.0  0.41531  0.14687  0.49412  1.0000
  Fe  Fe119     1.0  0.40615  0.11750  0.50149  1.0000
  Fe  Fe120     1.0  0.40034  0.14393  0.53068  1.0000
  S   S241      1.0  0.40640  0.16036  0.55716  1.0000
  S   S242      1.0  0.38217  0.11689  0.48828  1.0000
  S   S243      1.0  0.37560  0.14511  0.51948  1.0000
  Fe  Fe121     1.0  0.35696  0.11925  0.85189  1.0000
  S   S244      1.0  0.38037  0.10916  0.85322  1.0000
  S   S245      1.0  0.33193  0.10036  0.84888  1.0000
  Fe  Fe122     1.0  0.37392  0.15312  0.86713  1.0000
  S   S246      1.0  0.39811  0.14488  0.86862  1.0000
  S   S247      1.0  0.37338  0.17976  0.87550  1.0000
  Fe  Fe123     1.0  0.39561  0.13672  0.83514  1.0000
  S   S248      1.0  0.42070  0.14180  0.80844  1.0000
  Fe  Fe124     1.0  0.38083  0.11843  0.88630  1.0000
  S   S249      1.0  0.38289  0.10286  0.92061  1.0000
  S   S250      1.0  0.37230  0.14663  0.83206  1.0000
  S   S251      1.0  0.35653  0.12690  0.88656  1.0000
  H   H1420     1.0  0.48602  0.01509  0.96866  1.0000
  C   C825      1.0  0.27348  0.08985  0.83760  1.0000
  Fe  Fe125     1.0  0.26732  0.01606  0.54103  1.0000
  S   S252      1.0  0.29182  0.03645  0.51912  1.0000
  H   H1421     1.0  0.33202  0.03005  0.51459  1.0000
  Fe  Fe126     1.0  0.25881  0.02365  0.74026  1.0000
  S   S253      1.0  0.28364  0.02221  0.75036  1.0000
  S   S254      1.0  0.26167  0.03166  0.70080  1.0000
  H   H1422     1.0  0.46443  0.01333  0.93102  1.0000
  S   S255      1.0  0.26447  0.01603  0.80436  1.0000
  Fe  Fe127     1.0  0.27847  0.03921  0.77522  1.0000
  S   S256      1.0  0.29931  0.06417  0.77383  1.0000
  S   S257      1.0  0.25443  0.04221  0.76345  1.0000
  H   H1423     1.0  0.40629  0.05500  0.88989  1.0000
  C   C826      1.0  0.41312  0.16014  0.92030  1.0000
  Fe  Fe128     1.0  0.47835  0.19560  0.62683  1.0000
  C   C827      1.0  0.43634  0.05612  0.91685  1.0000
  S   S258      1.0  0.47414  0.18406  0.59539  1.0000
  C   C828      1.0  0.26180  0.02612  0.65670  1.0000
  Fe  Fe129     1.0  0.46405  0.19337  0.67878  1.0000
  S   S259      1.0  0.43794  0.18523  0.70385  1.0000
  S   S260      1.0  0.46471  0.21193  0.64574  1.0000
  S   S261      1.0  0.24305  0.99951  0.76733  1.0000
  H   H1424     1.0  0.35919  0.03526  0.52795  1.0000
  H   H1425     1.0  0.35181  0.20544  0.93667  1.0000
  C   C829      1.0  0.25422  0.01974  0.68056  1.0000
  H   H1426     1.0  0.48111  0.32379  0.95089  1.0000
  H   H1427     1.0  0.38665  0.03008  0.92078  1.0000
  C   C830      1.0  0.40302  0.10432  0.92762  1.0000
  C   C831      1.0  0.41833  0.11235  0.91100  1.0000
  C   C832      1.0  0.43419  0.11235  0.91691  1.0000
  C   C833      1.0  0.43482  0.10414  0.93931  1.0000
  C   C834      1.0  0.41952  0.09633  0.95600  1.0000
  C   C835      1.0  0.40367  0.09655  0.95020  1.0000
  H   H1428     1.0  0.41794  0.11830  0.89352  1.0000
  H   H1429     1.0  0.44602  0.11850  0.90396  1.0000
  H   H1430     1.0  0.43560  0.06643  0.90241  1.0000
  C   C836      1.0  0.42518  0.15380  0.77935  1.0000
  C   C837      1.0  0.44180  0.15728  0.76542  1.0000
  C   C838      1.0  0.44591  0.16676  0.74218  1.0000
  C   C839      1.0  0.43334  0.17272  0.73264  1.0000
  C   C840      1.0  0.41670  0.16918  0.74651  1.0000
  C   C841      1.0  0.41264  0.15983  0.76980  1.0000
  H   H1431     1.0  0.45155  0.15263  0.77270  1.0000
  H   H1432     1.0  0.45877  0.16944  0.73171  1.0000
  H   H1433     1.0  0.40692  0.17382  0.73929  1.0000
  H   H1434     1.0  0.39981  0.15721  0.78035  1.0000
  C   C842      1.0  0.32461  0.08972  0.82731  1.0000
  C   C843      1.0  0.31242  0.07331  0.83453  1.0000
  C   C844      1.0  0.30504  0.06500  0.81843  1.0000
  C   C845      1.0  0.30930  0.07326  0.79482  1.0000
  C   C846      1.0  0.32162  0.08958  0.78752  1.0000
  C   C847      1.0  0.32933  0.09768  0.80356  1.0000
  H   H1435     1.0  0.30869  0.06696  0.85280  1.0000
  H   H1436     1.0  0.29600  0.05227  0.82435  1.0000
  H   H1437     1.0  0.32517  0.09612  0.76935  1.0000
  H   H1438     1.0  0.33854  0.11035  0.79767  1.0000
  H   H1439     1.0  0.44295  0.15625  0.91467  1.0000
  C   C848      1.0  0.42562  0.16715  0.56690  1.0000
  C   C849      1.0  0.43977  0.16043  0.56156  1.0000
  C   C850      1.0  0.45449  0.16582  0.57035  1.0000
  C   C851      1.0  0.45525  0.17787  0.58470  1.0000
  C   C852      1.0  0.44116  0.18469  0.58990  1.0000
  C   C853      1.0  0.42644  0.17933  0.58108  1.0000
  H   H1440     1.0  0.43936  0.15108  0.55067  1.0000
  H   H1441     1.0  0.46538  0.16057  0.56604  1.0000
  H   H1442     1.0  0.44169  0.19429  0.60042  1.0000
  H   H1443     1.0  0.41562  0.18470  0.58521  1.0000
  C   C854      1.0  0.32927  0.08113  0.53772  1.0000
  C   C855      1.0  0.33200  0.07792  0.51540  1.0000
  C   C856      1.0  0.32030  0.06431  0.51004  1.0000
  C   C857      1.0  0.30590  0.05355  0.52695  1.0000
  C   C858      1.0  0.30321  0.05672  0.54929  1.0000
  C   C859      1.0  0.31478  0.07051  0.55456  1.0000
  H   H1444     1.0  0.34294  0.08611  0.50221  1.0000
  H   H1445     1.0  0.32233  0.06209  0.49265  1.0000
  H   H1446     1.0  0.29217  0.04861  0.56246  1.0000
  H   H1447     1.0  0.31246  0.07293  0.57184  1.0000
  C   C860      1.0  0.44242  0.30931  0.92455  1.0000
  C   C861      1.0  0.38788  0.01323  0.95184  1.0000
  C   C862      1.0  0.46148  0.22216  0.73744  1.0000
  S   S262      1.0  0.39235  0.25484  0.95595  1.0000
  H   H1448     1.0  0.44857  0.14070  0.94955  1.0000
  H   H1449     1.0  0.37267  0.05802  0.54448  1.0000
  H   H1450     1.0  0.40555  0.17378  0.95607  1.0000
  H   H1451     1.0  0.42251  0.03026  0.93614  1.0000
  C   C863      1.0  0.32748  0.20271  0.92698  1.0000
  C   C864      1.0  0.24313  0.00161  0.64703  1.0000
  C   C865      1.0  0.38418  0.19738  0.94201  1.0000
  C   C866      1.0  0.38770  0.20956  0.92087  1.0000
  C   C867      1.0  0.38421  0.20401  0.90073  1.0000
  C   C868      1.0  0.37747  0.18622  0.90133  1.0000
  C   C869      1.0  0.37363  0.17413  0.92258  1.0000
  C   C870      1.0  0.37685  0.17970  0.94276  1.0000
  H   H1452     1.0  0.39329  0.22322  0.91996  1.0000
  H   H1453     1.0  0.38705  0.21352  0.88446  1.0000
  H   H1454     1.0  0.36810  0.16046  0.92345  1.0000
  H   H1455     1.0  0.44241  0.29249  0.84675  1.0000
  H   H1456     1.0  0.44678  0.27441  0.73318  1.0000
  N   N61       1.0  0.30162  0.08062  0.69514  1.0000
  C   C871      1.0  0.28555  0.08264  0.68718  1.0000
  C   C872      1.0  0.31683  0.08924  0.67504  1.0000
  C   C873      1.0  0.30391  0.08904  0.71526  1.0000
  C   C874      1.0  0.30009  0.06145  0.70304  1.0000
  C   C875      1.0  0.26895  0.07793  0.70633  1.0000
  C   C876      1.0  0.31860  0.07958  0.65511  1.0000
  C   C877      1.0  0.30517  0.10875  0.71060  1.0000
  C   C878      1.0  0.31578  0.05668  0.71082  1.0000
  H   H1457     1.0  0.28724  0.09622  0.67741  1.0000
  H   H1458     1.0  0.28273  0.07428  0.67469  1.0000
  H   H1459     1.0  0.32912  0.09140  0.68090  1.0000
  H   H1460     1.0  0.31629  0.10260  0.66705  1.0000
  H   H1461     1.0  0.29335  0.08236  0.73082  1.0000
  H   H1462     1.0  0.31579  0.08744  0.72096  1.0000
  H   H1463     1.0  0.28909  0.05550  0.71820  1.0000
  H   H1464     1.0  0.29665  0.05407  0.68978  1.0000
  H   H1465     1.0  0.26950  0.08687  0.71836  1.0000
  H   H1466     1.0  0.25802  0.07905  0.69805  1.0000
  H   H1467     1.0  0.26578  0.06430  0.71633  1.0000
  H   H1468     1.0  0.32931  0.08777  0.64056  1.0000
  H   H1469     1.0  0.32181  0.06706  0.66060  1.0000
  H   H1470     1.0  0.30684  0.07713  0.64813  1.0000
  H   H1471     1.0  0.30587  0.11319  0.72698  1.0000
  H   H1472     1.0  0.29380  0.11182  0.70501  1.0000
  H   H1473     1.0  0.31703  0.11641  0.69756  1.0000
  H   H1474     1.0  0.31467  0.05596  0.72971  1.0000
  H   H1475     1.0  0.32823  0.06586  0.70136  1.0000
  H   H1476     1.0  0.43151  0.99840  0.95492  1.0000
  C   C879      1.0  0.32025  0.21963  0.96900  1.0000
  H   H1477     1.0  0.45654  0.22244  0.69491  1.0000
  H   H1478     1.0  0.45978  0.32494  0.95373  1.0000
  H   H1479     1.0  0.41127  0.03709  0.96937  1.0000
  C   C880      1.0  0.39555  0.13652  0.96671  1.0000
  H   H1480     1.0  0.26241  0.02211  0.62179  1.0000
  H   H1481     1.0  0.37222  0.24503  0.47726  1.0000
  H   H1482     1.0  0.41717  0.03604  0.90925  1.0000
  H   H1483     1.0  0.45443  0.24807  0.75125  1.0000
  H   H1484     1.0  0.35539  0.15310  0.48608  1.0000
  H   H1485     1.0  0.24772  0.04711  0.81558  1.0000
  H   H1486     1.0  0.38637  0.07831  0.52574  1.0000
  H   H1487     1.0  0.32806  0.17316  0.47816  1.0000
  N   N62       1.0  0.25026  0.06068  0.84326  1.0000
  H   H1488     1.0  0.48367  0.23992  0.69582  1.0000
  C   C881      1.0  0.24091  0.00433  0.68755  1.0000
  H   H1489     1.0  0.45073  0.15953  0.96234  1.0000
  C   C882      1.0  0.38656  0.29199  0.50593  1.0000
  H   H1490     1.0  0.33628  0.23651  0.92463  1.0000
  H   H1491     1.0  0.47819  0.99965  0.93650  1.0000
  C   C883      1.0  0.34479  0.23632  0.93715  1.0000
  H   H1492     1.0  0.46998  0.22612  0.74915  1.0000
  H   H1493     1.0  0.32071  0.14958  0.51979  1.0000
  H   H1494     1.0  0.47870  0.31687  0.59950  1.0000
  C   C884      1.0  0.44694  0.24459  0.68473  1.0000
  C   C885      1.0  0.40206  0.06265  0.92394  1.0000
  C   C886      1.0  0.45132  0.24880  0.73381  1.0000
  H   H1495     1.0  0.42697  0.30459  0.85395  1.0000
  H   H1496     1.0  0.41199  0.17550  0.88721  1.0000
  C   C887      1.0  0.25788  0.03248  0.86129  1.0000
  C   C888      1.0  0.38870  0.05498  0.51225  1.0000
  H   H1497     1.0  0.37379  0.17016  0.95904  1.0000
  H   H1498     1.0  0.32640  0.18961  0.92304  1.0000
  H   H1499     1.0  0.31430  0.20382  0.93306  1.0000
  C   C889      1.0  0.38822  0.03150  0.93845  1.0000
  H   H1500     1.0  0.31647  0.04376  0.70732  1.0000
  H   H1501     1.0  0.38955  0.04168  0.52005  1.0000
  H   H1502     1.0  0.39062  0.06590  0.93316  1.0000
  C   C890      1.0  0.41961  0.04118  0.92470  1.0000
  C   C891      1.0  0.25636  0.01710  0.64004  1.0000
  H   H1503     1.0  0.25137  0.01853  0.86947  1.0000
  H   H1504     1.0  0.41790  0.17535  0.63797  1.0000
  H   H1505     1.0  0.31315  0.22486  0.95637  1.0000
  H   H1506     1.0  0.43728  0.25099  0.69203  1.0000
  H   H1507     1.0  0.28055  0.09009  0.81994  1.0000
  H   H1508     1.0  0.44449  0.13385  0.61281  1.0000
  H   H1509     1.0  0.43968  0.17978  0.64212  1.0000
  H   H1510     1.0  0.34632  0.12175  0.49772  1.0000
  H   H1511     1.0  0.26441  0.09811  0.83679  1.0000
  Fe  Fe130     1.0  0.26778  0.99924  0.77864  1.0000
  C   C892      1.0  0.39972  0.06332  0.89884  1.0000
  H   H1512     1.0  0.39404  0.18784  0.47557  1.0000
  H   H1513     1.0  0.36357  0.22236  0.96243  1.0000
  C   C893      1.0  0.35818  0.04480  0.51268  1.0000
  H   H1514     1.0  0.45377  0.27136  0.70476  1.0000
  H   H1515     1.0  0.45978  0.31451  0.81602  1.0000
  H   H1516     1.0  0.29969  0.11054  0.49750  1.0000
  C   C894      1.0  0.47674  0.01304  0.93641  1.0000
  H   H1517     1.0  0.44716  0.05085  0.91024  1.0000
  C   C895      1.0  0.32472  0.13771  0.51700  1.0000
  H   H1518     1.0  0.28337  0.09599  0.84634  1.0000
  H   H1519     1.0  0.39920  0.15852  0.92669  1.0000
  H   H1520     1.0  0.46738  0.21348  0.72799  1.0000
  H   H1521     1.0  0.46351  0.13654  0.62365  1.0000
  H   H1522     1.0  0.38954  0.01312  0.96975  1.0000
  S   S263      1.0  0.47598  0.17612  0.65968  1.0000
  H   H1523     1.0  0.45884  0.25439  0.67448  1.0000
  H   H1524     1.0  0.26044  0.07157  0.87002  1.0000
  H   H1525     1.0  0.37913  0.29774  0.51837  1.0000
  H   H1526     1.0  0.43710  0.22269  0.71305  1.0000
  H   H1527     1.0  0.27202  0.03809  0.65101  1.0000
  N   N63       1.0  0.46022  0.23788  0.72052  1.0000
  H   H1528     1.0  0.34296  0.04131  0.48568  1.0000
  C   C896      1.0  0.44445  0.21075  0.75399  1.0000
  H   H1529     1.0  0.41760  0.11813  0.62338  1.0000
  H   H1530     1.0  0.47813  0.25974  0.69479  1.0000
  H   H1531     1.0  0.41397  0.14897  0.91195  1.0000
  H   H1532     1.0  0.33632  0.13795  0.52441  1.0000
  H   H1533     1.0  0.40337  0.12859  0.61066  1.0000
  S   S264      1.0  0.42196  0.09871  0.49348  1.0000
  C   C897      1.0  0.26482  0.07103  0.85156  1.0000
  C   C898      1.0  0.25613  0.05900  0.81866  1.0000
  H   H1534     1.0  0.47264  0.11099  0.48618  1.0000
  C   C899      1.0  0.45009  0.23102  0.70383  1.0000
  C   C900      1.0  0.33839  0.20465  0.94531  1.0000
  H   H1535     1.0  0.37979  0.02984  0.48911  1.0000
  C   C901      1.0  0.24416  0.04264  0.85909  1.0000
  H   H1536     1.0  0.25706  0.08697  0.80339  1.0000
  C   C902      1.0  0.44936  0.31903  0.82569  1.0000
  H   H1537     1.0  0.39185  0.09059  0.96320  1.0000
  H   H1538     1.0  0.43711  0.24346  0.73738  1.0000
  H   H1539     1.0  0.27546  0.06463  0.85127  1.0000
  H   H1540     1.0  0.26924  0.05698  0.81592  1.0000
  C   C903      1.0  0.41503  0.14179  0.95601  1.0000
  C   C904      1.0  0.47412  0.01445  0.96207  1.0000
  C   C905      1.0  0.25626  0.07423  0.79879  1.0000
  S   S265      1.0  0.24351  0.01995  0.56242  1.0000
  C   C906      1.0  0.38056  0.04335  0.47982  1.0000
  H   H1541     1.0  0.43505  0.20468  0.74475  1.0000
  Fe  Fe131     1.0  0.41826  0.26868  0.96030  1.0000
  H   H1542     1.0  0.38789  0.13405  0.95354  1.0000
  N   N64       1.0  0.33803  0.21998  0.95641  1.0000
  H   H1543     1.0  0.41770  0.13180  0.94646  1.0000
  H   H1544     1.0  0.26764  0.07626  0.78450  1.0000
  C   C907      1.0  0.43048  0.31688  0.93557  1.0000
  H   H1545     1.0  0.28858  0.00109  0.70896  1.0000
  H   H1546     1.0  0.30939  0.12324  0.55100  1.0000
  H   H1547     1.0  0.32589  0.10975  0.49686  1.0000
  H   H1548     1.0  0.44719  0.19978  0.76547  1.0000
  H   H1549     1.0  0.33380  0.21236  0.91035  1.0000
  H   H1550     1.0  0.41888  0.30867  0.94762  1.0000
  H   H1551     1.0  0.41695  0.18850  0.90718  1.0000
  S   S266      1.0  0.38905  0.20332  0.96780  1.0000
  C   C908      1.0  0.41942  0.17700  0.90085  1.0000
  N   N65       1.0  0.37578  0.05390  0.49709  1.0000
  C   C909      1.0  0.37655  0.07230  0.48536  1.0000
  H   H1552     1.0  0.47571  0.04471  0.91967  1.0000
  H   H1553     1.0  0.47083  0.08825  0.49413  1.0000
  C   C910      1.0  0.38530  0.06429  0.53232  1.0000
  H   H1554     1.0  0.33428  0.19205  0.95823  1.0000
  H   H1555     1.0  0.48568  0.25808  0.73674  1.0000
  H   H1556     1.0  0.47173  0.29469  0.95304  1.0000
  H   H1557     1.0  0.44759  0.17665  0.92277  1.0000
  H   H1558     1.0  0.44528  0.11903  0.63913  1.0000
  C   C911      1.0  0.45744  0.32012  0.90899  1.0000
  S   S267      1.0  0.25217  0.00046  0.52020  1.0000
  H   H1559     1.0  0.44139  0.23769  0.67222  1.0000
  C   C912      1.0  0.44089  0.30550  0.84883  1.0000
  H   H1560     1.0  0.40825  0.28067  0.48171  1.0000
  H   H1561     1.0  0.41948  0.10882  0.70315  1.0000
  H   H1562     1.0  0.38983  0.31262  0.47671  1.0000
  H   H1563     1.0  0.39013  0.08007  0.47813  1.0000
  H   H1564     1.0  0.47947  0.02736  0.89035  1.0000
  H   H1565     1.0  0.41292  0.07384  0.92359  1.0000
  H   H1566     1.0  0.40544  0.07688  0.88827  1.0000
  C   C913      1.0  0.37531  0.25734  0.48338  1.0000
  Fe  Fe132     1.0  0.24056  0.01801  0.79127  1.0000
  H   H1567     1.0  0.35228  0.05425  0.52031  1.0000
  H   H1568     1.0  0.36459  0.25691  0.49781  1.0000
  C   C914      1.0  0.33568  0.12219  0.48854  1.0000
  H   H1569     1.0  0.43959  0.06208  0.93132  1.0000
  N   N66       1.0  0.40407  0.04574  0.93694  1.0000
  H   H1570     1.0  0.38586  0.05950  0.89862  1.0000
  N   N67       1.0  0.42229  0.15966  0.94007  1.0000
  H   H1571     1.0  0.34082  0.17371  0.50011  1.0000
  H   H1572     1.0  0.35308  0.06881  0.47168  1.0000
  C   C915      1.0  0.31385  0.13866  0.48065  1.0000
  S   S268      1.0  0.45490  0.10424  0.94599  1.0000
  C   C916      1.0  0.41934  0.17399  0.95203  1.0000
  C   C917      1.0  0.40653  0.04782  0.96074  1.0000
  H   H1573     1.0  0.42546  0.18701  0.94014  1.0000
  C   C918      1.0  0.47927  0.10085  0.48309  1.0000
  H   H1574     1.0  0.44884  0.15844  0.63172  1.0000
  H   H1575     1.0  0.45092  0.14545  0.65741  1.0000
  C   C919      1.0  0.45195  0.15520  0.94583  1.0000
  C   C920      1.0  0.34645  0.25387  0.94466  1.0000
  N   N68       1.0  0.32903  0.13782  0.49147  1.0000
  H   H1576     1.0  0.29748  0.12306  0.52889  1.0000
  H   H1577     1.0  0.46680  0.31433  0.90060  1.0000
  H   H1578     1.0  0.39532  0.06379  0.54253  1.0000
  H   H1579     1.0  0.34798  0.02185  0.49924  1.0000
  H   H1580     1.0  0.42248  0.13123  0.70358  1.0000
  H   H1581     1.0  0.42298  0.18337  0.66233  1.0000
  H   H1582     1.0  0.37120  0.07913  0.49823  1.0000
  H   H1583     1.0  0.43945  0.12377  0.68790  1.0000
  H   H1584     1.0  0.39668  0.11677  0.64031  1.0000
  N   N69       1.0  0.42473  0.14179  0.65336  1.0000
  C   C921      1.0  0.42222  0.15588  0.66614  1.0000
  C   C922      1.0  0.41771  0.12444  0.67063  1.0000
  C   C923      1.0  0.41488  0.14260  0.63425  1.0000
  C   C924      1.0  0.44371  0.14529  0.64342  1.0000
  C   C925      1.0  0.42594  0.17450  0.65095  1.0000
  C   C926      1.0  0.42541  0.12226  0.69236  1.0000
  C   C927      1.0  0.40791  0.12544  0.62693  1.0000
  C   C928      1.0  0.44924  0.13273  0.62906  1.0000
  H   H1585     1.0  0.40879  0.15255  0.67663  1.0000
  H   H1586     1.0  0.43069  0.15706  0.67870  1.0000
  H   H1587     1.0  0.41945  0.11349  0.66245  1.0000
  H   H1588     1.0  0.40357  0.12198  0.67700  1.0000
  H   H1589     1.0  0.40328  0.14732  0.63928  1.0000
  H   H1590     1.0  0.42285  0.15224  0.61832  1.0000
  H   H1591     1.0  0.37642  0.03490  0.94632  1.0000
  C   C929      1.0  0.47067  0.32709  0.96237  1.0000
  H   H1592     1.0  0.43122  0.32856  0.87132  1.0000
  H   H1593     1.0  0.34955  0.26462  0.92894  1.0000
  H   H1594     1.0  0.43840  0.21809  0.76546  1.0000
  H   H1595     1.0  0.46928  0.02587  0.96478  1.0000
  C   C930      1.0  0.44119  0.16249  0.92978  1.0000
  H   H1596     1.0  0.43316  0.17964  0.89229  1.0000
  C   C931      1.0  0.30061  0.12113  0.48252  1.0000
  C   C932      1.0  0.45552  0.26853  0.72273  1.0000
  H   H1597     1.0  0.35767  0.23669  0.92690  1.0000
  C   C933      1.0  0.34032  0.17162  0.48244  1.0000
  C   C934      1.0  0.38372  0.29825  0.48144  1.0000
  H   H1598     1.0  0.46880  0.27547  0.72289  1.0000
  C   C935      1.0  0.34358  0.15390  0.47972  1.0000
  C   C936      1.0  0.47815  0.24776  0.70707  1.0000
  H   H1599     1.0  0.23818  0.04320  0.87703  1.0000
  H   H1600     1.0  0.40184  0.06215  0.50192  1.0000
  H   H1601     1.0  0.33442  0.25453  0.95583  1.0000
  H   H1602     1.0  0.47902  0.31737  0.84031  1.0000
  H   H1603     1.0  0.24495  0.07072  0.79106  1.0000
  C   C937      1.0  0.31012  0.12236  0.53260  1.0000
  H   H1604     1.0  0.28761  0.12337  0.48416  1.0000
  H   H1605     1.0  0.23884  0.08243  0.83580  1.0000
  H   H1606     1.0  0.39777  0.00796  0.94255  1.0000
  H   H1607     1.0  0.46573  0.15976  0.93677  1.0000
  H   H1608     1.0  0.38698  0.25717  0.49013  1.0000
  H   H1609     1.0  0.31232  0.10946  0.53160  1.0000
  H   H1610     1.0  0.30674  0.14740  0.48805  1.0000
  H   H1611     1.0  0.40027  0.29676  0.50652  1.0000
  H   H1612     1.0  0.38219  0.27768  0.51234  1.0000
  H   H1613     1.0  0.43954  0.31773  0.81502  1.0000
  H   H1614     1.0  0.41674  0.05989  0.95941  1.0000
  H   H1615     1.0  0.35715  0.25679  0.95355  1.0000
  H   H1616     1.0  0.36967  0.29676  0.48337  1.0000
  H   H1617     1.0  0.44698  0.30800  0.86337  1.0000
  H   H1618     1.0  0.37523  0.00404  0.95321  1.0000
  H   H1619     1.0  0.40891  0.04949  0.47297  1.0000
  C   C938      1.0  0.34471  0.03404  0.50209  1.0000
  H   H1620     1.0  0.43801  0.07487  0.47400  1.0000
  H   H1621     1.0  0.43981  0.18260  0.96995  1.0000
  Fe  Fe133     1.0  0.26415  0.38788  0.35921  1.0000
  S   S269      1.0  0.26149  0.35854  0.36662  1.0000
  Fe  Fe134     1.0  0.28329  0.42318  0.36748  1.0000
  S   S270      1.0  0.26786  0.43748  0.34747  1.0000
  S   S271      1.0  0.30706  0.44057  0.37496  1.0000
  Fe  Fe135     1.0  0.27182  0.42120  0.32134  1.0000
  S   S272      1.0  0.28338  0.43101  0.28246  1.0000
  S   S273      1.0  0.25997  0.40181  0.38856  1.0000
  S   S274      1.0  0.28854  0.40804  0.34014  1.0000
  C   C939      1.0  0.43009  0.63451  0.30223  1.0000
  S   S275      1.0  0.25440  0.40874  0.00737  1.0000
  Fe  Fe136     1.0  0.26580  0.52076  0.13314  1.0000
  S   S276      1.0  0.28887  0.51932  0.10781  1.0000
  S   S277      1.0  0.25086  0.53964  0.12067  1.0000
  Fe  Fe137     1.0  0.27250  0.49555  0.17247  1.0000
  S   S278      1.0  0.29623  0.49246  0.15010  1.0000
  S   S279      1.0  0.25901  0.48238  0.20995  1.0000
  Fe  Fe138     1.0  0.30286  0.52173  0.13681  1.0000
  S   S280      1.0  0.32925  0.54176  0.12511  1.0000
  Fe  Fe139     1.0  0.28031  0.49041  0.12289  1.0000
  S   S281      1.0  0.28045  0.46836  0.10351  1.0000
  S   S282      1.0  0.28016  0.52491  0.16114  1.0000
  S   S283      1.0  0.25624  0.49174  0.14620  1.0000
  S   S284      1.0  0.45554  0.59751  0.41344  1.0000
  H   H1622     1.0  0.38618  0.39098  0.44996  1.0000
  C   C940      1.0  0.25151  0.33093  0.00586  1.0000
  H   H1623     1.0  0.45975  0.55031  0.44951  1.0000
  H   H1624     1.0  0.39300  0.44150  0.44191  1.0000
  C   C941      1.0  0.30119  0.34167  0.31457  1.0000
  C   C942      1.0  0.39541  0.40120  0.45491  1.0000
  S   S285      1.0  0.45494  0.60431  0.02164  1.0000
  Fe  Fe140     1.0  0.44359  0.61469  0.15071  1.0000
  S   S286      1.0  0.42168  0.62600  0.14412  1.0000
  S   S287      1.0  0.46350  0.60870  0.12396  1.0000
  Fe  Fe141     1.0  0.43260  0.60916  0.20362  1.0000
  S   S288      1.0  0.40982  0.61979  0.20044  1.0000
  S   S289      1.0  0.43449  0.59753  0.24035  1.0000
  Fe  Fe142     1.0  0.40517  0.60384  0.17373  1.0000
  S   S290      1.0  0.37862  0.58431  0.17943  1.0000
  Fe  Fe143     1.0  0.42825  0.64089  0.17142  1.0000
  S   S291      1.0  0.42690  0.59191  0.17887  1.0000
  S   S292      1.0  0.45129  0.63103  0.17602  1.0000
  H   H1625     1.0  0.44818  0.49861  0.41311  1.0000
  H   H1626     1.0  0.47940  0.65929  0.25909  1.0000
  H   H1627     1.0  0.48589  0.65870  0.38252  1.0000
  C   C943      1.0  0.45842  0.60659  0.04936  1.0000
  C   C944      1.0  0.44763  0.61404  0.06300  1.0000
  C   C945      1.0  0.44948  0.61538  0.08554  1.0000
  C   C946      1.0  0.46182  0.60882  0.09491  1.0000
  H   H1628     1.0  0.38516  0.53328  0.15507  1.0000
  C   C947      1.0  0.47109  0.60047  0.05846  1.0000
  H   H1629     1.0  0.43788  0.61892  0.05604  1.0000
  H   H1630     1.0  0.44127  0.62137  0.09573  1.0000
  H   H1631     1.0  0.25727  0.48475  0.08074  1.0000
  H   H1632     1.0  0.24026  0.45910  0.18411  1.0000
  C   C948      1.0  0.46921  0.52978  0.38851  1.0000
  H   H1633     1.0  0.24791  0.45251  0.14404  1.0000
  H   H1634     1.0  0.30946  0.48647  0.04103  1.0000
  H   H1635     1.0  0.28444  0.43180  0.01606  1.0000
  H   H1636     1.0  0.31409  0.35093  0.31057  1.0000
  C   C949      1.0  0.46705  0.61587  0.24205  1.0000
  C   C950      1.0  0.45165  0.60364  0.25401  1.0000
  C   C951      1.0  0.44947  0.59648  0.27784  1.0000
  C   C952      1.0  0.46232  0.60191  0.28980  1.0000
  H   H1637     1.0  0.26230  0.33188  0.99198  1.0000
  H   H1638     1.0  0.46895  0.62133  0.22367  1.0000
  H   H1639     1.0  0.43759  0.58696  0.28720  1.0000
  C   C953      1.0  0.43969  0.57813  0.41566  1.0000
  C   C954      1.0  0.43673  0.57241  0.39573  1.0000
  C   C955      1.0  0.42490  0.55637  0.39773  1.0000
  C   C956      1.0  0.41601  0.54589  0.41963  1.0000
  C   C957      1.0  0.41870  0.55173  0.43962  1.0000
  C   C958      1.0  0.43045  0.56791  0.43760  1.0000
  H   H1640     1.0  0.44360  0.58031  0.37874  1.0000
  H   H1641     1.0  0.42275  0.55197  0.38223  1.0000
  C   C959      1.0  0.47273  0.60154  0.08118  1.0000
  H   H1642     1.0  0.43380  0.33460  0.00473  1.0000
  C   C960      1.0  0.34252  0.55351  0.14076  1.0000
  C   C961      1.0  0.34024  0.54864  0.16489  1.0000
  C   C962      1.0  0.35140  0.55824  0.17631  1.0000
  C   C963      1.0  0.36487  0.57292  0.16388  1.0000
  C   C964      1.0  0.36672  0.57810  0.13984  1.0000
  C   C965      1.0  0.35581  0.56831  0.12836  1.0000
  H   H1643     1.0  0.33004  0.53735  0.17473  1.0000
  H   H1644     1.0  0.34964  0.55422  0.19495  1.0000
  H   H1645     1.0  0.37635  0.58979  0.13007  1.0000
  H   H1646     1.0  0.35753  0.57238  0.10974  1.0000
  C   C966      1.0  0.30700  0.45368  0.99764  1.0000
  H   H1647     1.0  0.43263  0.57232  0.45308  1.0000
  N   N70       1.0  0.37296  0.41881  0.46242  1.0000
  C   C967      1.0  0.25789  0.47304  0.07460  1.0000
  C   C968      1.0  0.26807  0.46273  0.08304  1.0000
  C   C969      1.0  0.26867  0.44755  0.07479  1.0000
  C   C970      1.0  0.25927  0.44274  0.05827  1.0000
  H   H1648     1.0  0.27647  0.43944  0.08119  1.0000
  H   H1649     1.0  0.25978  0.43098  0.05221  1.0000
  H   H1650     1.0  0.47357  0.33381  0.28062  1.0000
  H   H1651     1.0  0.47645  0.49853  0.42007  1.0000
  Fe  Fe144     1.0  0.24491  0.41517  0.36667  1.0000
  C   C971      1.0  0.31373  0.44429  0.40075  1.0000
  C   C972      1.0  0.30425  0.43507  0.42295  1.0000
  C   C973      1.0  0.31020  0.43850  0.44280  1.0000
  C   C974      1.0  0.32558  0.45129  0.44077  1.0000
  C   C975      1.0  0.33507  0.46050  0.41857  1.0000
  C   C976      1.0  0.32922  0.45694  0.39873  1.0000
  H   H1652     1.0  0.29236  0.42529  0.42482  1.0000
  H   H1653     1.0  0.34692  0.47035  0.41669  1.0000
  H   H1654     1.0  0.33674  0.46408  0.38169  1.0000
  C   C977      1.0  0.27649  0.44548  0.26270  1.0000
  C   C978      1.0  0.28694  0.45283  0.24029  1.0000
  C   C979      1.0  0.28190  0.46436  0.22400  1.0000
  C   C980      1.0  0.26626  0.46845  0.22995  1.0000
  C   C981      1.0  0.25587  0.46116  0.25238  1.0000
  C   C982      1.0  0.26096  0.44975  0.26873  1.0000
  H   H1655     1.0  0.29900  0.44960  0.23554  1.0000
  H   H1656     1.0  0.29010  0.47009  0.20690  1.0000
  H   H1657     1.0  0.48292  0.55334  0.44254  1.0000
  H   H1658     1.0  0.25280  0.44414  0.28591  1.0000
  S   S293      1.0  0.23753  0.44817  0.02824  1.0000
  H   H1659     1.0  0.35107  0.49910  0.25480  1.0000
  H   H1660     1.0  0.32330  0.49278  0.01284  1.0000
  H   H1661     1.0  0.43467  0.35965  0.42539  1.0000
  H   H1662     1.0  0.33401  0.33638  0.30853  1.0000
  H   H1663     1.0  0.34031  0.46105  0.30345  1.0000
  H   H1664     1.0  0.26909  0.41505  0.15495  1.0000
  H   H1665     1.0  0.24727  0.42707  0.12170  1.0000
  C   C983      1.0  0.44207  0.33555  0.42895  1.0000
  C   C984      1.0  0.28190  0.46268  0.98921  1.0000
  H   H1666     1.0  0.45160  0.62301  0.44647  1.0000
  C   C985      1.0  0.25583  0.34368  0.30625  1.0000
  H   H1667     1.0  0.33533  0.49546  0.33132  1.0000
  H   H1668     1.0  0.45492  0.64132  0.42232  1.0000
  H   H1669     1.0  0.43049  0.49827  0.43447  1.0000
  H   H1670     1.0  0.44197  0.52783  0.38753  1.0000
  N   N71       1.0  0.29592  0.58054  0.13279  1.0000
  C   C986      1.0  0.28001  0.57631  0.15207  1.0000
  C   C987      1.0  0.30954  0.57420  0.14307  1.0000
  C   C988      1.0  0.29134  0.57033  0.11499  1.0000
  C   C989      1.0  0.30131  0.59996  0.12238  1.0000
  C   C990      1.0  0.26410  0.58107  0.14505  1.0000
  C   C991      1.0  0.31368  0.58119  0.16434  1.0000
  C   C992      1.0  0.30566  0.57232  0.09359  1.0000
  C   C993      1.0  0.32060  0.60837  0.11126  1.0000
  H   H1671     1.0  0.27606  0.56211  0.16058  1.0000
  H   H1672     1.0  0.28256  0.58330  0.16599  1.0000
  H   H1673     1.0  0.32182  0.57738  0.13004  1.0000
  H   H1674     1.0  0.30575  0.55969  0.14859  1.0000
  H   H1675     1.0  0.28652  0.55613  0.12324  1.0000
  H   H1676     1.0  0.28068  0.57395  0.10782  1.0000
  H   H1677     1.0  0.29405  0.60321  0.10890  1.0000
  H   H1678     1.0  0.29791  0.60737  0.13571  1.0000
  H   H1679     1.0  0.25416  0.57946  0.16103  1.0000
  H   H1680     1.0  0.26702  0.59478  0.13525  1.0000
  H   H1681     1.0  0.29238  0.34927  0.30872  1.0000
  S   S294      1.0  0.33253  0.45488  0.46642  1.0000
  H   H1682     1.0  0.32646  0.57968  0.16667  1.0000
  H   H1683     1.0  0.42573  0.63255  0.25526  1.0000
  H   H1684     1.0  0.31750  0.56970  0.09809  1.0000
  H   H1685     1.0  0.30849  0.58530  0.08169  1.0000
  H   H1686     1.0  0.30100  0.56254  0.08367  1.0000
  H   H1687     1.0  0.32845  0.60882  0.12453  1.0000
  H   H1688     1.0  0.32231  0.62212  0.10222  1.0000
  H   H1689     1.0  0.32598  0.60180  0.09824  1.0000
  H   H1690     1.0  0.40446  0.59520  0.13021  1.0000
  H   H1691     1.0  0.44100  0.57394  0.13250  1.0000
  H   H1692     1.0  0.34265  0.48844  0.29598  1.0000
  C   C994      1.0  0.25101  0.41690  0.13327  1.0000
  C   C995      1.0  0.25842  0.34609  0.34537  1.0000
  H   H1693     1.0  0.32050  0.48175  0.35676  1.0000
  H   H1694     1.0  0.39729  0.51708  0.15708  1.0000
  C   C996      1.0  0.47750  0.61454  0.27795  1.0000
  H   H1695     1.0  0.42550  0.56057  0.15679  1.0000
  H   H1696     1.0  0.42474  0.60350  0.99626  1.0000
  H   H1697     1.0  0.40359  0.57773  0.01577  1.0000
  H   H1698     1.0  0.45247  0.55160  0.15013  1.0000
  H   H1699     1.0  0.31406  0.59518  0.16249  1.0000
  C   C997      1.0  0.43415  0.34779  0.41919  1.0000
  H   H1700     1.0  0.29107  0.43517  0.16347  1.0000
  H   H1701     1.0  0.43136  0.45016  0.43479  1.0000
  H   H1702     1.0  0.25808  0.57215  0.13497  1.0000
  H   H1703     1.0  0.29492  0.45290  0.17736  1.0000
  H   H1704     1.0  0.44082  0.52794  0.42576  1.0000
  S   S295      1.0  0.38313  0.47860  0.45489  1.0000
  H   H1705     1.0  0.46566  0.34728  0.20064  1.0000
  N   N72       1.0  0.46829  0.53170  0.41322  1.0000
  C   C998      1.0  0.41870  0.45451  0.46708  1.0000
  C   C999      1.0  0.48531  0.62494  0.45305  1.0000
  N   N73       1.0  0.25507  0.43285  0.16700  1.0000
  C   C1000     1.0  0.47987  0.62134  0.25401  1.0000
  H   H1706     1.0  0.40362  0.39463  0.46425  1.0000
  S   S296      1.0  0.44569  0.42152  0.44647  1.0000
  H   H1707     1.0  0.24376  0.46430  0.25712  1.0000
  H   H1708     1.0  0.45656  0.54919  0.37373  1.0000
  H   H1709     1.0  0.46879  0.51626  0.38684  1.0000
  H   H1710     1.0  0.45890  0.64713  0.23590  1.0000
  C   C1001     1.0  0.31324  0.48186  0.02498  1.0000
  S   S297      1.0  0.24769  0.39996  0.33869  1.0000
  C   C1002     1.0  0.31356  0.46028  0.29941  1.0000
  H   H1711     1.0  0.25582  0.34991  0.28873  1.0000
  S   S298      1.0  0.45166  0.33803  0.45285  1.0000
  H   H1712     1.0  0.44214  0.64054  0.44997  1.0000
  N   N74       1.0  0.41457  0.58329  0.97886  1.0000
  H   H1713     1.0  0.40428  0.41033  0.43920  1.0000
  S   S299      1.0  0.40270  0.52511  0.42108  1.0000
  H   H1714     1.0  0.37764  0.56774  0.98742  1.0000
  H   H1715     1.0  0.23939  0.40696  0.14396  1.0000
  H   H1716     1.0  0.44933  0.49408  0.44334  1.0000
  H   H1717     1.0  0.25783  0.41259  0.19384  1.0000
  H   H1718     1.0  0.39875  0.55125  0.97154  1.0000
  H   H1719     1.0  0.31849  0.47063  0.03017  1.0000
  C   C1003     1.0  0.27245  0.47684  0.98307  1.0000
  H   H1720     1.0  0.25813  0.41033  0.12168  1.0000
  H   H1721     1.0  0.32344  0.44601  0.32641  1.0000
  H   H1722     1.0  0.43741  0.55626  0.09440  1.0000
  H   H1723     1.0  0.25013  0.35734  0.99335  1.0000
  Fe  Fe145     1.0  0.23814  0.42764  0.00624  1.0000
  H   H1724     1.0  0.30806  0.44812  0.98189  1.0000
  C   C1004     1.0  0.40018  0.59077  0.97290  1.0000
  H   H1725     1.0  0.24084  0.47644  0.05150  1.0000
  H   H1726     1.0  0.42618  0.57070  0.06276  1.0000
  C   C1005     1.0  0.29711  0.43851  0.01853  1.0000
  C   C1006     1.0  0.40890  0.53960  0.12794  1.0000
  N   N75       1.0  0.29949  0.46912  0.99384  1.0000
  H   H1727     1.0  0.29660  0.33685  0.33364  1.0000
  H   H1728     1.0  0.32880  0.44154  0.29818  1.0000
  H   H1729     1.0  0.47976  0.63296  0.41055  1.0000
  C   C1007     1.0  0.29729  0.47683  0.01494  1.0000
  C   C1008     1.0  0.38173  0.43177  0.43967  1.0000
  N   N76       1.0  0.31488  0.47904  0.30047  1.0000
  H   H1730     1.0  0.46034  0.59655  0.30821  1.0000
  C   C1009     1.0  0.31092  0.48079  0.32539  1.0000
  H   H1731     1.0  0.45147  0.52246  0.44750  1.0000
  H   H1732     1.0  0.27309  0.45302  0.00454  1.0000
  H   H1733     1.0  0.27430  0.48145  0.29047  1.0000
  H   H1734     1.0  0.30289  0.48226  0.27091  1.0000
  C   C1010     1.0  0.32736  0.45202  0.30751  1.0000
  H   H1735     1.0  0.48184  0.53778  0.37728  1.0000
  H   H1736     1.0  0.29281  0.48884  0.01127  1.0000
  H   H1737     1.0  0.28704  0.46767  0.02925  1.0000
  H   H1738     1.0  0.41099  0.64785  0.22863  1.0000
  C   C1011     1.0  0.42504  0.34440  0.40191  1.0000
  C   C1012     1.0  0.26919  0.44687  0.17097  1.0000
  H   H1739     1.0  0.26016  0.47068  0.97891  1.0000
  C   C1013     1.0  0.42419  0.65397  0.23013  1.0000
  H   H1740     1.0  0.33314  0.33420  0.27997  1.0000
  H   H1741     1.0  0.30113  0.45172  0.31037  1.0000
  C   C1014     1.0  0.47053  0.55085  0.41285  1.0000
  S   S300      1.0  0.48162  0.58861  0.35523  1.0000
  H   H1742     1.0  0.46624  0.64435  0.46815  1.0000
  C   C1015     1.0  0.25799  0.35388  0.32282  1.0000
  H   H1743     1.0  0.25960  0.36782  0.31799  1.0000
  C   C1016     1.0  0.45506  0.53491  0.37712  1.0000
  H   H1744     1.0  0.31298  0.45818  0.28170  1.0000
  H   H1745     1.0  0.40788  0.57182  0.08278  1.0000
  H   H1746     1.0  0.33241  0.50482  0.28828  1.0000
  C   C1017     1.0  0.44272  0.54761  0.14002  1.0000
  H   H1747     1.0  0.28264  0.45564  0.97484  1.0000
  C   C1018     1.0  0.43452  0.43245  0.46413  1.0000
  H   H1748     1.0  0.45637  0.64876  0.28816  1.0000
  H   H1749     1.0  0.30036  0.46946  0.33625  1.0000
  H   H1750     1.0  0.40423  0.53656  0.16636  1.0000
  H   H1751     1.0  0.30613  0.49256  0.32652  1.0000
  C   C1019     1.0  0.32580  0.48256  0.33811  1.0000
  H   H1752     1.0  0.30373  0.33290  0.28291  1.0000
  H   H1753     1.0  0.43312  0.65057  0.21658  1.0000
  H   H1754     1.0  0.27930  0.47905  0.31844  1.0000
  H   H1755     1.0  0.39938  0.53818  0.11680  1.0000
  C   C1020     1.0  0.39829  0.53130  0.15302  1.0000
  H   H1756     1.0  0.41725  0.53124  0.12249  1.0000
  C   C1021     1.0  0.45381  0.63737  0.44132  1.0000
  H   H1757     1.0  0.26890  0.48262  0.99805  1.0000
  H   H1758     1.0  0.30277  0.43128  0.45988  1.0000
  H   H1759     1.0  0.30349  0.49925  0.28630  1.0000
  H   H1760     1.0  0.45617  0.53142  0.35994  1.0000
  H   H1761     1.0  0.43486  0.53428  0.14927  1.0000
  C   C1022     1.0  0.48617  0.34817  0.23220  1.0000
  C   C1023     1.0  0.47180  0.55626  0.43603  1.0000
  C   C1024     1.0  0.31035  0.48283  0.97260  1.0000
  H   H1762     1.0  0.30447  0.42853  0.02009  1.0000
  H   H1763     1.0  0.32029  0.45757  0.00020  1.0000
  H   H1764     1.0  0.27349  0.43531  0.13492  1.0000
  C   C1025     1.0  0.33782  0.49053  0.26191  1.0000
  H   H1765     1.0  0.39736  0.55996  0.00323  1.0000
  C   C1026     1.0  0.24463  0.34538  0.00656  1.0000
  C   C1027     1.0  0.42201  0.56264  0.01134  1.0000
  H   H1766     1.0  0.44023  0.59372  0.98363  1.0000
  H   H1767     1.0  0.37864  0.45241  0.41324  1.0000
  C   C1028     1.0  0.26293  0.42516  0.14786  1.0000
  S   S301      1.0  0.46677  0.57453  0.98065  1.0000
  H   H1768     1.0  0.44981  0.54736  0.12264  1.0000
  H   H1769     1.0  0.41471  0.64675  0.26718  1.0000
  C   C1029     1.0  0.28264  0.47622  0.30105  1.0000
  H   H1770     1.0  0.36072  0.43364  0.42145  1.0000
  C   C1030     1.0  0.24925  0.45318  0.04962  1.0000
  H   H1771     1.0  0.41405  0.46495  0.45876  1.0000
  C   C1031     1.0  0.30162  0.48487  0.28865  1.0000
  H   H1772     1.0  0.27398  0.45786  0.15533  1.0000
  H   H1773     1.0  0.33600  0.48707  0.98154  1.0000
  C   C1032     1.0  0.45121  0.52173  0.42924  1.0000
  H   H1774     1.0  0.32959  0.49565  0.25111  1.0000
  H   H1775     1.0  0.42610  0.64448  0.31081  1.0000
  C   C1033     1.0  0.37039  0.44207  0.42830  1.0000
  H   H1776     1.0  0.30416  0.57349  0.18045  1.0000
  C   C1034     1.0  0.42853  0.44615  0.45354  1.0000
  H   H1777     1.0  0.48448  0.55339  0.31119  1.0000
  H   H1778     1.0  0.24485  0.42513  0.20448  1.0000
  N   N77       1.0  0.44249  0.65539  0.26152  1.0000
  H   H1779     1.0  0.38691  0.42522  0.42632  1.0000
  H   H1780     1.0  0.27927  0.46196  0.30253  1.0000
  C   C1035     1.0  0.33218  0.49105  0.28764  1.0000
  H   H1781     1.0  0.29557  0.44274  0.03517  1.0000
  H   H1782     1.0  0.41858  0.35373  0.39489  1.0000
  H   H1783     1.0  0.47377  0.57063  0.43309  1.0000
  H   H1784     1.0  0.36295  0.40024  0.44262  1.0000
  C   C1036     1.0  0.45781  0.65931  0.24155  1.0000
  H   H1785     1.0  0.46193  0.33480  0.00637  1.0000
  H   H1786     1.0  0.42574  0.59317  0.12778  1.0000
  H   H1787     1.0  0.47069  0.66149  0.44357  1.0000
  H   H1788     1.0  0.41599  0.59370  0.10292  1.0000
  C   C1037     1.0  0.48297  0.52641  0.42204  1.0000
  H   H1789     1.0  0.33229  0.47200  0.33753  1.0000
  H   H1790     1.0  0.33815  0.47723  0.25983  1.0000
  C   C1038     1.0  0.24791  0.41918  0.18938  1.0000
  H   H1791     1.0  0.40066  0.56573  0.14825  1.0000
  H   H1792     1.0  0.41185  0.54374  0.45657  1.0000
  S   S302      1.0  0.35841  0.50427  0.46840  1.0000
  H   H1793     1.0  0.39507  0.56553  0.12122  1.0000
  C   C1039     1.0  0.24859  0.46829  0.05799  1.0000
  Fe  Fe146     1.0  0.38665  0.50710  0.45488  1.0000
  Fe  Fe147     1.0  0.45839  0.40137  0.46180  1.0000
  H   H1794     1.0  0.41118  0.55086  0.07935  1.0000
  H   H1795     1.0  0.48049  0.52420  0.44132  1.0000
  N   N78       1.0  0.41885  0.55841  0.12358  1.0000
  C   C1040     1.0  0.42855  0.56444  0.09852  1.0000
  C   C1041     1.0  0.43174  0.56080  0.13868  1.0000
  C   C1042     1.0  0.40629  0.56893  0.12920  1.0000
  C   C1043     1.0  0.41755  0.56434  0.08012  1.0000
  C   C1044     1.0  0.41375  0.58884  0.12195  1.0000
  H   H1796     1.0  0.43705  0.57787  0.09516  1.0000
  Fe  Fe148     1.0  0.47790  0.60393  0.38258  1.0000
  H   H1797     1.0  0.41566  0.55241  0.02745  1.0000
  C   C1045     1.0  0.40846  0.57091  0.00246  1.0000
  H   H1798     1.0  0.41895  0.62637  0.29755  1.0000
  C   C1046     1.0  0.44540  0.64263  0.28114  1.0000
  H   H1799     1.0  0.42825  0.55630  0.99864  1.0000
  C   C1047     1.0  0.46959  0.64729  0.44882  1.0000
  Fe  Fe149     1.0  0.47466  0.59860  0.99434  1.0000
  S   S303      1.0  0.47241  0.38955  0.43571  1.0000
  Fe  Fe150     1.0  0.46107  0.36424  0.46213  1.0000
  C   C1048     1.0  0.46204  0.33284  0.20436  1.0000
  H   H1800     1.0  0.44896  0.63156  0.27473  1.0000
  H   H1801     1.0  0.43195  0.57235  0.01604  1.0000
  C   C1049     1.0  0.35857  0.40542  0.45796  1.0000
  C   C1050     1.0  0.42876  0.59824  0.98081  1.0000
  H   H1802     1.0  0.43410  0.62564  0.31534  1.0000
  H   H1803     1.0  0.28184  0.43225  0.19422  1.0000
  H   H1804     1.0  0.48222  0.55898  0.39970  1.0000
  H   H1805     1.0  0.45968  0.55526  0.40753  1.0000
  C   C1051     1.0  0.28501  0.44116  0.17680  1.0000
  H   H1806     1.0  0.36379  0.44871  0.44021  1.0000
  H   H1807     1.0  0.26441  0.45262  0.18550  1.0000
  H   H1808     1.0  0.47948  0.59473  0.04812  1.0000
  H   H1809     1.0  0.30844  0.49594  0.97351  1.0000
  C   C1052     1.0  0.42640  0.64662  0.25464  1.0000
  C   C1053     1.0  0.44478  0.50211  0.42994  1.0000
  H   H1810     1.0  0.47460  0.35327  0.23282  1.0000
  H   H1811     1.0  0.34857  0.41166  0.45277  1.0000
  H   H1812     1.0  0.24152  0.35702  0.42376  1.0000
  H   H1813     1.0  0.39629  0.59834  0.98580  1.0000
  H   H1814     1.0  0.48242  0.59657  0.08822  1.0000
  C   C1054     1.0  0.24180  0.44159  0.15961  1.0000
  H   H1815     1.0  0.47602  0.61503  0.44748  1.0000
  N   N79       1.0  0.48628  0.64312  0.44016  1.0000
  C   C1055     1.0  0.38376  0.57781  0.97118  1.0000
  S   S304      1.0  0.28952  0.42271  0.95184  1.0000
  C   C1056     1.0  0.43284  0.57709  0.73594  1.0000
  S   S305      1.0  0.35962  0.47113  0.50703  1.0000
  S   S306      1.0  0.39335  0.50502  0.48990  1.0000
  C   C1057     1.0  0.43088  0.42733  0.48837  1.0000
  S   S307      1.0  0.40141  0.45846  0.50868  1.0000
  Fe  Fe151     1.0  0.36491  0.50008  0.50372  1.0000
  S   S308      1.0  0.35178  0.50860  0.53496  1.0000
  H   H1816     1.0  0.42434  0.34097  0.93965  1.0000
  Fe  Fe152     1.0  0.37721  0.58258  0.66102  1.0000
  S   S309      1.0  0.38773  0.55900  0.66533  1.0000
  S   S310      1.0  0.38888  0.61006  0.66600  1.0000
  Fe  Fe153     1.0  0.34229  0.56082  0.65440  1.0000
  S   S311      1.0  0.35058  0.53606  0.65842  1.0000
  S   S312      1.0  0.31543  0.56266  0.65082  1.0000
  Fe  Fe154     1.0  0.36159  0.54446  0.68781  1.0000
  S   S313      1.0  0.35336  0.52652  0.72390  1.0000
  Fe  Fe155     1.0  0.37569  0.55279  0.63542  1.0000
  S   S314      1.0  0.38997  0.54507  0.60444  1.0000
  S   S315      1.0  0.35166  0.56825  0.68512  1.0000
  S   S316      1.0  0.36685  0.57737  0.62967  1.0000
  S   S317      1.0  0.25436  0.50240  0.63904  1.0000
  C   C1058     1.0  0.40261  0.60765  0.73726  1.0000
  C   C1059     1.0  0.38550  0.49019  0.59319  1.0000
  Fe  Fe156     1.0  0.47606  0.59221  0.94516  1.0000
  Fe  Fe157     1.0  0.36500  0.49862  0.87706  1.0000
  S   S318      1.0  0.37230  0.48828  0.84541  1.0000
  S   S319      1.0  0.33696  0.49623  0.89219  1.0000
  Fe  Fe158     1.0  0.40248  0.51163  0.88085  1.0000
  S   S320      1.0  0.41250  0.50225  0.84944  1.0000
  S   S321      1.0  0.42004  0.51852  0.90520  1.0000
  Fe  Fe159     1.0  0.39324  0.51337  0.83325  1.0000
  S   S322      1.0  0.40186  0.52925  0.79588  1.0000
  Fe  Fe160     1.0  0.39076  0.47817  0.86412  1.0000
  S   S323      1.0  0.39252  0.45026  0.87067  1.0000
  S   S324      1.0  0.38480  0.52467  0.86376  1.0000
  S   S325      1.0  0.38183  0.48662  0.89662  1.0000
  H   H1817     1.0  0.47098  0.48375  0.90474  1.0000
  H   H1818     1.0  0.30272  0.55480  0.74271  1.0000
  H   H1819     1.0  0.36165  0.45658  0.57952  1.0000
  S   S326      1.0  0.46086  0.43593  0.82005  1.0000
  S   S327      1.0  0.45973  0.65170  0.68449  1.0000
  H   H1820     1.0  0.46540  0.48596  0.83663  1.0000
  H   H1821     1.0  0.44384  0.48856  0.84199  1.0000
  C   C1060     1.0  0.32638  0.54982  0.58108  1.0000
  H   H1822     1.0  0.37339  0.56521  0.74474  1.0000
  S   S328      1.0  0.45228  0.36883  0.91075  1.0000
  C   C1061     1.0  0.41129  0.44611  0.85622  1.0000
  C   C1062     1.0  0.42135  0.45736  0.83552  1.0000
  C   C1063     1.0  0.43635  0.45387  0.82436  1.0000
  C   C1064     1.0  0.44157  0.43934  0.83408  1.0000
  C   C1065     1.0  0.43155  0.42811  0.85488  1.0000
  C   C1066     1.0  0.41632  0.43139  0.86577  1.0000
  H   H1823     1.0  0.41750  0.46866  0.82796  1.0000
  H   H1824     1.0  0.44406  0.46258  0.80826  1.0000
  H   H1825     1.0  0.43550  0.41689  0.86249  1.0000
  H   H1826     1.0  0.40858  0.42265  0.88181  1.0000
  C   C1067     1.0  0.45029  0.57178  0.91263  1.0000
  C   C1068     1.0  0.45146  0.55624  0.92604  1.0000
  C   C1069     1.0  0.44215  0.54010  0.92336  1.0000
  C   C1070     1.0  0.43166  0.53929  0.90722  1.0000
  C   C1071     1.0  0.43056  0.55484  0.89366  1.0000
  C   C1072     1.0  0.43985  0.57104  0.89640  1.0000
  H   H1827     1.0  0.45946  0.55663  0.93858  1.0000
  H   H1828     1.0  0.44304  0.52815  0.93399  1.0000
  H   H1829     1.0  0.42250  0.55435  0.88119  1.0000
  H   H1830     1.0  0.43886  0.58302  0.88599  1.0000
  C   C1073     1.0  0.36706  0.52656  0.74363  1.0000
  C   C1074     1.0  0.38487  0.53312  0.73601  1.0000
  C   C1075     1.0  0.39540  0.53337  0.75219  1.0000
  C   C1076     1.0  0.38825  0.52708  0.77610  1.0000
  C   C1077     1.0  0.37046  0.52012  0.78370  1.0000
  C   C1078     1.0  0.35992  0.51982  0.76749  1.0000
  H   H1831     1.0  0.39052  0.53797  0.71764  1.0000
  H   H1832     1.0  0.40917  0.53847  0.74617  1.0000
  H   H1833     1.0  0.36480  0.51525  0.80207  1.0000
  H   H1834     1.0  0.34617  0.51457  0.77353  1.0000
  C   C1079     1.0  0.29851  0.54558  0.64811  1.0000
  C   C1080     1.0  0.28222  0.54851  0.64819  1.0000
  C   C1081     1.0  0.26841  0.53532  0.64605  1.0000
  C   C1082     1.0  0.27077  0.51904  0.64375  1.0000
  C   C1083     1.0  0.28699  0.51601  0.64409  1.0000
  C   C1084     1.0  0.30082  0.52920  0.64618  1.0000
  H   H1835     1.0  0.28031  0.56114  0.64970  1.0000
  H   H1836     1.0  0.25603  0.53786  0.64574  1.0000
  H   H1837     1.0  0.28891  0.50340  0.64257  1.0000
  H   H1838     1.0  0.31326  0.52674  0.64608  1.0000
  C   C1085     1.0  0.30964  0.53497  0.58641  1.0000
  S   S329      1.0  0.44552  0.37566  0.48721  1.0000
  C   C1086     1.0  0.42101  0.43567  0.50191  1.0000
  S   S330      1.0  0.24600  0.43727  0.96729  1.0000
  H   H1839     1.0  0.37650  0.56857  0.71425  1.0000
  H   H1840     1.0  0.41800  0.43147  0.52065  1.0000
  C   C1087     1.0  0.36258  0.51948  0.55357  1.0000
  C   C1088     1.0  0.35325  0.51953  0.57556  1.0000
  C   C1089     1.0  0.36135  0.52788  0.59095  1.0000
  C   C1090     1.0  0.37898  0.53599  0.58468  1.0000
  C   C1091     1.0  0.38835  0.53591  0.56272  1.0000
  C   C1092     1.0  0.38017  0.52782  0.54715  1.0000
  H   H1841     1.0  0.33975  0.51283  0.58095  1.0000
  H   H1842     1.0  0.35403  0.52767  0.60790  1.0000
  H   H1843     1.0  0.40199  0.54218  0.55772  1.0000
  H   H1844     1.0  0.38749  0.52803  0.53020  1.0000
  C   C1093     1.0  0.44027  0.64092  0.67790  1.0000
  C   C1094     1.0  0.42645  0.64834  0.67733  1.0000
  C   C1095     1.0  0.41099  0.63880  0.67322  1.0000
  C   C1096     1.0  0.40914  0.62180  0.66944  1.0000
  C   C1097     1.0  0.42314  0.61457  0.66942  1.0000
  C   C1098     1.0  0.43851  0.62402  0.67383  1.0000
  H   H1845     1.0  0.40029  0.64457  0.67322  1.0000
  H   H1846     1.0  0.42203  0.60161  0.66630  1.0000
  H   H1847     1.0  0.44912  0.61814  0.67417  1.0000
  C   C1099     1.0  0.30226  0.44358  0.93613  1.0000
  C   C1100     1.0  0.29508  0.45645  0.92625  1.0000
  C   C1101     1.0  0.30584  0.47260  0.91287  1.0000
  C   C1102     1.0  0.32380  0.47590  0.90911  1.0000
  C   C1103     1.0  0.33093  0.46309  0.91921  1.0000
  C   C1104     1.0  0.32018  0.44710  0.93289  1.0000
  H   H1848     1.0  0.30024  0.48249  0.90515  1.0000
  H   H1849     1.0  0.34472  0.46558  0.91672  1.0000
  H   H1850     1.0  0.32577  0.43738  0.94107  1.0000
  H   H1851     1.0  0.25813  0.51143  0.74004  1.0000
  C   C1105     1.0  0.42598  0.59347  0.73500  1.0000
  N   N80       1.0  0.45558  0.33775  0.82719  1.0000
  H   H1852     1.0  0.48400  0.66082  0.87196  1.0000
  H   H1853     1.0  0.45597  0.50771  0.90848  1.0000
  H   H1854     1.0  0.44303  0.35084  0.86901  1.0000
  H   H1855     1.0  0.47576  0.65664  0.58062  1.0000
  H   H1856     1.0  0.44305  0.35470  0.78947  1.0000
  C   C1106     1.0  0.39939  0.57999  0.72501  1.0000
  N   N81       1.0  0.40668  0.59019  0.74139  1.0000
  H   H1857     1.0  0.43134  0.60195  0.71723  1.0000
  H   H1858     1.0  0.30326  0.52197  0.77446  1.0000
  C   C1107     1.0  0.45147  0.49459  0.92036  1.0000
  C   C1108     1.0  0.36224  0.46995  0.57033  1.0000
  C   C1109     1.0  0.40943  0.49696  0.55860  1.0000
  H   H1859     1.0  0.40673  0.49373  0.61193  1.0000
  H   H1860     1.0  0.43544  0.41676  0.49664  1.0000
  H   H1861     1.0  0.42285  0.47969  0.54235  1.0000
  C   C1110     1.0  0.28643  0.54814  0.53853  1.0000
  H   H1862     1.0  0.37930  0.57270  0.79703  1.0000
  H   H1863     1.0  0.41112  0.49056  0.52424  1.0000
  C   C1111     1.0  0.45717  0.49394  0.84345  1.0000
  H   H1864     1.0  0.35434  0.46857  0.55719  1.0000
  H   H1865     1.0  0.35686  0.38485  0.48912  1.0000
  H   H1866     1.0  0.45322  0.65141  0.61945  1.0000
  H   H1867     1.0  0.28686  0.50314  0.74892  1.0000
  C   C1112     1.0  0.31420  0.52495  0.55031  1.0000
  H   H1868     1.0  0.40538  0.63179  0.74947  1.0000
  C   C1113     1.0  0.47435  0.46435  0.87284  1.0000
  H   H1869     1.0  0.30626  0.48010  0.95658  1.0000
  H   H1870     1.0  0.30022  0.53828  0.59951  1.0000
  H   H1871     1.0  0.28780  0.56155  0.52855  1.0000
  H   H1872     1.0  0.48021  0.62305  0.47203  1.0000
  H   H1873     1.0  0.42198  0.47767  0.58987  1.0000
  H   H1874     1.0  0.43080  0.50241  0.52887  1.0000
  C   C1114     1.0  0.44864  0.34598  0.91554  1.0000
  H   H1875     1.0  0.43212  0.60069  0.74684  1.0000
  H   H1876     1.0  0.31260  0.53210  0.68735  1.0000
  H   H1877     1.0  0.42537  0.62743  0.73898  1.0000
  H   H1878     1.0  0.42693  0.56713  0.75241  1.0000
  H   H1879     1.0  0.44918  0.45100  0.89308  1.0000
  H   H1880     1.0  0.27317  0.54355  0.54957  1.0000
  N   N82       1.0  0.29379  0.52540  0.71990  1.0000
  H   H1881     1.0  0.40296  0.56749  0.72638  1.0000
  H   H1882     1.0  0.47056  0.36222  0.80398  1.0000
  H   H1883     1.0  0.31367  0.51057  0.75650  1.0000
  H   H1884     1.0  0.37482  0.44199  0.47649  1.0000
  C   C1115     1.0  0.41197  0.62120  0.74911  1.0000
  Fe  Fe161     1.0  0.47305  0.41711  0.83927  1.0000
  C   C1116     1.0  0.30480  0.55735  0.72352  1.0000
  H   H1885     1.0  0.47997  0.63903  0.84307  1.0000
  H   H1886     1.0  0.27907  0.54416  0.72534  1.0000
  C   C1117     1.0  0.43544  0.61393  0.95970  1.0000
  H   H1887     1.0  0.41221  0.61540  0.76719  1.0000
  H   H1888     1.0  0.37603  0.42177  0.51051  1.0000
  H   H1889     1.0  0.47170  0.37810  0.58799  1.0000
  C   C1118     1.0  0.46061  0.33840  0.90461  1.0000
  H   H1890     1.0  0.43739  0.49146  0.92716  1.0000
  S   S331      1.0  0.23964  0.39622  0.96311  1.0000
  Fe  Fe162     1.0  0.38753  0.47627  0.49094  1.0000
  C   C1119     1.0  0.45668  0.48046  0.90861  1.0000
  H   H1891     1.0  0.31471  0.50896  0.52479  1.0000
  C   C1120     1.0  0.26130  0.51440  0.72080  1.0000
  C   C1121     1.0  0.38637  0.41092  0.47100  1.0000
  H   H1892     1.0  0.48062  0.35385  0.94221  1.0000
  H   H1893     1.0  0.37779  0.49909  0.58723  1.0000
  H   H1894     1.0  0.47801  0.63207  0.91027  1.0000
  H   H1895     1.0  0.25248  0.50409  0.71527  1.0000
  S   S332      1.0  0.46720  0.37769  0.54158  1.0000
  N   N83       1.0  0.45024  0.47854  0.88696  1.0000
  C   C1122     1.0  0.43098  0.47539  0.89140  1.0000
  H   H1896     1.0  0.30276  0.57044  0.71768  1.0000
  C   C1123     1.0  0.45493  0.46313  0.87924  1.0000
  C   C1124     1.0  0.42034  0.45982  0.91135  1.0000
  H   H1897     1.0  0.47695  0.45786  0.85822  1.0000
  H   H1898     1.0  0.40594  0.61378  0.71833  1.0000
  H   H1899     1.0  0.42704  0.48715  0.89493  1.0000
  H   H1900     1.0  0.42634  0.47317  0.87562  1.0000
  C   C1125     1.0  0.46492  0.34847  0.80319  1.0000
  H   H1901     1.0  0.25851  0.52688  0.71373  1.0000
  H   H1902     1.0  0.42157  0.44716  0.90753  1.0000
  H   H1903     1.0  0.42348  0.46099  0.92830  1.0000
  H   H1904     1.0  0.40654  0.45951  0.91321  1.0000
  H   H1905     1.0  0.30688  0.50074  0.69392  1.0000
  C   C1126     1.0  0.36602  0.42872  0.47938  1.0000
  S   S333      1.0  0.47587  0.41618  0.87587  1.0000
  Fe  Fe163     1.0  0.26109  0.41732  0.96833  1.0000
  H   H1906     1.0  0.28036  0.50070  0.71380  1.0000
  N   N84       1.0  0.33930  0.42181  0.87751  1.0000
  C   C1127     1.0  0.32899  0.41706  0.90232  1.0000
  C   C1128     1.0  0.34522  0.44153  0.87071  1.0000
  C   C1129     1.0  0.35473  0.41455  0.87745  1.0000
  C   C1130     1.0  0.32810  0.41404  0.86256  1.0000
  C   C1131     1.0  0.32146  0.39743  0.91374  1.0000
  C   C1132     1.0  0.33114  0.45094  0.86677  1.0000
  C   C1133     1.0  0.36686  0.41682  0.85373  1.0000
  C   C1134     1.0  0.33423  0.42116  0.83590  1.0000
  H   H1907     1.0  0.33693  0.42272  0.91380  1.0000
  H   H1908     1.0  0.31774  0.42263  0.90382  1.0000
  H   H1909     1.0  0.35562  0.44644  0.85481  1.0000
  H   H1910     1.0  0.35135  0.44674  0.88413  1.0000
  H   H1911     1.0  0.36264  0.42033  0.88890  1.0000
  H   H1912     1.0  0.35077  0.40025  0.88477  1.0000
  H   H1913     1.0  0.32637  0.39967  0.86584  1.0000
  H   H1914     1.0  0.31490  0.41569  0.86761  1.0000
  H   H1915     1.0  0.33151  0.39081  0.91725  1.0000
  H   H1916     1.0  0.31300  0.39614  0.93096  1.0000
  H   H1917     1.0  0.31327  0.39046  0.90365  1.0000
  H   H1918     1.0  0.32620  0.44854  0.85131  1.0000
  H   H1919     1.0  0.32022  0.44754  0.88196  1.0000
  H   H1920     1.0  0.33675  0.46525  0.86358  1.0000
  H   H1921     1.0  0.37847  0.41266  0.85682  1.0000
  H   H1922     1.0  0.37162  0.43049  0.84361  1.0000
  H   H1923     1.0  0.36089  0.40827  0.84322  1.0000
  H   H1924     1.0  0.33666  0.41058  0.82730  1.0000
  H   H1925     1.0  0.34599  0.43211  0.83023  1.0000
  H   H1926     1.0  0.32399  0.42578  0.82882  1.0000
  C   C1135     1.0  0.45411  0.34930  0.78459  1.0000
  S   S334      1.0  0.46611  0.38801  0.84321  1.0000
  H   H1927     1.0  0.40536  0.46442  0.61462  1.0000
  H   H1928     1.0  0.27731  0.51668  0.56205  1.0000
  H   H1929     1.0  0.31019  0.49850  0.72330  1.0000
  H   H1930     1.0  0.31242  0.55708  0.54218  1.0000
  C   C1136     1.0  0.38078  0.48056  0.55784  1.0000
  C   C1137     1.0  0.29993  0.54885  0.55355  1.0000
  H   H1931     1.0  0.35593  0.47671  0.58243  1.0000
  C   C1138     1.0  0.37975  0.57503  0.72831  1.0000
  H   H1932     1.0  0.41646  0.45491  0.59370  1.0000
  H   H1933     1.0  0.44966  0.33641  0.78047  1.0000
  H   H1934     1.0  0.32660  0.53506  0.54284  1.0000
  H   H1935     1.0  0.33070  0.55051  0.59753  1.0000
  C   C1139     1.0  0.28002  0.51461  0.71067  1.0000
  H   H1936     1.0  0.29253  0.54887  0.69712  1.0000
  C   C1140     1.0  0.30826  0.51903  0.52934  1.0000
  S   S335      1.0  0.48046  0.40785  0.47908  1.0000
  H   H1937     1.0  0.43103  0.57117  0.72092  1.0000
  H   H1938     1.0  0.46575  0.35186  0.96855  1.0000
  H   H1939     1.0  0.47236  0.34667  0.89296  1.0000
  H   H1940     1.0  0.37627  0.47928  0.60678  1.0000
  C   C1141     1.0  0.46821  0.33991  0.84263  1.0000
  C   C1142     1.0  0.47706  0.64907  0.59734  1.0000
  H   H1941     1.0  0.31809  0.51404  0.56024  1.0000
  H   H1942     1.0  0.45247  0.46786  0.92179  1.0000
  H   H1943     1.0  0.39793  0.56568  0.76724  1.0000
  C   C1143     1.0  0.28470  0.51859  0.57559  1.0000
  H   H1944     1.0  0.31717  0.53390  0.74754  1.0000
  N   N85       1.0  0.39349  0.48346  0.57315  1.0000
  H   H1945     1.0  0.38509  0.45677  0.59308  1.0000
  C   C1144     1.0  0.47739  0.62950  0.85985  1.0000
  C   C1145     1.0  0.41891  0.49186  0.53743  1.0000
  C   C1146     1.0  0.47649  0.34690  0.96083  1.0000
  C   C1147     1.0  0.43388  0.34223  0.86165  1.0000
  H   H1946     1.0  0.31827  0.55831  0.71551  1.0000
  H   H1947     1.0  0.29179  0.49376  0.57520  1.0000
  H   H1948     1.0  0.39993  0.45957  0.56719  1.0000
  H   H1949     1.0  0.27159  0.49185  0.59383  1.0000
  H   H1950     1.0  0.45198  0.50566  0.87236  1.0000
  H   H1951     1.0  0.29070  0.50004  0.60288  1.0000
  H   H1952     1.0  0.40618  0.50935  0.55207  1.0000
  H   H1953     1.0  0.38510  0.47367  0.54437  1.0000
  N   N86       1.0  0.30200  0.53168  0.56594  1.0000
  H   H1954     1.0  0.38995  0.50347  0.62092  1.0000
  H   H1955     1.0  0.40492  0.58725  0.70665  1.0000
  H   H1956     1.0  0.46236  0.35822  0.76822  1.0000
  H   H1957     1.0  0.44691  0.58095  0.73478  1.0000
  H   H1958     1.0  0.29439  0.51258  0.53287  1.0000
  H   H1959     1.0  0.44919  0.46018  0.86452  1.0000
  C   C1148     1.0  0.38353  0.58254  0.78022  1.0000
  H   H1960     1.0  0.41035  0.55536  0.94235  1.0000
  H   H1961     1.0  0.47195  0.50065  0.86845  1.0000
  H   H1962     1.0  0.45874  0.63108  0.62809  1.0000
  H   H1963     1.0  0.40995  0.58292  0.77678  1.0000
  C   C1149     1.0  0.31091  0.52534  0.70575  1.0000
  C   C1150     1.0  0.31388  0.50713  0.70569  1.0000
  H   H1964     1.0  0.37438  0.58650  0.72689  1.0000
  C   C1151     1.0  0.28504  0.50011  0.58746  1.0000
  C   C1152     1.0  0.41090  0.46603  0.59586  1.0000
  Fe  Fe164     1.0  0.46899  0.38114  0.50257  1.0000
  H   H1965     1.0  0.44386  0.35933  0.82835  1.0000
  H   H1966     1.0  0.48059  0.64365  0.64212  1.0000
  H   H1967     1.0  0.42278  0.58325  0.94254  1.0000
  Fe  Fe165     1.0  0.47121  0.38712  0.87897  1.0000
  H   H1968     1.0  0.37987  0.49322  0.54797  1.0000
  H   H1969     1.0  0.28128  0.45387  0.92862  1.0000
  H   H1970     1.0  0.29612  0.55656  0.56634  1.0000
  C   C1153     1.0  0.45820  0.49522  0.86854  1.0000
  H   H1971     1.0  0.33701  0.54753  0.56891  1.0000
  H   H1972     1.0  0.47194  0.61633  0.85703  1.0000
  C   C1154     1.0  0.44058  0.34493  0.83523  1.0000
  C   C1155     1.0  0.39695  0.46613  0.58168  1.0000
  H   H1973     1.0  0.41910  0.50067  0.56883  1.0000
  H   H1974     1.0  0.39655  0.42126  0.47423  1.0000
  C   C1156     1.0  0.41176  0.55614  0.96025  1.0000
  C   C1157     1.0  0.39773  0.50071  0.60557  1.0000
  C   C1158     1.0  0.29137  0.51765  0.74547  1.0000
  H   H1975     1.0  0.38573  0.59556  0.78444  1.0000
  H   H1976     1.0  0.31184  0.53015  0.51398  1.0000
  H   H1977     1.0  0.40500  0.51366  0.59424  1.0000
  H   H1978     1.0  0.38864  0.60631  0.74267  1.0000
  C   C1159     1.0  0.45886  0.64140  0.61312  1.0000
  H   H1979     1.0  0.27648  0.52346  0.58841  1.0000
  C   C1160     1.0  0.40014  0.57994  0.76633  1.0000
  H   H1980     1.0  0.32441  0.56278  0.57441  1.0000
  H   H1981     1.0  0.37275  0.58069  0.77136  1.0000
  H   H1982     1.0  0.31260  0.52309  0.59542  1.0000
  H   H1983     1.0  0.28791  0.53997  0.52579  1.0000
  S   S336      1.0  0.46111  0.59224  0.91665  1.0000
  S   S337      1.0  0.48209  0.61654  0.95878  1.0000
  H   H1984     1.0  0.43922  0.60993  0.94325  1.0000
  H   H1985     1.0  0.28110  0.52188  0.75591  1.0000
  H   H1986     1.0  0.46188  0.50722  0.83192  1.0000
  H   H1987     1.0  0.45753  0.49535  0.93544  1.0000
  H   H1988     1.0  0.42754  0.66129  0.68043  1.0000
  H   H1989     1.0  0.42940  0.33949  0.82808  1.0000
  H   H1990     1.0  0.38117  0.40166  0.48811  1.0000
  H   H1991     1.0  0.42167  0.34613  0.86491  1.0000
  C   C1161     1.0  0.30742  0.52147  0.75601  1.0000
  H   H1992     1.0  0.32774  0.50854  0.69894  1.0000
  H   H1993     1.0  0.32186  0.53295  0.71127  1.0000
  C   C1162     1.0  0.29186  0.54378  0.71588  1.0000
  H   H1994     1.0  0.48141  0.63775  0.59285  1.0000
  H   H1995     1.0  0.28228  0.51914  0.69150  1.0000
  C   C1163     1.0  0.41472  0.44912  0.49130  1.0000
  H   H1996     1.0  0.33615  0.49614  0.95205  1.0000
  H   H1997     1.0  0.45014  0.63506  0.60306  1.0000
  C   C1164     1.0  0.36347  0.42080  0.50551  1.0000
  H   H1998     1.0  0.47362  0.35399  0.84195  1.0000
  H   H1999     1.0  0.42600  0.62174  0.95814  1.0000
  H   H2000     1.0  0.33285  0.47323  0.96136  1.0000
  H   H2001     1.0  0.40450  0.60012  0.95567  1.0000
  H   H2002     1.0  0.44708  0.62284  0.96230  1.0000
  H   H2003     1.0  0.43500  0.57450  0.96068  1.0000
  H   H2004     1.0  0.47590  0.34362  0.79594  1.0000
  C   C1165     1.0  0.42163  0.57499  0.96000  1.0000
  H   H2005     1.0  0.47852  0.45775  0.88788  1.0000
  H   H2006     1.0  0.41939  0.54685  0.96506  1.0000
  H   H2007     1.0  0.48147  0.33379  0.61497  1.0000
  H   H2008     1.0  0.46814  0.64947  0.90939  1.0000
  H   H2009     1.0  0.35675  0.42855  0.51563  1.0000
  H   H2010     1.0  0.35559  0.40714  0.51093  1.0000
  C   C1166     1.0  0.43361  0.33517  0.93107  1.0000
  H   H2011     1.0  0.46737  0.63206  0.87278  1.0000
  H   H2012     1.0  0.46195  0.33410  0.86104  1.0000
  C   C1167     1.0  0.32991  0.48481  0.96696  1.0000
  H   H2013     1.0  0.48260  0.47788  0.86681  1.0000
  C   C1168     1.0  0.48344  0.37663  0.57808  1.0000
  H   H2014     1.0  0.27984  0.48723  0.96763  1.0000
  H   H2015     1.0  0.38617  0.57174  0.95616  1.0000
  C   C1169     1.0  0.48079  0.64642  0.90743  1.0000
  C   C1170     1.0  0.48340  0.33176  0.83760  1.0000
  H   H2016     1.0  0.37414  0.58514  0.96786  1.0000
  S   S338      1.0  0.48344  0.36764  0.47969  1.0000
  C   C1171     1.0  0.48462  0.37563  0.55471  1.0000
  H   H2017     1.0  0.33817  0.39333  0.48945  1.0000
  C   C1172     1.0  0.34867  0.38989  0.47833  1.0000
  H   H2018     1.0  0.35348  0.43082  0.47667  1.0000
  H   H2019     1.0  0.34290  0.37871  0.47125  1.0000
  Fe  Fe166     1.0  0.35535  0.47550  0.47068  1.0000
  S   S339      1.0  0.27059  0.86958  0.41834  1.0000
  N   N87       1.0  0.34689  0.94229  0.38803  1.0000
  H   H2020     1.0  0.32674  0.82533  0.13428  1.0000
  S   S340      1.0  0.39043  0.92055  0.99129  1.0000
  H   H2021     1.0  0.37987  0.83801  0.27576  1.0000
  Fe  Fe167     1.0  0.36214  0.91090  0.00753  1.0000
  S   S341      1.0  0.34848  0.90206  0.04557  1.0000
  C   C1173     1.0  0.40199  0.91857  0.44638  1.0000
  Fe  Fe168     1.0  0.34491  0.83797  0.21019  1.0000
  S   S342      1.0  0.33436  0.80897  0.21483  1.0000
  S   S343      1.0  0.33993  0.84818  0.24330  1.0000
  Fe  Fe169     1.0  0.35911  0.84259  0.15789  1.0000
  S   S344      1.0  0.35007  0.81384  0.15943  1.0000
  S   S345      1.0  0.37602  0.86008  0.12397  1.0000
  Fe  Fe170     1.0  0.32525  0.81494  0.18171  1.0000
  S   S346      1.0  0.29795  0.80652  0.17514  1.0000
  Fe  Fe171     1.0  0.35999  0.81048  0.19223  1.0000
  S   S347      1.0  0.37496  0.79104  0.20332  1.0000
  S   S348      1.0  0.33406  0.84412  0.17851  1.0000
  S   S349      1.0  0.37074  0.83906  0.18915  1.0000
  H   H2022     1.0  0.42681  0.88074  0.43240  1.0000
  H   H2023     1.0  0.24543  0.85992  0.37634  1.0000
  Fe  Fe172     1.0  0.37176  0.89390  0.37986  1.0000
  S   S350      1.0  0.37155  0.91031  0.34537  1.0000
  S   S351      1.0  0.35082  0.88208  0.41282  1.0000
  Fe  Fe173     1.0  0.41065  0.89968  0.36769  1.0000
  S   S352      1.0  0.41353  0.91636  0.33245  1.0000
  S   S353      1.0  0.43253  0.89240  0.38177  1.0000
  Fe  Fe174     1.0  0.39495  0.92884  0.35067  1.0000
  S   S354      1.0  0.39859  0.95820  0.34329  1.0000
  Fe  Fe175     1.0  0.39014  0.89634  0.32976  1.0000
  S   S355      1.0  0.39318  0.88794  0.29502  1.0000
  S   S356      1.0  0.39374  0.91352  0.38605  1.0000
  S   S357      1.0  0.38873  0.87866  0.36409  1.0000
  H   H2024     1.0  0.47998  0.69461  0.19355  1.0000
  H   H2025     1.0  0.47140  0.91407  0.97477  1.0000
  H   H2026     1.0  0.45070  0.67588  0.27952  1.0000
  S   S358      1.0  0.45682  0.81146  0.18403  1.0000
  H   H2027     1.0  0.37759  0.83602  0.23772  1.0000
  C   C1174     1.0  0.44223  0.68606  0.17591  1.0000
  C   C1175     1.0  0.43841  0.70214  0.17660  1.0000
  C   C1176     1.0  0.44943  0.71544  0.18351  1.0000
  C   C1177     1.0  0.46438  0.71272  0.18995  1.0000
  C   C1178     1.0  0.34953  0.92598  0.40195  1.0000
  C   C1179     1.0  0.45748  0.68361  0.18159  1.0000
  H   H2028     1.0  0.42668  0.70421  0.17212  1.0000
  H   H2029     1.0  0.44611  0.72756  0.18447  1.0000
  C   C1180     1.0  0.41540  0.87537  0.44718  1.0000
  H   H2030     1.0  0.24614  0.79874  0.39976  1.0000
  C   C1181     1.0  0.46586  0.93081  0.41384  1.0000
  C   C1182     1.0  0.46849  0.91428  0.41395  1.0000
  C   C1183     1.0  0.45858  0.90282  0.40332  1.0000
  C   C1184     1.0  0.44594  0.90778  0.39267  1.0000
  C   C1185     1.0  0.44350  0.92442  0.39224  1.0000
  C   C1186     1.0  0.45342  0.93588  0.40285  1.0000
  H   H2031     1.0  0.45808  0.89280  0.98505  1.0000
  H   H2032     1.0  0.46055  0.88998  0.40362  1.0000
  H   H2033     1.0  0.43373  0.92830  0.38419  1.0000
  H   H2034     1.0  0.45115  0.94852  0.40310  1.0000
  C   C1187     1.0  0.39776  0.79669  0.19699  1.0000
  C   C1188     1.0  0.40625  0.78396  0.20380  1.0000
  C   C1189     1.0  0.42434  0.78816  0.19970  1.0000
  C   C1190     1.0  0.43409  0.80521  0.18894  1.0000
  C   C1191     1.0  0.42559  0.81796  0.18237  1.0000
  C   C1192     1.0  0.40755  0.81370  0.18615  1.0000
  H   H2035     1.0  0.39879  0.77076  0.21220  1.0000
  H   H2036     1.0  0.43072  0.77824  0.20491  1.0000
  H   H2037     1.0  0.43301  0.83117  0.17397  1.0000
  H   H2038     1.0  0.40124  0.82360  0.18061  1.0000
  C   C1193     1.0  0.35494  0.85941  0.25729  1.0000
  C   C1194     1.0  0.34931  0.86067  0.28032  1.0000
  C   C1195     1.0  0.36073  0.86946  0.29212  1.0000
  C   C1196     1.0  0.37798  0.87713  0.28096  1.0000
  C   C1197     1.0  0.38360  0.87591  0.25790  1.0000
  C   C1198     1.0  0.37216  0.86720  0.24608  1.0000
  H   H2039     1.0  0.33599  0.85481  0.28911  1.0000
  H   H2040     1.0  0.35621  0.87027  0.30983  1.0000
  H   H2041     1.0  0.39687  0.88194  0.24904  1.0000
  H   H2042     1.0  0.37660  0.86675  0.22820  1.0000
  C   C1199     1.0  0.28416  0.78739  0.17079  1.0000
  C   C1200     1.0  0.26903  0.78871  0.16337  1.0000
  C   C1201     1.0  0.25756  0.77398  0.15983  1.0000
  C   C1202     1.0  0.26107  0.75765  0.16367  1.0000
  C   C1203     1.0  0.27637  0.75641  0.17067  1.0000
  C   C1204     1.0  0.28783  0.77113  0.17423  1.0000
  H   H2043     1.0  0.26614  0.80124  0.16033  1.0000
  H   H2044     1.0  0.27934  0.74390  0.17349  1.0000
  H   H2045     1.0  0.29945  0.76986  0.17977  1.0000
  H   H2046     1.0  0.34373  0.79819  0.27523  1.0000
  H   H2047     1.0  0.47642  0.98984  0.38247  1.0000
  Fe  Fe176     1.0  0.24953  0.86007  0.45140  1.0000
  H   H2048     1.0  0.25260  0.96179  0.43312  1.0000
  C   C1205     1.0  0.35481  0.80988  0.26802  1.0000
  N   N88       1.0  0.47361  0.99205  0.32423  1.0000
  C   C1206     1.0  0.35634  0.89034  0.06702  1.0000
  C   C1207     1.0  0.34689  0.88569  0.09014  1.0000
  C   C1208     1.0  0.35278  0.87644  0.10781  1.0000
  C   C1209     1.0  0.36816  0.87176  0.10243  1.0000
  C   C1210     1.0  0.37775  0.87667  0.07937  1.0000
  C   C1211     1.0  0.37182  0.88585  0.06166  1.0000
  H   H2049     1.0  0.33494  0.88923  0.09439  1.0000
  H   H2050     1.0  0.34546  0.87294  0.12559  1.0000
  H   H2051     1.0  0.38973  0.87318  0.07517  1.0000
  H   H2052     1.0  0.37920  0.88942  0.04391  1.0000
  C   C1212     1.0  0.30367  0.78951  0.10186  1.0000
  C   C1213     1.0  0.29283  0.87297  0.41724  1.0000
  C   C1214     1.0  0.29911  0.86976  0.43734  1.0000
  C   C1215     1.0  0.31691  0.87249  0.43566  1.0000
  C   C1216     1.0  0.32855  0.87843  0.41394  1.0000
  C   C1217     1.0  0.32228  0.88177  0.39385  1.0000
  C   C1218     1.0  0.30448  0.87904  0.39553  1.0000
  H   H2053     1.0  0.29026  0.86508  0.45413  1.0000
  H   H2054     1.0  0.32167  0.86991  0.45128  1.0000
  H   H2055     1.0  0.33112  0.88633  0.37704  1.0000
  H   H2056     1.0  0.29971  0.88153  0.37990  1.0000
  H   H2057     1.0  0.27526  0.84863  0.35930  1.0000
  S   S359      1.0  0.47785  0.72808  0.20118  1.0000
  H   H2058     1.0  0.45760  0.72310  0.12084  1.0000
  H   H2059     1.0  0.40987  0.83421  0.29502  1.0000
  H   H2060     1.0  0.24257  0.83960  0.41384  1.0000
  H   H2061     1.0  0.39478  0.92449  0.43456  1.0000
  H   H2062     1.0  0.47529  0.68059  0.25124  1.0000
  H   H2063     1.0  0.45485  0.80272  0.24019  1.0000
  C   C1219     1.0  0.36350  0.97488  0.37213  1.0000
  H   H2064     1.0  0.41657  0.84257  0.26401  1.0000
  C   C1220     1.0  0.43974  0.68737  0.25240  1.0000
  C   C1221     1.0  0.47530  0.66808  0.24606  1.0000
  H   H2065     1.0  0.39236  0.89473  0.43641  1.0000
  H   H2066     1.0  0.48112  0.88012  0.97292  1.0000
  H   H2067     1.0  0.27644  0.82850  0.37700  1.0000
  H   H2068     1.0  0.38924  0.99479  0.02665  1.0000
  H   H2069     1.0  0.33837  0.80689  0.08084  1.0000
  N   N89       1.0  0.41079  0.88994  0.45742  1.0000
  H   H2070     1.0  0.43076  0.96902  0.40369  1.0000
  H   H2071     1.0  0.33862  0.80256  0.11085  1.0000
  C   C1222     1.0  0.24129  0.80828  0.40857  1.0000
  N   N90       1.0  0.32300  0.81995  0.10124  1.0000
  N   N91       1.0  0.38439  0.94079  0.06868  1.0000
  C   C1223     1.0  0.36538  0.93913  0.07111  1.0000
  C   C1224     1.0  0.38631  0.92771  0.08875  1.0000
  C   C1225     1.0  0.39118  0.93649  0.04591  1.0000
  C   C1226     1.0  0.39292  0.95935  0.06890  1.0000
  C   C1227     1.0  0.36009  0.94897  0.05017  1.0000
  C   C1228     1.0  0.37940  0.93014  0.11322  1.0000
  C   C1229     1.0  0.40764  0.93008  0.04381  1.0000
  C   C1230     1.0  0.41226  0.96397  0.06852  1.0000
  H   H2072     1.0  0.35809  0.92519  0.07454  1.0000
  H   H2073     1.0  0.36011  0.94395  0.08635  1.0000
  H   H2074     1.0  0.39987  0.92751  0.08789  1.0000
  H   H2075     1.0  0.37967  0.91422  0.08799  1.0000
  H   H2076     1.0  0.38143  0.92588  0.04228  1.0000
  H   H2077     1.0  0.39359  0.94792  0.03112  1.0000
  H   H2078     1.0  0.39170  0.96846  0.05345  1.0000
  H   H2079     1.0  0.38619  0.96370  0.08367  1.0000
  H   H2080     1.0  0.36557  0.96328  0.04662  1.0000
  H   H2081     1.0  0.36346  0.94416  0.03423  1.0000
  H   H2082     1.0  0.35959  0.96010  0.40665  1.0000
  H   H2083     1.0  0.38241  0.92034  0.12627  1.0000
  H   H2084     1.0  0.38556  0.94321  0.11562  1.0000
  H   H2085     1.0  0.36522  0.92769  0.11730  1.0000
  H   H2086     1.0  0.41831  0.93876  0.04851  1.0000
  H   H2087     1.0  0.41220  0.92951  0.02549  1.0000
  H   H2088     1.0  0.40497  0.91660  0.05445  1.0000
  H   H2089     1.0  0.34224  0.94842  0.32999  1.0000
  H   H2090     1.0  0.41626  0.95362  0.07914  1.0000
  H   H2091     1.0  0.24368  0.73797  0.22205  1.0000
  H   H2092     1.0  0.29911  0.79360  0.08596  1.0000
  H   H2093     1.0  0.29293  0.77893  0.11376  1.0000
  H   H2094     1.0  0.41339  0.94997  0.38344  1.0000
  H   H2095     1.0  0.32376  0.85362  0.05585  1.0000
  C   C1231     1.0  0.32984  0.94493  0.39842  1.0000
  H   H2096     1.0  0.46615  0.80510  0.26280  1.0000
  C   C1232     1.0  0.31415  0.92916  0.40186  1.0000
  C   C1233     1.0  0.39555  0.98248  0.99833  1.0000
  H   H2097     1.0  0.36182  0.92364  0.39371  1.0000
  H   H2098     1.0  0.32989  0.94822  0.41563  1.0000
  H   H2099     1.0  0.35308  0.81588  0.25082  1.0000
  H   H2100     1.0  0.44350  0.91762  0.97814  1.0000
  H   H2101     1.0  0.34588  0.94653  0.05420  1.0000
  H   H2102     1.0  0.26730  0.84375  0.38967  1.0000
  H   H2103     1.0  0.37597  0.87342  0.46368  1.0000
  C   C1234     1.0  0.46689  0.80993  0.24405  1.0000
  C   C1235     1.0  0.40148  0.86395  0.43812  1.0000
  H   H2104     1.0  0.39667  0.87157  0.42467  1.0000
  Fe  Fe177     1.0  0.47425  0.79321  0.18714  1.0000
  H   H2105     1.0  0.45629  0.66780  0.22595  1.0000
  C   C1236     1.0  0.33108  0.84550  0.06468  1.0000
  H   H2106     1.0  0.47314  0.99540  0.46351  1.0000
  C   C1237     1.0  0.34979  0.92556  0.42768  1.0000
  S   S360      1.0  0.48230  0.77655  0.16286  1.0000
  C   C1238     1.0  0.46844  0.82967  0.23786  1.0000
  N   N92       1.0  0.38814  0.81861  0.25923  1.0000
  C   C1239     1.0  0.37164  0.80413  0.26595  1.0000
  C   C1240     1.0  0.40275  0.81010  0.25629  1.0000
  C   C1241     1.0  0.38835  0.82976  0.23617  1.0000
  C   C1242     1.0  0.38832  0.82905  0.27776  1.0000
  C   C1243     1.0  0.40367  0.79728  0.27810  1.0000
  C   C1244     1.0  0.40458  0.84480  0.22467  1.0000
  C   C1245     1.0  0.40598  0.84014  0.27932  1.0000
  H   H2107     1.0  0.37146  0.79554  0.25326  1.0000
  H   H2108     1.0  0.37053  0.79552  0.28311  1.0000
  H   H2109     1.0  0.41544  0.81973  0.25030  1.0000
  H   H2110     1.0  0.40201  0.80277  0.24224  1.0000
  H   H2111     1.0  0.38628  0.82146  0.22346  1.0000
  H   H2112     1.0  0.38260  0.82020  0.29525  1.0000
  H   H2113     1.0  0.39361  0.78478  0.28157  1.0000
  H   H2114     1.0  0.41623  0.79403  0.27502  1.0000
  H   H2115     1.0  0.40265  0.80287  0.29369  1.0000
  H   H2116     1.0  0.40618  0.85500  0.23484  1.0000
  H   H2117     1.0  0.40299  0.85128  0.20754  1.0000
  H   H2118     1.0  0.41635  0.84027  0.22099  1.0000
  H   H2119     1.0  0.40471  0.85318  0.28176  1.0000
  C   C1246     1.0  0.39869  0.99531  0.01133  1.0000
  C   C1247     1.0  0.42625  0.97482  0.38908  1.0000
  H   H2120     1.0  0.34125  0.96386  0.34768  1.0000
  C   C1248     1.0  0.41059  0.97134  0.35861  1.0000
  C   C1249     1.0  0.41637  0.96398  0.37764  1.0000
  C   C1250     1.0  0.41460  0.98960  0.35133  1.0000
  H   H2121     1.0  0.31454  0.78368  0.09778  1.0000
  C   C1251     1.0  0.45548  0.95945  0.33680  1.0000
  C   C1252     1.0  0.47445  0.98359  0.36774  1.0000
  H   H2122     1.0  0.35161  0.97934  0.37425  1.0000
  C   C1253     1.0  0.33863  0.81308  0.09598  1.0000
  H   H2123     1.0  0.47874  0.83627  0.27515  1.0000
  H   H2124     1.0  0.29606  0.80863  0.11867  1.0000
  C   C1254     1.0  0.33840  0.94975  0.34815  1.0000
  H   H2125     1.0  0.46443  0.95699  0.34797  1.0000
  C   C1255     1.0  0.48354  0.85994  0.23410  1.0000
  C   C1256     1.0  0.40732  0.98363  0.97784  1.0000
  S   S361      1.0  0.42751  0.66939  0.16826  1.0000
  H   H2126     1.0  0.32431  0.94398  0.35381  1.0000
  H   H2127     1.0  0.33772  0.92715  0.43758  1.0000
  C   C1257     1.0  0.40461  0.90152  0.43998  1.0000
  C   C1258     1.0  0.30809  0.80457  0.11427  1.0000
  H   H2128     1.0  0.31801  0.81902  0.06721  1.0000
  H   H2129     1.0  0.32733  0.95663  0.38824  1.0000
  S   S362      1.0  0.47754  0.94528  0.42772  1.0000
  H   H2130     1.0  0.31060  0.79869  0.13116  1.0000
  C   C1259     1.0  0.34811  0.93987  0.36339  1.0000
  C   C1260     1.0  0.47786  0.86646  0.21167  1.0000
  S   S363      1.0  0.35568  0.93410  0.98779  1.0000
  H   H2131     1.0  0.33952  0.91426  0.40166  1.0000
  H   H2132     1.0  0.31600  0.92108  0.38897  1.0000
  C   C1261     1.0  0.46842  0.69682  0.18869  1.0000
  H   H2133     1.0  0.31137  0.92058  0.41950  1.0000
  H   H2134     1.0  0.41383  0.90522  0.42285  1.0000
  H   H2135     1.0  0.29864  0.83263  0.13099  1.0000
  C   C1262     1.0  0.31865  0.82807  0.07918  1.0000
  H   H2136     1.0  0.25331  0.81765  0.36226  1.0000
  H   H2137     1.0  0.47812  0.91031  0.42223  1.0000
  H   H2138     1.0  0.45681  0.95242  0.32256  1.0000
  H   H2139     1.0  0.24836  0.78496  0.25398  1.0000
  H   H2140     1.0  0.45790  0.83211  0.25025  1.0000
  C   C1263     1.0  0.31129  0.84177  0.12207  1.0000
  H   H2141     1.0  0.38372  0.97218  0.00352  1.0000
  C   C1264     1.0  0.45662  0.97890  0.32706  1.0000
  H   H2142     1.0  0.47491  0.71503  0.10903  1.0000
  H   H2143     1.0  0.44782  0.68920  0.23496  1.0000
  C   C1265     1.0  0.36127  0.95738  0.38898  1.0000
  H   H2144     1.0  0.44629  0.98236  0.33839  1.0000
  C   C1266     1.0  0.44049  0.67139  0.27024  1.0000
  H   H2145     1.0  0.36180  0.94330  0.35391  1.0000
  H   H2146     1.0  0.30267  0.93380  0.39948  1.0000
  H   H2147     1.0  0.36648  0.81975  0.08468  1.0000
  H   H2148     1.0  0.34097  0.84323  0.05122  1.0000
  H   H2149     1.0  0.35811  0.83804  0.07756  1.0000
  S   S364      1.0  0.47250  0.77343  0.21959  1.0000
  H   H2150     1.0  0.40729  0.85491  0.42945  1.0000
  C   C1267     1.0  0.35648  0.82615  0.09097  1.0000
  Fe  Fe178     1.0  0.48262  0.75778  0.19538  1.0000
  H   H2151     1.0  0.48457  0.97665  0.36489  1.0000
  H   H2152     1.0  0.48524  0.67118  0.22967  1.0000
  H   H2153     1.0  0.44233  0.95300  0.34759  1.0000
  H   H2154     1.0  0.47763  0.80654  0.23356  1.0000
  H   H2155     1.0  0.46522  0.83220  0.22050  1.0000
  H   H2156     1.0  0.30545  0.82993  0.08265  1.0000
  H   H2157     1.0  0.31473  0.85037  0.13401  1.0000
  H   H2158     1.0  0.35393  0.81895  0.27978  1.0000
  S   S365      1.0  0.24703  0.73852  0.15966  1.0000
  C   C1268     1.0  0.25083  0.82843  0.37044  1.0000
  H   H2159     1.0  0.47391  0.86105  0.24900  1.0000
  C   C1269     1.0  0.24786  0.78811  0.23539  1.0000
  H   H2160     1.0  0.36809  0.97425  0.35385  1.0000
  H   H2161     1.0  0.24736  0.83718  0.35654  1.0000
  H   H2162     1.0  0.35935  0.82985  0.10708  1.0000
  H   H2163     1.0  0.46071  0.67141  0.18085  1.0000
  H   H2164     1.0  0.47042  0.71595  0.13945  1.0000
  H   H2165     1.0  0.33764  0.84270  0.11068  1.0000
  C   C1270     1.0  0.32550  0.83232  0.11722  1.0000
  H   H2166     1.0  0.37385  0.95411  0.38561  1.0000
  H   H2167     1.0  0.31019  0.85028  0.10605  1.0000
  H   H2168     1.0  0.33755  0.85367  0.07512  1.0000
  C   C1271     1.0  0.26837  0.83774  0.37451  1.0000
  H   H2169     1.0  0.34309  0.92588  0.36312  1.0000
  H   H2170     1.0  0.46155  0.97427  0.37356  1.0000
  H   H2171     1.0  0.48159  0.66841  0.40621  1.0000
  H   H2172     1.0  0.42631  0.68681  0.25096  1.0000
  H   H2173     1.0  0.24015  0.96355  0.41180  1.0000
  H   H2174     1.0  0.41014  0.99541  0.33667  1.0000
  S   S366      1.0  0.35641  0.89437  0.98209  1.0000
  H   H2175     1.0  0.41546  0.97541  0.07641  1.0000
  H   H2176     1.0  0.25226  0.81482  0.41534  1.0000
  H   H2177     1.0  0.41452  0.92831  0.44383  1.0000
  C   C1272     1.0  0.47098  0.72276  0.12155  1.0000
  H   H2178     1.0  0.45294  0.97943  0.30998  1.0000
  H   H2179     1.0  0.26088  0.79583  0.22517  1.0000
  H   H2180     1.0  0.37369  0.98499  0.37583  1.0000
  H   H2181     1.0  0.24989  0.77389  0.20820  1.0000
  H   H2182     1.0  0.46406  0.86032  0.21302  1.0000
  H   H2183     1.0  0.36104  0.93536  0.42958  1.0000
  H   H2184     1.0  0.35103  0.91256  0.43591  1.0000
  H   H2185     1.0  0.48564  0.86412  0.19606  1.0000
  H   H2186     1.0  0.24608  0.77527  0.15394  1.0000
  H   H2187     1.0  0.42004  0.96751  0.05040  1.0000
  C   C1273     1.0  0.43069  0.99307  0.38138  1.0000
  H   H2188     1.0  0.24862  0.76193  0.23583  1.0000
  H   H2189     1.0  0.24161  0.98785  0.43177  1.0000
  H   H2190     1.0  0.44497  0.69948  0.25806  1.0000
  C   C1274     1.0  0.24269  0.77133  0.22650  1.0000
  H   H2191     1.0  0.43613  0.90794  0.44468  1.0000
  H   H2192     1.0  0.42844  0.66817  0.28384  1.0000
  H   H2193     1.0  0.44361  0.88302  0.46631  1.0000
  H   H2194     1.0  0.42585  0.66821  0.22613  1.0000
  H   H2195     1.0  0.41924  0.86616  0.46008  1.0000
  H   H2196     1.0  0.47765  0.97245  0.29061  1.0000
  H   H2197     1.0  0.26378  0.98237  0.45144  1.0000
  H   H2198     1.0  0.39455  0.91627  0.46444  1.0000
  C   C1275     1.0  0.42709  0.90090  0.46150  1.0000
  H   H2199     1.0  0.39080  0.85561  0.45248  1.0000
  H   H2200     1.0  0.23962  0.79705  0.23279  1.0000
  H   H2201     1.0  0.48209  0.74648  0.09655  1.0000
  C   C1276     1.0  0.48256  0.74158  0.11486  1.0000
  H   H2202     1.0  0.47608  0.74938  0.12528  1.0000
  N   N93       1.0  0.48563  0.84162  0.23759  1.0000
  H   H2203     1.0  0.47940  0.88076  0.20895  1.0000
  C   C1277     1.0  0.23938  0.96113  0.43081  1.0000
  C   C1278     1.0  0.25962  0.97648  0.47030  1.0000
  H   H2204     1.0  0.42442  0.91127  0.47045  1.0000
  H   H2205     1.0  0.47190  0.83479  0.53895  1.0000
  S   S367      1.0  0.28173  0.87864  0.81958  1.0000
  Fe  Fe179     1.0  0.28694  0.87066  0.85503  1.0000
  S   S368      1.0  0.31312  0.88455  0.85986  1.0000
  S   S369      1.0  0.27909  0.83387  0.79598  1.0000
  H   H2206     1.0  0.25068  0.90637  0.49270  1.0000
  Fe  Fe180     1.0  0.25057  0.97660  0.54707  1.0000
  S   S370      1.0  0.25784  0.95334  0.53490  1.0000
  Fe  Fe181     1.0  0.25536  0.87718  0.83950  1.0000
  S   S371      1.0  0.28001  0.97662  0.78260  1.0000
  H   H2207     1.0  0.26914  0.87897  0.58930  1.0000
  H   H2208     1.0  0.48251  0.86923  0.50141  1.0000
  S   S372      1.0  0.46571  0.69826  0.70970  1.0000
  S   S373      1.0  0.47169  0.74382  0.66172  1.0000
  Fe  Fe182     1.0  0.47196  0.67973  0.68710  1.0000
  Fe  Fe183     1.0  0.25801  0.76468  0.67185  1.0000
  H   H2209     1.0  0.40407  0.86096  0.89694  1.0000
  Fe  Fe184     1.0  0.43509  0.85279  0.71338  1.0000
  S   S374      1.0  0.45595  0.84146  0.69841  1.0000
  S   S375      1.0  0.43615  0.86893  0.74113  1.0000
  Fe  Fe185     1.0  0.41233  0.84029  0.68012  1.0000
  S   S376      1.0  0.43202  0.82853  0.66250  1.0000
  S   S377      1.0  0.38841  0.84170  0.66618  1.0000
  Fe  Fe186     1.0  0.43457  0.81829  0.69878  1.0000
  S   S378      1.0  0.43278  0.79004  0.71472  1.0000
  Fe  Fe187     1.0  0.45149  0.85281  0.66346  1.0000
  S   S379      1.0  0.47434  0.86945  0.63489  1.0000
  S   S380      1.0  0.41372  0.82875  0.71638  1.0000
  S   S381      1.0  0.43177  0.86538  0.67841  1.0000
  S   S382      1.0  0.46425  0.93830  0.87038  1.0000
  H   H2210     1.0  0.34861  0.75925  0.67858  1.0000
  S   S383      1.0  0.32657  0.91347  0.94859  1.0000
  S   S384      1.0  0.40040  0.89037  0.94810  1.0000
  H   H2211     1.0  0.39188  0.88829  0.87349  1.0000
  S   S385      1.0  0.37881  0.92878  0.94092  1.0000
  H   H2212     1.0  0.25424  0.93077  0.72290  1.0000
  H   H2213     1.0  0.46185  0.91112  0.71789  1.0000
  H   H2214     1.0  0.30769  0.83059  0.75839  1.0000
  S   S386      1.0  0.27875  0.84220  0.85531  1.0000
  Fe  Fe188     1.0  0.27494  0.80097  0.64023  1.0000
  S   S387      1.0  0.28450  0.77706  0.64889  1.0000
  S   S388      1.0  0.28260  0.81719  0.60304  1.0000
  Fe  Fe189     1.0  0.25850  0.79775  0.69077  1.0000
  S   S389      1.0  0.26621  0.77330  0.70295  1.0000
  Fe  Fe190     1.0  0.29194  0.78748  0.67906  1.0000
  S   S390      1.0  0.31557  0.78555  0.69371  1.0000
  H   H2215     1.0  0.40086  0.87133  0.49060  1.0000
  S   S391      1.0  0.28455  0.81235  0.66863  1.0000
  N   N94       1.0  0.26122  0.95871  0.72063  1.0000
  C   C1279     1.0  0.44630  0.92461  0.89127  1.0000
  C   C1280     1.0  0.43604  0.93221  0.90531  1.0000
  C   C1281     1.0  0.42196  0.92174  0.92275  1.0000
  C   C1282     1.0  0.41792  0.90359  0.92607  1.0000
  C   C1283     1.0  0.42802  0.89593  0.91186  1.0000
  C   C1284     1.0  0.44225  0.90643  0.89451  1.0000
  H   H2216     1.0  0.43912  0.94626  0.90289  1.0000
  H   H2217     1.0  0.41444  0.92778  0.93383  1.0000
  H   H2218     1.0  0.42495  0.88189  0.91438  1.0000
  H   H2219     1.0  0.45005  0.90049  0.88363  1.0000
  C   C1285     1.0  0.36852  0.82558  0.67354  1.0000
  C   C1286     1.0  0.36471  0.81114  0.69215  1.0000
  C   C1287     1.0  0.34846  0.79894  0.69797  1.0000
  C   C1288     1.0  0.33584  0.80113  0.68539  1.0000
  C   C1289     1.0  0.33961  0.81565  0.66690  1.0000
  C   C1290     1.0  0.35589  0.82778  0.66100  1.0000
  H   H2220     1.0  0.37419  0.80953  0.70222  1.0000
  H   H2221     1.0  0.34555  0.78783  0.71246  1.0000
  H   H2222     1.0  0.33001  0.81750  0.65710  1.0000
  H   H2223     1.0  0.35869  0.83899  0.64667  1.0000
  C   C1291     1.0  0.45289  0.87455  0.75596  1.0000
  C   C1292     1.0  0.46698  0.86738  0.75402  1.0000
  H   H2224     1.0  0.47240  0.88392  0.90877  1.0000
  C   C1293     1.0  0.46547  0.89232  0.78103  1.0000
  C   C1294     1.0  0.45219  0.88694  0.76965  1.0000
  H   H2225     1.0  0.26801  0.96798  0.47500  1.0000
  H   H2226     1.0  0.46482  0.90200  0.79127  1.0000
  H   H2227     1.0  0.44134  0.89253  0.77135  1.0000
  C   C1295     1.0  0.47210  0.87590  0.60602  1.0000
  H   H2228     1.0  0.30576  0.95775  0.90291  1.0000
  H   H2229     1.0  0.28847  0.97089  0.70560  1.0000
  C   C1296     1.0  0.46951  0.88627  0.55943  1.0000
  C   C1297     1.0  0.45558  0.87458  0.57612  1.0000
  C   C1298     1.0  0.45681  0.86948  0.59934  1.0000
  H   H2230     1.0  0.27584  0.91659  0.85789  1.0000
  H   H2231     1.0  0.29924  0.83315  0.72212  1.0000
  H   H2232     1.0  0.44375  0.86943  0.57110  1.0000
  H   H2233     1.0  0.44597  0.86052  0.61203  1.0000
  H   H2234     1.0  0.45436  0.90877  0.66990  1.0000
  C   C1299     1.0  0.46107  0.75650  0.67705  1.0000
  C   C1300     1.0  0.46220  0.77368  0.66583  1.0000
  C   C1301     1.0  0.45370  0.78418  0.67723  1.0000
  C   C1302     1.0  0.44375  0.77742  0.69980  1.0000
  C   C1303     1.0  0.44234  0.76014  0.71090  1.0000
  C   C1304     1.0  0.45112  0.74974  0.69967  1.0000
  H   H2235     1.0  0.46980  0.77894  0.64827  1.0000
  H   H2236     1.0  0.45484  0.79747  0.66852  1.0000
  H   H2237     1.0  0.43444  0.75479  0.72827  1.0000
  H   H2238     1.0  0.44996  0.73642  0.70829  1.0000
  C   C1305     1.0  0.25019  0.81334  0.59385  1.0000
  C   C1306     1.0  0.26870  0.82763  0.77415  1.0000
  C   C1307     1.0  0.24667  0.74310  0.60467  1.0000
  C   C1308     1.0  0.27418  0.95255  0.85404  1.0000
  C   C1309     1.0  0.31685  0.89161  0.88520  1.0000
  C   C1310     1.0  0.33234  0.90392  0.88385  1.0000
  C   C1311     1.0  0.33587  0.90996  0.90355  1.0000
  C   C1312     1.0  0.32378  0.90397  0.92471  1.0000
  C   C1313     1.0  0.30823  0.89170  0.92605  1.0000
  C   C1314     1.0  0.30481  0.88544  0.90642  1.0000
  H   H2239     1.0  0.34164  0.90888  0.86744  1.0000
  H   H2240     1.0  0.34766  0.91976  0.90218  1.0000
  H   H2241     1.0  0.29281  0.87599  0.90765  1.0000
  C   C1315     1.0  0.27306  0.81439  0.76396  1.0000
  C   C1316     1.0  0.26607  0.80971  0.74548  1.0000
  H   H2242     1.0  0.28190  0.80766  0.77036  1.0000
  H   H2243     1.0  0.26966  0.79958  0.73767  1.0000
  C   C1317     1.0  0.25192  0.91964  0.81833  1.0000
  H   H2244     1.0  0.37186  0.86614  0.49428  1.0000
  C   C1318     1.0  0.26883  0.95486  0.79666  1.0000
  C   C1319     1.0  0.27800  0.94212  0.79801  1.0000
  C   C1320     1.0  0.26960  0.92457  0.80880  1.0000
  C   C1321     1.0  0.25114  0.94996  0.80612  1.0000
  H   H2245     1.0  0.29167  0.94581  0.79058  1.0000
  H   H2246     1.0  0.27677  0.91486  0.80963  1.0000
  H   H2247     1.0  0.46202  0.75258  0.77340  1.0000
  H   H2248     1.0  0.26737  0.92963  0.50824  1.0000
  H   H2249     1.0  0.36163  0.74430  0.67659  1.0000
  H   H2250     1.0  0.28801  0.83244  0.55457  1.0000
  H   H2251     1.0  0.39899  0.89274  0.49116  1.0000
  C   C1322     1.0  0.25350  0.92683  0.51177  1.0000
  C   C1323     1.0  0.26793  0.81971  0.58517  1.0000
  N   N95       1.0  0.28812  0.93271  0.87909  1.0000
  C   C1324     1.0  0.30361  0.93363  0.88960  1.0000
  C   C1325     1.0  0.28834  0.92030  0.86301  1.0000
  C   C1326     1.0  0.27164  0.92606  0.89747  1.0000
  C   C1327     1.0  0.28900  0.95083  0.86626  1.0000
  C   C1328     1.0  0.30453  0.94367  0.90916  1.0000
  N   N96       1.0  0.25100  0.76015  0.58708  1.0000
  C   C1329     1.0  0.26946  0.90836  0.91410  1.0000
  H   H2252     1.0  0.24037  0.83726  0.74181  1.0000
  H   H2253     1.0  0.30458  0.92037  0.89669  1.0000
  H   H2254     1.0  0.31568  0.93982  0.87611  1.0000
  H   H2255     1.0  0.25651  0.91481  0.56213  1.0000
  H   H2256     1.0  0.28992  0.90768  0.87205  1.0000
  H   H2257     1.0  0.44978  0.91935  0.94757  1.0000
  H   H2258     1.0  0.25328  0.84597  0.77399  1.0000
  C   C1330     1.0  0.27748  0.97296  0.71754  1.0000
  H   H2259     1.0  0.24396  0.95969  0.80518  1.0000
  C   C1331     1.0  0.36027  0.75602  0.68317  1.0000
  C   C1332     1.0  0.24518  0.93666  0.52472  1.0000
  H   H2260     1.0  0.44755  0.90075  0.48021  1.0000
  C   C1333     1.0  0.24407  0.91360  0.50300  1.0000
  Fe  Fe191     1.0  0.38405  0.90630  0.96373  1.0000
  H   H2261     1.0  0.25492  0.95965  0.75695  1.0000
  H   H2262     1.0  0.27481  0.99410  0.69061  1.0000
  H   H2263     1.0  0.37256  0.88805  0.48252  1.0000
  H   H2264     1.0  0.26840  0.94064  0.84859  1.0000
  H   H2265     1.0  0.31625  0.94274  0.91571  1.0000
  C   C1334     1.0  0.25805  0.79418  0.84873  1.0000
  H   H2266     1.0  0.48453  0.89938  0.72707  1.0000
  H   H2267     1.0  0.30131  0.93833  0.82910  1.0000
  H   H2268     1.0  0.30149  0.95694  0.85352  1.0000
  H   H2269     1.0  0.26194  0.98706  0.47980  1.0000
  C   C1335     1.0  0.27639  0.99175  0.70878  1.0000
  H   H2270     1.0  0.27069  0.89449  0.55559  1.0000
  C   C1336     1.0  0.27218  0.93564  0.74489  1.0000
  C   C1337     1.0  0.25729  0.75715  0.56339  1.0000
  S   S392      1.0  0.24881  0.86714  0.48626  1.0000
  H   H2271     1.0  0.26619  0.80100  0.85907  1.0000
  C   C1338     1.0  0.26303  0.82871  0.54631  1.0000
  N   N97       1.0  0.37057  0.86925  0.89844  1.0000
  C   C1339     1.0  0.37777  0.85497  0.89091  1.0000
  C   C1340     1.0  0.35632  0.87105  0.88612  1.0000
  C   C1341     1.0  0.36354  0.86378  0.92454  1.0000
  C   C1342     1.0  0.38503  0.88576  0.89199  1.0000
  C   C1343     1.0  0.39196  0.85033  0.90277  1.0000
  C   C1344     1.0  0.36139  0.87627  0.85933  1.0000
  C   C1345     1.0  0.34791  0.86998  0.93478  1.0000
  C   C1346     1.0  0.38014  0.90249  0.89576  1.0000
  H   H2272     1.0  0.36729  0.84274  0.89396  1.0000
  H   H2273     1.0  0.38359  0.85852  0.87195  1.0000
  H   H2274     1.0  0.35014  0.88095  0.89155  1.0000
  H   H2275     1.0  0.34591  0.85861  0.89111  1.0000
  H   H2276     1.0  0.35919  0.84928  0.93047  1.0000
  H   H2277     1.0  0.37376  0.86793  0.93394  1.0000
  H   H2278     1.0  0.46863  0.91255  0.91765  1.0000
  H   H2279     1.0  0.25796  0.78024  0.85317  1.0000
  H   H2280     1.0  0.34714  0.85362  0.69591  1.0000
  H   H2281     1.0  0.25686  0.90481  0.92666  1.0000
  C   C1347     1.0  0.47970  0.88538  0.77880  1.0000
  H   H2282     1.0  0.34995  0.87830  0.85278  1.0000
  H   H2283     1.0  0.37153  0.88875  0.85276  1.0000
  H   H2284     1.0  0.36528  0.86585  0.85168  1.0000
  H   H2285     1.0  0.33610  0.86348  0.92974  1.0000
  H   H2286     1.0  0.34994  0.88425  0.92987  1.0000
  H   H2287     1.0  0.34531  0.86629  0.95404  1.0000
  C   C1348     1.0  0.46421  0.72849  0.76353  1.0000
  C   C1349     1.0  0.26410  0.77371  0.54350  1.0000
  H   H2288     1.0  0.37502  0.90156  0.91434  1.0000
  C   C1350     1.0  0.23990  0.79690  0.85493  1.0000
  C   C1351     1.0  0.48206  0.99432  0.47518  1.0000
  H   H2289     1.0  0.28806  0.76773  0.57524  1.0000
  C   C1352     1.0  0.30266  0.92662  0.84065  1.0000
  H   H2290     1.0  0.25419  0.78086  0.54142  1.0000
  H   H2291     1.0  0.29870  0.88721  0.94229  1.0000
  H   H2292     1.0  0.47330  0.67009  0.63049  1.0000
  H   H2293     1.0  0.26936  0.89769  0.90475  1.0000
  H   H2294     1.0  0.25816  0.73795  0.60463  1.0000
  Fe  Fe192     1.0  0.27126  0.84997  0.82153  1.0000
  H   H2295     1.0  0.48324  0.75359  0.71464  1.0000
  C   C1353     1.0  0.43716  0.89107  0.47614  1.0000
  C   C1354     1.0  0.27348  0.87416  0.53823  1.0000
  S   S393      1.0  0.24809  0.78815  0.66143  1.0000
  S   S394      1.0  0.46761  0.89154  0.53019  1.0000
  H   H2296     1.0  0.30172  0.91615  0.83080  1.0000
  Fe  Fe193     1.0  0.24288  0.99501  0.58706  1.0000
  H   H2297     1.0  0.37103  0.90584  0.88524  1.0000
  H   H2298     1.0  0.29116  0.78048  0.59615  1.0000
  C   C1355     1.0  0.28217  0.76925  0.59256  1.0000
  H   H2299     1.0  0.33105  0.87130  0.71261  1.0000
  H   H2300     1.0  0.27569  0.86512  0.55291  1.0000
  H   H2301     1.0  0.33311  0.81019  0.74077  1.0000
  H   H2302     1.0  0.26775  0.86672  0.52641  1.0000
  H   H2303     1.0  0.24006  0.85776  0.54089  1.0000
  H   H2304     1.0  0.37269  0.77670  0.71658  1.0000
  H   H2305     1.0  0.28631  0.88237  0.52809  1.0000
  C   C1356     1.0  0.45936  0.88276  0.94490  1.0000
  H   H2306     1.0  0.24515  0.80733  0.61211  1.0000
  C   C1357     1.0  0.24532  0.82198  0.55492  1.0000
  H   H2307     1.0  0.24548  0.79670  0.80839  1.0000
  C   C1358     1.0  0.26456  0.77326  0.59354  1.0000
  H   H2308     1.0  0.32924  0.83522  0.76037  1.0000
  H   H2309     1.0  0.26035  0.92441  0.88931  1.0000
  H   H2310     1.0  0.30927  0.86224  0.69356  1.0000
  H   H2311     1.0  0.31066  0.80571  0.73952  1.0000
  H   H2312     1.0  0.47537  0.85600  0.54601  1.0000
  H   H2313     1.0  0.37304  0.78334  0.67785  1.0000
  C   C1359     1.0  0.46280  0.90370  0.96925  1.0000
  C   C1360     1.0  0.47894  0.91193  0.92733  1.0000
  H   H2314     1.0  0.48307  0.98066  0.47930  1.0000
  C   C1361     1.0  0.26437  0.96205  0.67622  1.0000
  H   H2315     1.0  0.45013  0.72263  0.76966  1.0000
  S   S395      1.0  0.24505  0.81203  0.71445  1.0000
  H   H2316     1.0  0.39193  0.91356  0.89027  1.0000
  H   H2317     1.0  0.45385  0.87220  0.96099  1.0000
  H   H2318     1.0  0.29353  0.93798  0.92429  1.0000
  H   H2319     1.0  0.33502  0.86507  0.74012  1.0000
  S   S396      1.0  0.48326  0.70107  0.65480  1.0000
  H   H2320     1.0  0.44475  0.89444  0.69791  1.0000
  H   H2321     1.0  0.34265  0.83097  0.70695  1.0000
  H   H2322     1.0  0.26808  0.83433  0.52794  1.0000
  H   H2323     1.0  0.44176  0.91578  0.69200  1.0000
  C   C1362     1.0  0.44716  0.91039  0.96480  1.0000
  C   C1363     1.0  0.48401  0.67484  0.61472  1.0000
  H   H2324     1.0  0.31564  0.92912  0.84442  1.0000
  Fe  Fe194     1.0  0.38363  0.94261  0.96963  1.0000
  H   H2325     1.0  0.23832  0.72063  0.58944  1.0000
  C   C1364     1.0  0.31313  0.85063  0.68939  1.0000
  H   H2326     1.0  0.30761  0.86167  0.76053  1.0000
  H   H2327     1.0  0.31444  0.82529  0.70568  1.0000
  H   H2328     1.0  0.26078  0.97078  0.66244  1.0000
  H   H2329     1.0  0.35997  0.85936  0.73011  1.0000
  Fe  Fe195     1.0  0.48513  0.92703  0.85473  1.0000
  C   C1365     1.0  0.25678  0.83579  0.76623  1.0000
  H   H2330     1.0  0.35782  0.75293  0.70240  1.0000
  N   N98       1.0  0.39293  0.76962  0.67624  1.0000
  C   C1366     1.0  0.39226  0.76421  0.70185  1.0000
  C   C1367     1.0  0.39749  0.75556  0.66480  1.0000
  H   H2331     1.0  0.46439  0.78423  0.73673  1.0000
  C   C1368     1.0  0.40612  0.78691  0.66647  1.0000
  C   C1369     1.0  0.38594  0.77598  0.71717  1.0000
  C   C1370     1.0  0.41629  0.75458  0.66230  1.0000
  Fe  Fe196     1.0  0.35151  0.91795  0.96120  1.0000
  C   C1371     1.0  0.40914  0.79426  0.64003  1.0000
  H   H2332     1.0  0.38405  0.75066  0.70933  1.0000
  H   H2333     1.0  0.40520  0.76379  0.70474  1.0000
  H   H2334     1.0  0.39460  0.75674  0.64725  1.0000
  H   H2335     1.0  0.38933  0.74244  0.67470  1.0000
  C   C1372     1.0  0.25720  0.86879  0.59820  1.0000
  Fe  Fe197     1.0  0.47902  0.71970  0.67773  1.0000
  H   H2336     1.0  0.40227  0.79714  0.67474  1.0000
  H   H2337     1.0  0.41868  0.78666  0.67101  1.0000
  H   H2338     1.0  0.39474  0.78930  0.71273  1.0000
  C   C1373     1.0  0.48518  0.85668  0.50881  1.0000
  H   H2339     1.0  0.23832  0.76858  0.83302  1.0000
  H   H2340     1.0  0.41994  0.75254  0.67928  1.0000
  C   C1374     1.0  0.46778  0.74857  0.75769  1.0000
  H   H2341     1.0  0.42546  0.76636  0.65031  1.0000
  H   H2342     1.0  0.26248  0.94886  0.67241  1.0000
  H   H2343     1.0  0.26750  0.75011  0.56355  1.0000
  S   S397      1.0  0.24095  0.89776  0.83220  1.0000
  H   H2344     1.0  0.40125  0.80358  0.63654  1.0000
  H   H2345     1.0  0.40625  0.78417  0.63002  1.0000
  H   H2346     1.0  0.42292  0.80128  0.63293  1.0000
  C   C1375     1.0  0.46607  0.87424  0.92532  1.0000
  H   H2347     1.0  0.39497  0.83862  0.89760  1.0000
  H   H2348     1.0  0.26224  0.93323  0.76106  1.0000
  C   C1376     1.0  0.37590  0.77182  0.67197  1.0000
  H   H2349     1.0  0.47759  0.77911  0.71305  1.0000
  H   H2350     1.0  0.36989  0.84670  0.71340  1.0000
  H   H2351     1.0  0.26159  0.85740  0.60575  1.0000
  C   C1377     1.0  0.25431  0.81797  0.73733  1.0000
  H   H2352     1.0  0.42894  0.88290  0.49292  1.0000
  H   H2353     1.0  0.32591  0.85469  0.67725  1.0000
  H   H2354     1.0  0.31667  0.80374  0.76681  1.0000
  C   C1378     1.0  0.24536  0.86320  0.58202  1.0000
  H   H2355     1.0  0.26015  0.77480  0.61148  1.0000
  H   H2356     1.0  0.47080  0.88908  0.67522  1.0000
  H   H2357     1.0  0.27823  0.96762  0.67468  1.0000
  S   S398      1.0  0.48399  0.89884  0.85604  1.0000
  C   C1379     1.0  0.24272  0.93238  0.81684  1.0000
  S   S399      1.0  0.26105  0.87068  0.87496  1.0000
  H   H2358     1.0  0.30775  0.87708  0.73462  1.0000
  Fe  Fe198     1.0  0.25221  0.84262  0.87240  1.0000
  H   H2359     1.0  0.29714  0.85478  0.73865  1.0000
  C   C1380     1.0  0.26267  0.88612  0.54670  1.0000
  H   H2360     1.0  0.26171  0.89528  0.53107  1.0000
  H   H2361     1.0  0.24139  0.95037  0.70240  1.0000
  H   H2362     1.0  0.26378  0.95585  0.86552  1.0000
  H   H2363     1.0  0.24857  0.85173  0.57625  1.0000
  C   C1381     1.0  0.24713  0.90548  0.57724  1.0000
  H   H2364     1.0  0.44828  0.88701  0.93999  1.0000
  H   H2365     1.0  0.24467  0.97165  0.73914  1.0000
  H   H2366     1.0  0.24678  0.74833  0.55822  1.0000
  H   H2367     1.0  0.48518  0.93115  0.72503  1.0000
  C   C1382     1.0  0.48031  0.87284  0.76530  1.0000
  S   S400      1.0  0.24677  0.73579  0.67208  1.0000
  H   H2368     1.0  0.27944  0.90885  0.92442  1.0000
  H   H2369     1.0  0.45935  0.84926  0.53063  1.0000
  C   C1383     1.0  0.45127  0.90814  0.68872  1.0000
  H   H2370     1.0  0.27915  0.96305  0.83792  1.0000
  S   S401      1.0  0.40298  0.96930  0.95924  1.0000
  H   H2371     1.0  0.24040  0.95228  0.47520  1.0000
  H   H2372     1.0  0.47678  0.93863  0.92712  1.0000
  H   H2373     1.0  0.46006  0.75180  0.74488  1.0000
  S   S402      1.0  0.24431  0.84904  0.83857  1.0000
  N   N99       1.0  0.47212  0.89779  0.94939  1.0000
  H   H2374     1.0  0.26694  0.78643  0.58224  1.0000
  H   H2375     1.0  0.46637  0.67953  0.59183  1.0000
  H   H2376     1.0  0.26780  0.76983  0.52688  1.0000
  C   C1384     1.0  0.39792  0.88280  0.48040  1.0000
  H   H2377     1.0  0.27555  0.92311  0.74441  1.0000
  C   C1385     1.0  0.37870  0.87744  0.47958  1.0000
  H   H2378     1.0  0.28394  0.94524  0.74579  1.0000
  H   H2379     1.0  0.38805  0.84718  0.92200  1.0000
  H   H2380     1.0  0.39491  0.88440  0.90217  1.0000
  C   C1386     1.0  0.24956  0.83090  0.74793  1.0000
  H   H2381     1.0  0.47741  0.92589  0.64704  1.0000
  H   H2382     1.0  0.41788  0.74326  0.65479  1.0000
  C   C1387     1.0  0.30860  0.86367  0.74148  1.0000
  H   H2383     1.0  0.27008  0.93576  0.90819  1.0000
  C   C1388     1.0  0.32036  0.81159  0.74864  1.0000
  H   H2384     1.0  0.37631  0.77481  0.65300  1.0000
  H   H2385     1.0  0.46769  0.85777  0.74369  1.0000
  C   C1389     1.0  0.35778  0.84656  0.72526  1.0000
  H   H2386     1.0  0.45501  0.86508  0.92180  1.0000
  H   H2387     1.0  0.30373  0.84452  0.68005  1.0000
  H   H2388     1.0  0.35581  0.83593  0.74075  1.0000
  C   C1390     1.0  0.26552  0.94139  0.72308  1.0000
  C   C1391     1.0  0.27428  0.82757  0.56142  1.0000
  N   N100      1.0  0.32550  0.84316  0.72553  1.0000
  C   C1392     1.0  0.34303  0.84342  0.71238  1.0000
  C   C1393     1.0  0.31262  0.83725  0.71148  1.0000
  C   C1394     1.0  0.32066  0.83073  0.74896  1.0000
  C   C1395     1.0  0.32584  0.86121  0.72917  1.0000
  H   H2389     1.0  0.28166  0.97273  0.73425  1.0000
  H   H2390     1.0  0.26441  0.79984  0.83021  1.0000
  H   H2391     1.0  0.38579  0.77037  0.73552  1.0000
  C   C1396     1.0  0.23895  0.81447  0.57876  1.0000
  H   H2392     1.0  0.25021  0.87317  0.61266  1.0000
  H   H2393     1.0  0.28880  0.95973  0.87840  1.0000
  H   H2394     1.0  0.28142  0.75765  0.60614  1.0000
  C   C1397     1.0  0.24872  0.95933  0.74194  1.0000
  C   C1398     1.0  0.47246  0.84872  0.53260  1.0000
  S   S403      1.0  0.26742  0.99194  0.56649  1.0000
  C   C1399     1.0  0.46693  0.91511  0.69866  1.0000
  C   C1400     1.0  0.48476  0.89279  0.56614  1.0000
  H   H2395     1.0  0.27575  0.78269  0.54586  1.0000
  C   C1401     1.0  0.47826  0.68657  0.59610  1.0000
  H   H2396     1.0  0.27557  0.94159  0.70783  1.0000
  C   C1402     1.0  0.25307  0.96123  0.70010  1.0000
  C   C1403     1.0  0.47800  0.89042  0.68911  1.0000
  H   H2397     1.0  0.43576  0.89940  0.96643  1.0000
  H   H2398     1.0  0.23695  0.96397  0.49705  1.0000
  C   C1404     1.0  0.24067  0.96558  0.47788  1.0000
  H   H2399     1.0  0.47488  0.86638  0.93032  1.0000
  H   H2400     1.0  0.47531  0.69771  0.60304  1.0000
  H   H2401     1.0  0.24177  0.81124  0.85228  1.0000
  H   H2402     1.0  0.46899  0.88188  0.70523  1.0000
  H   H2403     1.0  0.24802  0.97292  0.69886  1.0000
  C   C1405     1.0  0.48612  0.93081  0.92986  1.0000
  H   H2404     1.0  0.25386  0.90119  0.59068  1.0000
  H   H2405     1.0  0.23858  0.91300  0.58466  1.0000
  H   H2406     1.0  0.48128  0.84774  0.49747  1.0000
  S   S404      1.0  0.48396  0.93860  0.48957  1.0000
  H   H2407     1.0  0.26591  0.99499  0.72006  1.0000
  N   N101      1.0  0.24499  0.87701  0.56170  1.0000
  H   H2408     1.0  0.47023  0.72370  0.77766  1.0000
  H   H2409     1.0  0.48445  0.79936  0.72031  1.0000
  S   S405      1.0  0.23892  0.81812  0.90092  1.0000
  C   C1406     1.0  0.47785  0.78535  0.72799  1.0000
  H   H2410     1.0  0.24327  0.74481  0.62274  1.0000
  H   H2411     1.0  0.46996  0.92963  0.69425  1.0000
  H   H2412     1.0  0.46842  0.72346  0.74807  1.0000
  C   C1407     1.0  0.48606  0.88756  0.58931  1.0000
  H   H2413     1.0  0.23944  0.78108  0.57678  1.0000
  H   H2414     1.0  0.47854  0.74719  0.79881  1.0000
  H   H2415     1.0  0.48215  0.78064  0.76217  1.0000
  N   N102      1.0  0.48288  0.90902  0.69179  1.0000
  C   C1408     1.0  0.48635  0.89079  0.95691  1.0000
  N   N103      1.0  0.48635  0.75855  0.74842  1.0000
  H   H2416     1.0  0.47748  0.99657  0.89892  1.0000
  H   H2417     1.0  0.48664  0.90783  0.64312  1.0000
  H   H2418     1.0  0.47624  0.99704  0.49184  1.0000
  H   H2419     1.0  0.57298  0.07179  0.99317  1.0000
  S   S406      1.0  0.72307  0.12972  0.34934  1.0000
  Fe  Fe199     1.0  0.72651  0.13185  0.38494  1.0000
  S   S407      1.0  0.70633  0.11425  0.41586  1.0000
  H   H2420     1.0  0.51030  0.18168  0.19629  1.0000
  S   S408      1.0  0.69414  0.11429  0.99367  1.0000
  C   C1409     1.0  0.50401  0.17946  0.05201  1.0000
  Fe  Fe200     1.0  0.70262  0.13785  0.00841  1.0000
  S   S409      1.0  0.69086  0.13597  0.04654  1.0000
  Fe  Fe201     1.0  0.72158  0.01642  0.29510  1.0000
  S   S410      1.0  0.71336  0.03638  0.31438  1.0000
  H   H2421     1.0  0.53473  0.14386  0.25276  1.0000
  S   S411      1.0  0.70097  0.01922  0.04071  1.0000
  C   C1410     1.0  0.50700  0.19466  0.06462  1.0000
  H   H2422     1.0  0.71799  0.12320  0.11033  1.0000
  C   C1411     1.0  0.68473  0.00068  0.99226  1.0000
  H   H2423     1.0  0.50152  0.16125  0.01799  1.0000
  S   S412      1.0  0.50555  0.29768  0.12835  1.0000
  S   S413      1.0  0.50719  0.25368  0.17287  1.0000
  H   H2424     1.0  0.49904  0.09418  0.39393  1.0000
  Fe  Fe202     1.0  0.49521  0.27537  0.16016  1.0000
  Fe  Fe203     1.0  0.51721  0.14128  0.18299  1.0000
  S   S414      1.0  0.53386  0.12575  0.16752  1.0000
  H   H2425     1.0  0.50839  0.07151  0.46659  1.0000
  Fe  Fe204     1.0  0.52956  0.17138  0.14035  1.0000
  S   S415      1.0  0.54768  0.15829  0.12212  1.0000
  S   S416      1.0  0.52427  0.19564  0.12073  1.0000
  Fe  Fe205     1.0  0.52562  0.13406  0.13423  1.0000
  S   S417      1.0  0.52303  0.11800  0.10664  1.0000
  Fe  Fe206     1.0  0.55466  0.15114  0.15652  1.0000
  S   S418      1.0  0.58069  0.14779  0.16252  1.0000
  S   S419      1.0  0.50715  0.14754  0.15072  1.0000
  S   S420      1.0  0.53834  0.16632  0.17375  1.0000
  Fe  Fe207     1.0  0.70482  0.19613  0.13883  1.0000
  S   S421      1.0  0.69326  0.21851  0.14165  1.0000
  S   S422      1.0  0.71469  0.19441  0.10154  1.0000
  Fe  Fe208     1.0  0.70229  0.18760  0.19125  1.0000
  S   S423      1.0  0.69034  0.20947  0.19746  1.0000
  S   S424      1.0  0.70992  0.16822  0.21729  1.0000
  Fe  Fe209     1.0  0.67413  0.20050  0.17268  1.0000
  S   S425      1.0  0.64658  0.20246  0.17410  1.0000
  Fe  Fe210     1.0  0.71043  0.22578  0.16573  1.0000
  H   H2426     1.0  0.50290  0.10047  0.21653  1.0000
  S   S426      1.0  0.68473  0.17754  0.16855  1.0000
  S   S427      1.0  0.72329  0.20445  0.16092  1.0000
  C   C1412     1.0  0.70852  0.18349  0.27869  1.0000
  C   C1413     1.0  0.59862  0.16319  0.16630  1.0000
  C   C1414     1.0  0.61279  0.15742  0.17145  1.0000
  C   C1415     1.0  0.62751  0.16920  0.17410  1.0000
  C   C1416     1.0  0.62824  0.18693  0.17152  1.0000
  C   C1417     1.0  0.61396  0.19264  0.16671  1.0000
  C   C1418     1.0  0.59923  0.18086  0.16407  1.0000
  H   H2427     1.0  0.61243  0.14376  0.17328  1.0000
  H   H2428     1.0  0.63828  0.16458  0.17818  1.0000
  H   H2429     1.0  0.61433  0.20631  0.16488  1.0000
  H   H2430     1.0  0.58842  0.18549  0.16019  1.0000
  C   C1419     1.0  0.50529  0.10964  0.09481  1.0000
  C   C1420     1.0  0.50834  0.10315  0.07464  1.0000
  C   C1421     1.0  0.49722  0.32228  0.23558  1.0000
  H   H2431     1.0  0.52123  0.10275  0.06726  1.0000
  C   C1422     1.0  0.51311  0.23872  0.15690  1.0000
  C   C1423     1.0  0.50877  0.23762  0.13560  1.0000
  C   C1424     1.0  0.51281  0.22472  0.12424  1.0000
  C   C1425     1.0  0.52103  0.21274  0.13424  1.0000
  C   C1426     1.0  0.52565  0.21406  0.15531  1.0000
  C   C1427     1.0  0.52177  0.22705  0.16651  1.0000
  H   H2432     1.0  0.73242  0.32176  0.17995  1.0000
  C   C1428     1.0  0.72131  0.25421  0.08264  1.0000
  H   H2433     1.0  0.53216  0.20505  0.16301  1.0000
  H   H2434     1.0  0.52533  0.22795  0.18287  1.0000
  H   H2435     1.0  0.67789  0.02382  0.97470  1.0000
  H   H2436     1.0  0.52839  0.03145  0.46385  1.0000
  C   C1429     1.0  0.50133  0.14852  0.02877  1.0000
  H   H2437     1.0  0.71562  0.32196  0.23998  1.0000
  H   H2438     1.0  0.49471  0.29734  0.25954  1.0000
  H   H2439     1.0  0.64069  0.14875  0.46648  1.0000
  C   C1430     1.0  0.49881  0.10058  0.23463  1.0000
  C   C1431     1.0  0.57394  0.13611  0.23149  1.0000
  H   H2440     1.0  0.68085  0.02466  0.00358  1.0000
  C   C1432     1.0  0.55904  0.11047  0.21836  1.0000
  H   H2441     1.0  0.51202  0.18432  0.03398  1.0000
  C   C1433     1.0  0.54121  0.07798  0.40887  1.0000
  C   C1434     1.0  0.52367  0.07120  0.41007  1.0000
  C   C1435     1.0  0.51177  0.06897  0.43090  1.0000
  C   C1436     1.0  0.51750  0.07356  0.45034  1.0000
  H   H2442     1.0  0.55128  0.13990  0.20422  1.0000
  C   C1437     1.0  0.49681  0.14781  0.05504  1.0000
  S   S428      1.0  0.72486  0.25491  0.15600  1.0000
  H   H2443     1.0  0.49160  0.31137  0.98115  1.0000
  H   H2444     1.0  0.66629  0.00342  0.03157  1.0000
  H   H2445     1.0  0.54759  0.12477  0.26864  1.0000
  C   C1438     1.0  0.69817  0.15205  0.06175  1.0000
  C   C1439     1.0  0.70925  0.16834  0.05016  1.0000
  C   C1440     1.0  0.71430  0.18104  0.06271  1.0000
  C   C1441     1.0  0.70842  0.17759  0.08695  1.0000
  C   C1442     1.0  0.69770  0.16113  0.09865  1.0000
  C   C1443     1.0  0.69250  0.14846  0.08606  1.0000
  H   H2446     1.0  0.69340  0.15819  0.11735  1.0000
  H   H2447     1.0  0.68403  0.13583  0.09518  1.0000
  Fe  Fe211     1.0  0.72226  0.11876  0.97869  1.0000
  H   H2448     1.0  0.54843  0.03453  0.44438  1.0000
  H   H2449     1.0  0.61584  0.10337  0.99008  1.0000
  C   C1444     1.0  0.71121  0.04069  0.02401  1.0000
  C   C1445     1.0  0.70109  0.05246  0.02063  1.0000
  C   C1446     1.0  0.70841  0.06958  0.00723  1.0000
  C   C1447     1.0  0.48851  0.10994  0.10425  1.0000
  H   H2450     1.0  0.53276  0.12552  0.22394  1.0000
  H   H2451     1.0  0.68746  0.04828  0.02833  1.0000
  H   H2452     1.0  0.70042  0.07838  0.00452  1.0000
  C   C1448     1.0  0.64978  0.11434  0.42327  1.0000
  C   C1449     1.0  0.66254  0.12723  0.40629  1.0000
  C   C1450     1.0  0.67991  0.12708  0.40337  1.0000
  C   C1451     1.0  0.68461  0.11403  0.41749  1.0000
  C   C1452     1.0  0.67181  0.10087  0.43398  1.0000
  C   C1453     1.0  0.65444  0.10096  0.43681  1.0000
  H   H2453     1.0  0.65902  0.13764  0.39578  1.0000
  H   H2454     1.0  0.68970  0.13732  0.39067  1.0000
  H   H2455     1.0  0.67538  0.09066  0.44479  1.0000
  H   H2456     1.0  0.69511  0.14585  0.44436  1.0000
  C   C1454     1.0  0.71186  0.16981  0.24581  1.0000
  C   C1455     1.0  0.71981  0.15858  0.25800  1.0000
  C   C1456     1.0  0.72245  0.16004  0.28023  1.0000
  C   C1457     1.0  0.71690  0.17260  0.29060  1.0000
  C   C1458     1.0  0.70609  0.18219  0.25634  1.0000
  H   H2457     1.0  0.50924  0.22381  0.10791  1.0000
  C   C1459     1.0  0.53887  0.17659  0.06348  1.0000
  H   H2458     1.0  0.69982  0.19079  0.24722  1.0000
  H   H2459     1.0  0.70833  0.29807  0.21340  1.0000
  C   C1460     1.0  0.72064  0.06539  0.33278  1.0000
  C   C1461     1.0  0.72616  0.05712  0.31520  1.0000
  N   N104      1.0  0.72293  0.10076  0.06544  1.0000
  H   H2460     1.0  0.72952  0.30051  0.24102  1.0000
  H   H2461     1.0  0.70889  0.05885  0.34570  1.0000
  H   H2462     1.0  0.66694  0.10214  0.30189  1.0000
  C   C1462     1.0  0.71539  0.11119  0.08107  1.0000
  S   S429      1.0  0.72087  0.17575  0.31780  1.0000
  C   C1463     1.0  0.66562  0.09859  0.32104  1.0000
  H   H2463     1.0  0.70662  0.11405  0.28349  1.0000
  Fe  Fe212     1.0  0.50053  0.31496  0.15327  1.0000
  H   H2464     1.0  0.52758  0.14967  0.06403  1.0000
  H   H2465     1.0  0.49009  0.08928  0.45688  1.0000
  H   H2466     1.0  0.54551  0.09183  0.28475  1.0000
  H   H2467     1.0  0.69160  0.12513  0.46308  1.0000
  S   S430      1.0  0.62845  0.11614  0.42822  1.0000
  C   C1464     1.0  0.52578  0.16266  0.05656  1.0000
  H   H2468     1.0  0.50893  0.12288  0.40499  1.0000
  H   H2469     1.0  0.71376  0.17123  0.03147  1.0000
  H   H2470     1.0  0.66873  0.07155  0.32861  1.0000
  H   H2471     1.0  0.53601  0.17618  0.08231  1.0000
  C   C1465     1.0  0.50410  0.01961  0.42315  1.0000
  H   H2472     1.0  0.60077  0.13894  0.23257  1.0000
  H   H2473     1.0  0.49873  0.17091  0.22568  1.0000
  H   H2474     1.0  0.71094  0.99878  0.13769  1.0000
  C   C1466     1.0  0.50132  0.11093  0.41838  1.0000
  H   H2475     1.0  0.59355  0.12500  0.21444  1.0000
  H   H2476     1.0  0.49638  0.07314  0.24696  1.0000
  H   H2477     1.0  0.50851  0.16857  0.09714  1.0000
  H   H2478     1.0  0.70179  0.10446  0.08988  1.0000
  H   H2479     1.0  0.55456  0.15861  0.23424  1.0000
  C   C1467     1.0  0.50163  0.15835  0.08952  1.0000
  H   H2480     1.0  0.72271  0.19367  0.05349  1.0000
  C   C1468     1.0  0.71734  0.00282  0.17023  1.0000
  H   H2481     1.0  0.71879  0.09425  0.03276  1.0000
  Fe  Fe213     1.0  0.72713  0.00234  0.25031  1.0000
  S   S431      1.0  0.73487  0.16123  0.37631  1.0000
  H   H2482     1.0  0.54007  0.18986  0.05329  1.0000
  H   H2483     1.0  0.52653  0.13048  0.46327  1.0000
  C   C1469     1.0  0.54248  0.14891  0.23471  1.0000
  C   C1470     1.0  0.50324  0.18356  0.21272  1.0000
  H   H2484     1.0  0.49602  0.18197  0.16843  1.0000
  C   C1471     1.0  0.52010  0.12229  0.45264  1.0000
  C   C1472     1.0  0.72466  0.11525  0.10054  1.0000
  C   C1473     1.0  0.67488  0.13707  0.32476  1.0000
  C   C1474     1.0  0.49034  0.09895  0.40612  1.0000
  H   H2485     1.0  0.68622  0.09569  0.06594  1.0000
  H   H2486     1.0  0.56851  0.10338  0.22298  1.0000
  C   C1475     1.0  0.73618  0.06350  0.00069  1.0000
  H   H2487     1.0  0.49826  0.06340  0.43214  1.0000
  S   S432      1.0  0.50091  0.13570  0.21963  1.0000
  C   C1476     1.0  0.73400  0.30449  0.22178  1.0000
  N   N105      1.0  0.49161  0.11569  0.43906  1.0000
  H   H2488     1.0  0.51686  0.19482  0.07499  1.0000
  N   N106      1.0  0.65260  0.18053  0.09997  1.0000
  C   C1477     1.0  0.65918  0.20013  0.09166  1.0000
  C   C1478     1.0  0.65960  0.17255  0.08074  1.0000
  C   C1479     1.0  0.65989  0.17533  0.12075  1.0000
  C   C1480     1.0  0.63318  0.17568  0.10645  1.0000
  C   C1481     1.0  0.65450  0.21089  0.10951  1.0000
  C   C1482     1.0  0.65584  0.17895  0.05686  1.0000
  C   C1483     1.0  0.65552  0.15567  0.13178  1.0000
  C   C1484     1.0  0.62355  0.15734  0.10463  1.0000
  H   H2489     1.0  0.67347  0.20406  0.08562  1.0000
  H   H2490     1.0  0.65408  0.20489  0.07645  1.0000
  H   H2491     1.0  0.65482  0.15811  0.08524  1.0000
  H   H2492     1.0  0.67382  0.17524  0.07799  1.0000
  H   H2493     1.0  0.67417  0.18035  0.11620  1.0000
  H   H2494     1.0  0.65542  0.18137  0.13509  1.0000
  H   H2495     1.0  0.62859  0.17688  0.12451  1.0000
  H   H2496     1.0  0.62801  0.18501  0.09552  1.0000
  H   H2497     1.0  0.66209  0.21014  0.12303  1.0000
  H   H2498     1.0  0.65775  0.22488  0.10056  1.0000
  H   H2499     1.0  0.64062  0.20690  0.11793  1.0000
  H   H2500     1.0  0.65803  0.16968  0.04571  1.0000
  H   H2501     1.0  0.64244  0.17989  0.05820  1.0000
  H   H2502     1.0  0.66481  0.19185  0.04779  1.0000
  H   H2503     1.0  0.65886  0.14779  0.11925  1.0000
  H   H2504     1.0  0.64187  0.15060  0.14110  1.0000
  H   H2505     1.0  0.66310  0.15369  0.14517  1.0000
  H   H2506     1.0  0.62442  0.15634  0.08631  1.0000
  H   H2507     1.0  0.60968  0.15492  0.11265  1.0000
  H   H2508     1.0  0.62794  0.14666  0.11383  1.0000
  S   S433      1.0  0.70367  0.99953  0.27834  1.0000
  C   C1485     1.0  0.48910  0.08488  0.27541  1.0000
  H   H2509     1.0  0.56040  0.08825  0.42680  1.0000
  H   H2510     1.0  0.69237  0.07569  0.06325  1.0000
  H   H2511     1.0  0.66450  0.13084  0.45384  1.0000
  C   C1486     1.0  0.54688  0.08269  0.42817  1.0000
  N   N107      1.0  0.50713  0.16254  0.06336  1.0000
  C   C1487     1.0  0.69392  0.08946  0.05462  1.0000
  C   C1488     1.0  0.49492  0.09739  0.06369  1.0000
  H   H2512     1.0  0.68826  0.08915  0.03917  1.0000
  H   H2513     1.0  0.57319  0.14298  0.24601  1.0000
  H   H2514     1.0  0.50742  0.32752  0.21926  1.0000
  H   H2515     1.0  0.50517  0.14640  0.09713  1.0000
  H   H2516     1.0  0.49038  0.17715  0.05037  1.0000
  C   C1489     1.0  0.58968  0.12862  0.23121  1.0000
  H   H2517     1.0  0.65076  0.00462  0.99951  1.0000
  C   C1490     1.0  0.68699  0.12616  0.31643  1.0000
  C   C1491     1.0  0.70136  0.10042  0.29378  1.0000
  C   C1492     1.0  0.52825  0.01392  0.43912  1.0000
  H   H2518     1.0  0.50584  0.03268  0.42732  1.0000
  C   C1493     1.0  0.73031  0.08191  0.33401  1.0000
  H   H2519     1.0  0.65486  0.10391  0.32790  1.0000
  H   H2520     1.0  0.49416  0.20552  0.20003  1.0000
  H   H2521     1.0  0.72610  0.08789  0.34795  1.0000
  H   H2522     1.0  0.52978  0.12373  0.43646  1.0000
  C   C1494     1.0  0.65863  0.07860  0.32939  1.0000
  C   C1495     1.0  0.55586  0.10153  0.27103  1.0000
  H   H2523     1.0  0.68044  0.15088  0.31508  1.0000
  H   H2524     1.0  0.64472  0.09086  0.44973  1.0000
  H   H2525     1.0  0.51087  0.10402  0.42346  1.0000
  H   H2526     1.0  0.57753  0.14660  0.21526  1.0000
  H   H2527     1.0  0.69992  0.13251  0.31878  1.0000
  H   H2528     1.0  0.72432  0.14896  0.24998  1.0000
  H   H2529     1.0  0.51259  0.19246  0.21950  1.0000
  H   H2530     1.0  0.72319  0.23006  0.10247  1.0000
  H   H2531     1.0  0.54620  0.08694  0.20897  1.0000
  C   C1496     1.0  0.49418  0.30220  0.24125  1.0000
  C   C1497     1.0  0.68535  0.02032  0.98771  1.0000
  H   H2532     1.0  0.70410  0.19316  0.28667  1.0000
  H   H2533     1.0  0.51290  0.02251  0.40573  1.0000
  H   H2534     1.0  0.58762  0.11735  0.24581  1.0000
  C   C1498     1.0  0.53433  0.03156  0.44574  1.0000
  H   H2535     1.0  0.49751  0.09261  0.04805  1.0000
  N   N108      1.0  0.68171  0.10694  0.32808  1.0000
  S   S434      1.0  0.73083  0.14122  0.99538  1.0000
  C   C1499     1.0  0.69646  0.09948  0.32006  1.0000
  C   C1500     1.0  0.67829  0.10525  0.35413  1.0000
  H   H2536     1.0  0.58497  0.10966  0.99746  1.0000
  C   C1501     1.0  0.54267  0.09623  0.21933  1.0000
  C   C1502     1.0  0.54566  0.13398  0.22302  1.0000
  C   C1503     1.0  0.68062  0.08870  0.36917  1.0000
  C   C1504     1.0  0.53507  0.08051  0.44899  1.0000
  H   H2537     1.0  0.65073  0.07363  0.31752  1.0000
  H   H2538     1.0  0.56144  0.09367  0.26007  1.0000
  H   H2539     1.0  0.69412  0.08560  0.32880  1.0000
  H   H2540     1.0  0.70822  0.10622  0.32496  1.0000
  H   H2541     1.0  0.68695  0.11629  0.35861  1.0000
  H   H2542     1.0  0.66507  0.10619  0.36101  1.0000
  H   H2543     1.0  0.56570  0.10811  0.27944  1.0000
  H   H2544     1.0  0.56450  0.11735  0.19981  1.0000
  S   S435      1.0  0.49204  0.29300  0.18510  1.0000
  H   H2545     1.0  0.55050  0.07959  0.39290  1.0000
  H   H2546     1.0  0.67363  0.13711  0.34345  1.0000
  H   H2547     1.0  0.53645  0.08855  0.23724  1.0000
  H   H2548     1.0  0.68823  0.12817  0.29732  1.0000
  C   C1505     1.0  0.54794  0.11483  0.25802  1.0000
  H   H2549     1.0  0.49352  0.30214  0.02055  1.0000
  H   H2550     1.0  0.67341  0.07648  0.36570  1.0000
  H   H2551     1.0  0.67583  0.08839  0.38779  1.0000
  C   C1506     1.0  0.49502  0.08510  0.25189  1.0000
  H   H2552     1.0  0.70827  0.07723  0.09143  1.0000
  H   H2553     1.0  0.48732  0.00818  0.34379  1.0000
  H   H2554     1.0  0.53558  0.01564  0.42105  1.0000
  H   H2555     1.0  0.49478  0.19505  0.07565  1.0000
  H   H2556     1.0  0.68888  0.99829  0.97478  1.0000
  H   H2557     1.0  0.66199  0.13280  0.32110  1.0000
  C   C1507     1.0  0.49674  0.11602  0.24076  1.0000
  H   H2558     1.0  0.72520  0.29311  0.19377  1.0000
  H   H2559     1.0  0.51132  0.20723  0.05144  1.0000
  C   C1508     1.0  0.68906  0.13813  0.46237  1.0000
  C   C1509     1.0  0.72882  0.04627  0.01396  1.0000
  H   H2560     1.0  0.51368  0.14524  0.02359  1.0000
  H   H2561     1.0  0.50947  0.14102  0.43392  1.0000
  S   S436      1.0  0.51753  0.06445  0.38571  1.0000
  H   H2562     1.0  0.48930  0.32823  0.99553  1.0000
  H   H2563     1.0  0.51653  0.10852  0.46245  1.0000
  H   H2564     1.0  0.66863  0.15063  0.46314  1.0000
  H   H2565     1.0  0.55173  0.17411  0.05934  1.0000
  N   N109      1.0  0.50915  0.00734  0.44108  1.0000
  S   S437      1.0  0.58612  0.07723  0.44977  1.0000
  H   H2566     1.0  0.53405  0.10848  0.25978  1.0000
  Fe  Fe214     1.0  0.60754  0.09695  0.45702  1.0000
  C   C1510     1.0  0.57731  0.09592  0.00349  1.0000
  H   H2567     1.0  0.71297  0.32765  0.21113  1.0000
  S   S438      1.0  0.70053  0.15640  0.97714  1.0000
  H   H2568     1.0  0.53205  0.04237  0.43364  1.0000
  H   H2569     1.0  0.65048  0.07497  0.34728  1.0000
  C   C1511     1.0  0.72603  0.07525  0.99730  1.0000
  N   N110      1.0  0.55682  0.12350  0.23308  1.0000
  H   H2570     1.0  0.71336  0.01478  0.16928  1.0000
  H   H2571     1.0  0.69443  0.08899  0.36694  1.0000
  H   H2572     1.0  0.71518  0.12400  0.07066  1.0000
  C   C1512     1.0  0.71298  0.09992  0.04659  1.0000
  S   S439      1.0  0.50120  0.05131  0.98216  1.0000
  H   H2573     1.0  0.71649  0.27974  0.22212  1.0000
  H   H2574     1.0  0.57824  0.09214  0.02186  1.0000
  H   H2575     1.0  0.58207  0.05171  0.97634  1.0000
  Fe  Fe215     1.0  0.73360  0.15873  0.33970  1.0000
  C   C1513     1.0  0.72136  0.08296  0.07999  1.0000
  C   C1514     1.0  0.58407  0.08349  0.98978  1.0000
  H   H2576     1.0  0.72901  0.15164  0.28915  1.0000
  S   S440      1.0  0.72382  0.00791  0.21248  1.0000
  H   H2577     1.0  0.71176  0.09376  0.29049  1.0000
  H   H2578     1.0  0.59349  0.07839  0.99838  1.0000
  H   H2579     1.0  0.50216  0.24658  0.12800  1.0000
  H   H2580     1.0  0.71345  0.11332  0.03740  1.0000
  C   C1515     1.0  0.66963  0.13695  0.46723  1.0000
  H   H2581     1.0  0.53011  0.16487  0.03742  1.0000
  H   H2582     1.0  0.53483  0.15606  0.22509  1.0000
  C   C1516     1.0  0.73605  0.22920  0.25149  1.0000
  H   H2583     1.0  0.53328  0.10170  0.21139  1.0000
  H   H2584     1.0  0.71032  0.25574  0.09515  1.0000
  H   H2585     1.0  0.69048  0.09353  0.28735  1.0000
  C   C1517     1.0  0.72015  0.29349  0.21203  1.0000
  C   C1518     1.0  0.50440  0.12846  0.44722  1.0000
  H   H2586     1.0  0.50480  0.29874  0.23040  1.0000
  H   H2587     1.0  0.56364  0.09510  0.00316  1.0000
  S   S441      1.0  0.73583  0.09694  0.98099  1.0000
  H   H2588     1.0  0.53294  0.00420  0.45014  1.0000
  H   H2589     1.0  0.72414  0.10324  0.11322  1.0000
  H   H2590     1.0  0.71576  0.24715  0.07030  1.0000
  H   H2591     1.0  0.49830  0.13201  0.46305  1.0000
  H   H2592     1.0  0.49813  0.13511  0.06399  1.0000
  H   H2593     1.0  0.73378  0.22999  0.27002  1.0000
  H   H2594     1.0  0.72270  0.07020  0.04986  1.0000
  H   H2595     1.0  0.72808  0.21659  0.25003  1.0000
  C   C1519     1.0  0.73143  0.24367  0.09613  1.0000
  H   H2596     1.0  0.71818  0.05592  0.07709  1.0000
  H   H2597     1.0  0.50305  0.32730  0.24931  1.0000
  C   C1520     1.0  0.72592  0.06914  0.06705  1.0000
  H   H2598     1.0  0.49863  0.02048  0.46651  1.0000
  Fe  Fe216     1.0  0.49101  0.06128  0.37839  1.0000
  H   H2599     1.0  0.49136  0.13834  0.02476  1.0000
  H   H2600     1.0  0.73153  0.23978  0.24202  1.0000
  C   C1521     1.0  0.49096  0.11585  0.26429  1.0000
  H   H2601     1.0  0.73207  0.24845  0.11211  1.0000
  H   H2602     1.0  0.72985  0.08399  0.09252  1.0000
  H   H2603     1.0  0.48925  0.12772  0.26919  1.0000
  H   H2604     1.0  0.48936  0.20143  0.16468  1.0000
  C   C1522     1.0  0.49999  0.00722  0.46531  1.0000
  H   H2605     1.0  0.72922  0.26745  0.07324  1.0000
  C   C1523     1.0  0.72238  0.32999  0.22228  1.0000
  H   H2606     1.0  0.69508  0.99882  0.00151  1.0000
  H   H2607     1.0  0.73608  0.22395  0.06692  1.0000
  H   H2608     1.0  0.69889  0.02810  0.98045  1.0000
  H   H2609     1.0  0.73675  0.03734  0.01638  1.0000
  H   H2610     1.0  0.48727  0.01792  0.30302  1.0000
  C   C1524     1.0  0.48826  0.19165  0.20932  1.0000
  C   C1525     1.0  0.48723  0.10038  0.28157  1.0000
  C   C1526     1.0  0.62031  0.10641  0.97093  1.0000
  H   H2611     1.0  0.48768  0.32954  0.19627  1.0000
  H   H2612     1.0  0.60698  0.15189  0.72185  1.0000
  Fe  Fe217     1.0  0.49059  0.22650  0.64967  1.0000
  H   H2613     1.0  0.55425  0.03141  0.49891  1.0000
  S   S442      1.0  0.72229  0.13640  0.94478  1.0000
  Fe  Fe218     1.0  0.61663  0.17967  0.65580  1.0000
  S   S443      1.0  0.60533  0.15290  0.65142  1.0000
  S   S444      1.0  0.60032  0.19865  0.66069  1.0000
  Fe  Fe219     1.0  0.65330  0.17508  0.64943  1.0000
  S   S445      1.0  0.64424  0.14762  0.64415  1.0000
  S   S446      1.0  0.68215  0.18488  0.64827  1.0000
  Fe  Fe220     1.0  0.62798  0.15827  0.62156  1.0000
  S   S447      1.0  0.62425  0.15585  0.58508  1.0000
  Fe  Fe221     1.0  0.62227  0.14442  0.67442  1.0000
  S   S448      1.0  0.60869  0.11967  0.70223  1.0000
  S   S449      1.0  0.63858  0.18592  0.62464  1.0000
  S   S450      1.0  0.63211  0.17104  0.68101  1.0000
  H   H2614     1.0  0.56058  0.11008  0.94351  1.0000
  H   H2615     1.0  0.66091  0.12489  0.54431  1.0000
  S   S451      1.0  0.61232  0.07789  0.48549  1.0000
  C   C1527     1.0  0.52145  0.32888  0.56610  1.0000
  H   H2616     1.0  0.53594  0.03028  0.91485  1.0000
  S   S452      1.0  0.57082  0.06628  0.50661  1.0000
  H   H2617     1.0  0.70655  0.28035  0.67032  1.0000
  Fe  Fe222     1.0  0.59356  0.08690  0.50944  1.0000
  S   S453      1.0  0.59940  0.08857  0.54499  1.0000
  Fe  Fe223     1.0  0.56886  0.08580  0.47613  1.0000
  H   H2618     1.0  0.71915  0.29558  0.70966  1.0000
  H   H2619     1.0  0.50796  0.31301  0.66407  1.0000
  H   H2620     1.0  0.53834  0.30897  0.58782  1.0000
  Fe  Fe224     1.0  0.61124  0.07123  0.88413  1.0000
  S   S454      1.0  0.60693  0.09661  0.86814  1.0000
  S   S455      1.0  0.63076  0.06877  0.90652  1.0000
  Fe  Fe225     1.0  0.58213  0.05000  0.86531  1.0000
  S   S456      1.0  0.57639  0.07442  0.84747  1.0000
  S   S457      1.0  0.56269  0.02331  0.87376  1.0000
  Fe  Fe226     1.0  0.60515  0.08542  0.83658  1.0000
  S   S458      1.0  0.62229  0.10478  0.80418  1.0000
  Fe  Fe227     1.0  0.57881  0.08333  0.88036  1.0000
  S   S459      1.0  0.56039  0.09714  0.89658  1.0000
  S   S460      1.0  0.61095  0.06030  0.85210  1.0000
  S   S461      1.0  0.58323  0.05869  0.89875  1.0000
  H   H2621     1.0  0.57944  0.04183  0.58818  1.0000
  H   H2622     1.0  0.50631  0.08619  0.95384  1.0000
  H   H2623     1.0  0.59448  0.00683  0.52868  1.0000
  Fe  Fe228     1.0  0.50141  0.19287  0.66171  1.0000
  S   S462      1.0  0.51941  0.17616  0.67036  1.0000
  S   S463      1.0  0.50457  0.21168  0.62769  1.0000
  H   H2624     1.0  0.54526  0.12343  0.72538  1.0000
  C   C1528     1.0  0.53311  0.28485  0.66433  1.0000
  C   C1529     1.0  0.52211  0.27074  0.65883  1.0000
  C   C1530     1.0  0.50615  0.27206  0.65462  1.0000
  C   C1531     1.0  0.50103  0.28728  0.65696  1.0000
  C   C1532     1.0  0.56914  0.01569  0.48391  1.0000
  H   H2625     1.0  0.54561  0.28389  0.66701  1.0000
  H   H2626     1.0  0.52622  0.25910  0.65717  1.0000
  H   H2627     1.0  0.59980  0.01147  0.87044  1.0000
  H   H2628     1.0  0.67992  0.13116  0.78427  1.0000
  C   C1533     1.0  0.54383  0.08443  0.92030  1.0000
  C   C1534     1.0  0.54434  0.06787  0.93138  1.0000
  C   C1535     1.0  0.53157  0.05818  0.95092  1.0000
  C   C1536     1.0  0.60298  0.02386  0.59224  1.0000
  C   C1537     1.0  0.51701  0.08114  0.94780  1.0000
  C   C1538     1.0  0.53019  0.09112  0.92868  1.0000
  H   H2629     1.0  0.55463  0.06253  0.92509  1.0000
  H   H2630     1.0  0.49985  0.99991  0.90009  1.0000
  H   H2631     1.0  0.52969  0.10394  0.92019  1.0000
  H   H2632     1.0  0.57297  0.17103  0.74280  1.0000
  C   C1539     1.0  0.57782  0.19236  0.66344  1.0000
  C   C1540     1.0  0.56878  0.20521  0.66115  1.0000
  C   C1541     1.0  0.55086  0.20057  0.66302  1.0000
  C   C1542     1.0  0.54186  0.18297  0.66754  1.0000
  C   C1543     1.0  0.55090  0.17015  0.66999  1.0000
  C   C1544     1.0  0.56879  0.17480  0.66784  1.0000
  H   H2633     1.0  0.57567  0.21884  0.65781  1.0000
  H   H2634     1.0  0.54402  0.21055  0.66117  1.0000
  H   H2635     1.0  0.54399  0.15653  0.67345  1.0000
  H   H2636     1.0  0.57557  0.16481  0.66977  1.0000
  C   C1545     1.0  0.61243  0.11593  0.73063  1.0000
  C   C1546     1.0  0.62629  0.12657  0.73639  1.0000
  C   C1547     1.0  0.62899  0.12306  0.75908  1.0000
  C   C1548     1.0  0.61778  0.10900  0.77626  1.0000
  C   C1549     1.0  0.60370  0.09857  0.77065  1.0000
  C   C1550     1.0  0.60112  0.10197  0.74786  1.0000
  H   H2637     1.0  0.63511  0.13732  0.72326  1.0000
  H   H2638     1.0  0.63993  0.13117  0.76327  1.0000
  H   H2639     1.0  0.59504  0.08767  0.78370  1.0000
  H   H2640     1.0  0.59041  0.09363  0.74350  1.0000
  C   C1551     1.0  0.61626  0.13687  0.57500  1.0000
  C   C1552     1.0  0.61192  0.13882  0.55318  1.0000
  C   C1553     1.0  0.60626  0.12417  0.54399  1.0000
  C   C1554     1.0  0.60516  0.10740  0.55639  1.0000
  C   C1555     1.0  0.60926  0.10544  0.57835  1.0000
  C   C1556     1.0  0.61469  0.12007  0.58768  1.0000
  H   H2641     1.0  0.61308  0.15175  0.54323  1.0000
  H   H2642     1.0  0.60297  0.12586  0.52720  1.0000
  H   H2643     1.0  0.60841  0.09255  0.58815  1.0000
  H   H2644     1.0  0.61801  0.11836  0.60446  1.0000
  C   C1557     1.0  0.69423  0.20361  0.65564  1.0000
  C   C1558     1.0  0.71101  0.20417  0.65861  1.0000
  C   C1559     1.0  0.72135  0.21900  0.66354  1.0000
  C   C1560     1.0  0.71515  0.23364  0.66511  1.0000
  C   C1561     1.0  0.69835  0.23305  0.66227  1.0000
  C   C1562     1.0  0.68792  0.21813  0.65767  1.0000
  H   H2645     1.0  0.71598  0.19298  0.65721  1.0000
  H   H2646     1.0  0.64850  0.09921  0.53349  1.0000
  H   H2647     1.0  0.69333  0.24422  0.66360  1.0000
  H   H2648     1.0  0.67508  0.21793  0.65541  1.0000
  Fe  Fe229     1.0  0.69447  0.13318  0.96103  1.0000
  H   H2649     1.0  0.50213  0.03314  0.88227  1.0000
  H   H2650     1.0  0.67157  0.08647  0.82914  1.0000
  H   H2651     1.0  0.55415  0.14200  0.77580  1.0000
  H   H2652     1.0  0.55460  0.03862  0.55503  1.0000
  H   H2653     1.0  0.50148  0.31780  0.62431  1.0000
  C   C1563     1.0  0.57479  0.01800  0.54650  1.0000
  H   H2654     1.0  0.61362  0.15849  0.74625  1.0000
  H   H2655     1.0  0.58045  0.01877  0.82921  1.0000
  Fe  Fe230     1.0  0.58926  0.05894  0.48051  1.0000
  C   C1564     1.0  0.66176  0.11430  0.93131  1.0000
  C   C1565     1.0  0.64917  0.11684  0.91886  1.0000
  C   C1566     1.0  0.63940  0.10296  0.91153  1.0000
  C   C1567     1.0  0.64227  0.08640  0.91630  1.0000
  C   C1568     1.0  0.65484  0.08383  0.92879  1.0000
  C   C1569     1.0  0.66454  0.09769  0.93629  1.0000
  H   H2656     1.0  0.64689  0.12962  0.91500  1.0000
  H   H2657     1.0  0.62973  0.10513  0.90203  1.0000
  H   H2658     1.0  0.65718  0.07106  0.93258  1.0000
  H   H2659     1.0  0.67419  0.09555  0.94587  1.0000
  N   N111      1.0  0.57507  0.17651  0.59691  1.0000
  C   C1570     1.0  0.56634  0.15817  0.61100  1.0000
  C   C1571     1.0  0.56350  0.18788  0.60325  1.0000
  C   C1572     1.0  0.59201  0.18248  0.60363  1.0000
  C   C1573     1.0  0.57790  0.17596  0.57158  1.0000
  C   C1574     1.0  0.57657  0.14444  0.60849  1.0000
  C   C1575     1.0  0.54531  0.18287  0.59860  1.0000
  C   C1576     1.0  0.58507  0.19352  0.55362  1.0000
  H   H2660     1.0  0.56301  0.15808  0.62983  1.0000
  H   H2661     1.0  0.55398  0.15288  0.60631  1.0000
  H   H2662     1.0  0.56919  0.20178  0.59434  1.0000
  H   H2663     1.0  0.56193  0.18790  0.62201  1.0000
  H   H2664     1.0  0.59080  0.17726  0.62248  1.0000
  H   H2665     1.0  0.60199  0.17723  0.59442  1.0000
  H   H2666     1.0  0.58726  0.16825  0.56746  1.0000
  H   H2667     1.0  0.56606  0.16861  0.56734  1.0000
  H   H2668     1.0  0.58927  0.14819  0.61277  1.0000
  H   H2669     1.0  0.56934  0.13192  0.62088  1.0000
  H   H2670     1.0  0.57823  0.14172  0.59088  1.0000
  H   H2671     1.0  0.54556  0.18183  0.58039  1.0000
  H   H2672     1.0  0.53717  0.17065  0.61084  1.0000
  H   H2673     1.0  0.53883  0.19321  0.60177  1.0000
  H   H2674     1.0  0.59935  0.19741  0.54973  1.0000
  H   H2675     1.0  0.58013  0.20426  0.55869  1.0000
  H   H2676     1.0  0.58090  0.19209  0.53727  1.0000
  N   N112      1.0  0.66825  0.11666  0.84429  1.0000
  C   C1577     1.0  0.67836  0.11268  0.86244  1.0000
  C   C1578     1.0  0.65437  0.10022  0.84649  1.0000
  C   C1579     1.0  0.66007  0.13083  0.84996  1.0000
  C   C1580     1.0  0.68043  0.12263  0.82066  1.0000
  C   C1581     1.0  0.69149  0.12837  0.86611  1.0000
  C   C1582     1.0  0.66069  0.08386  0.84425  1.0000
  C   C1583     1.0  0.64813  0.13631  0.83464  1.0000
  C   C1584     1.0  0.67256  0.12036  0.79937  1.0000
  H   H2677     1.0  0.66960  0.10623  0.87967  1.0000
  H   H2678     1.0  0.68572  0.10317  0.85825  1.0000
  H   H2679     1.0  0.64637  0.10178  0.83364  1.0000
  H   H2680     1.0  0.64512  0.09697  0.86358  1.0000
  H   H2681     1.0  0.65250  0.12692  0.86824  1.0000
  H   H2682     1.0  0.67001  0.14308  0.84871  1.0000
  H   H2683     1.0  0.68754  0.13661  0.81764  1.0000
  H   H2684     1.0  0.68498  0.13647  0.87580  1.0000
  H   H2685     1.0  0.69975  0.12345  0.87711  1.0000
  H   H2686     1.0  0.70002  0.13654  0.84953  1.0000
  H   H2687     1.0  0.66435  0.07839  0.86040  1.0000
  H   H2688     1.0  0.65535  0.14307  0.81671  1.0000
  H   H2689     1.0  0.64221  0.14588  0.84185  1.0000
  H   H2690     1.0  0.63734  0.12530  0.83450  1.0000
  H   H2691     1.0  0.65900  0.12063  0.80139  1.0000
  C   C1585     1.0  0.50332  0.29950  0.59020  1.0000
  H   H2692     1.0  0.67409  0.10820  0.79406  1.0000
  H   H2693     1.0  0.52140  0.29462  0.56162  1.0000
  H   H2694     1.0  0.59217  0.20807  0.61180  1.0000
  H   H2695     1.0  0.49707  0.29210  0.60838  1.0000
  C   C1586     1.0  0.59982  0.20233  0.59963  1.0000
  H   H2696     1.0  0.54297  0.13281  0.75660  1.0000
  H   H2697     1.0  0.58392  0.14119  0.70946  1.0000
  H   H2698     1.0  0.57788  0.16696  0.71461  1.0000
  H   H2699     1.0  0.55804  0.13736  0.69799  1.0000
  H   H2700     1.0  0.53223  0.04547  0.95957  1.0000
  H   H2701     1.0  0.65003  0.07356  0.84188  1.0000
  C   C1587     1.0  0.61344  0.04051  0.53021  1.0000
  H   H2702     1.0  0.56570  0.11587  0.78409  1.0000
  H   H2703     1.0  0.55611  0.10699  0.76225  1.0000
  H   H2704     1.0  0.54300  0.10973  0.78766  1.0000
  H   H2705     1.0  0.57762  0.12179  0.73075  1.0000
  H   H2706     1.0  0.58097  0.99747  0.89035  1.0000
  H   H2707     1.0  0.57003  0.05799  0.55692  1.0000
  H   H2708     1.0  0.72961  0.28216  0.69414  1.0000
  H   H2709     1.0  0.57303  0.99785  0.52661  1.0000
  C   C1588     1.0  0.71290  0.31338  0.64208  1.0000
  H   H2710     1.0  0.63183  0.11680  0.50725  1.0000
  H   H2711     1.0  0.50887  0.31480  0.54269  1.0000
  H   H2712     1.0  0.57401  0.02713  0.53069  1.0000
  S   S464      1.0  0.58919  0.03101  0.47966  1.0000
  C   C1589     1.0  0.59277  0.01580  0.57570  1.0000
  H   H2713     1.0  0.60917  0.03401  0.51671  1.0000
  H   H2714     1.0  0.60910  0.01415  0.60045  1.0000
  C   C1590     1.0  0.64052  0.12455  0.49059  1.0000
  H   H2715     1.0  0.71454  0.29514  0.61878  1.0000
  H   H2716     1.0  0.58256  0.00416  0.58652  1.0000
  H   H2717     1.0  0.73273  0.20435  0.87118  1.0000
  H   H2718     1.0  0.59237  0.05187  0.53491  1.0000
  H   H2719     1.0  0.50225  0.26404  0.71062  1.0000
  C   C1591     1.0  0.58095  0.00285  0.53842  1.0000
  C   C1592     1.0  0.71746  0.28577  0.69888  1.0000
  H   H2720     1.0  0.60427  0.08176  0.93551  1.0000
  N   N113      1.0  0.51464  0.31708  0.59012  1.0000
  C   C1593     1.0  0.55743  0.00827  0.85624  1.0000
  H   H2721     1.0  0.67805  0.13958  0.50866  1.0000
  H   H2722     1.0  0.52722  0.04434  0.89699  1.0000
  H   H2723     1.0  0.57004  0.11450  0.96706  1.0000
  H   H2724     1.0  0.52537  0.30358  0.61620  1.0000
  S   S465      1.0  0.72777  0.25307  0.67024  1.0000
  C   C1594     1.0  0.57318  0.13341  0.72428  1.0000
  H   H2725     1.0  0.66422  0.15224  0.50157  1.0000
  C   C1595     1.0  0.55528  0.11569  0.77452  1.0000
  H   H2726     1.0  0.56331  0.02226  0.59054  1.0000
  H   H2727     1.0  0.55223  0.17634  0.71867  1.0000
  H   H2728     1.0  0.54490  0.15363  0.71986  1.0000
  H   H2729     1.0  0.62050  0.13744  0.48536  1.0000
  H   H2730     1.0  0.60264  0.17128  0.73008  1.0000
  H   H2731     1.0  0.65301  0.14404  0.54057  1.0000
  H   H2732     1.0  0.58889  0.13343  0.75934  1.0000
  C   C1596     1.0  0.52475  0.03080  0.90689  1.0000
  C   C1597     1.0  0.56897  0.16157  0.73205  1.0000
  H   H2733     1.0  0.60137  0.20944  0.58158  1.0000
  H   H2734     1.0  0.49687  0.07207  0.90637  1.0000
  C   C1598     1.0  0.66439  0.13847  0.50795  1.0000
  H   H2735     1.0  0.60173  0.01053  0.56462  1.0000
  C   C1599     1.0  0.55100  0.16309  0.72911  1.0000
  H   H2736     1.0  0.58413  0.15197  0.76845  1.0000
  H   H2737     1.0  0.61281  0.20462  0.60349  1.0000
  C   C1600     1.0  0.55394  0.01901  0.49434  1.0000
  S   S466      1.0  0.58999  0.10723  0.48118  1.0000
  H   H2738     1.0  0.58271  0.12136  0.93741  1.0000
  H   H2739     1.0  0.55915  0.11527  0.70720  1.0000
  H   H2740     1.0  0.63801  0.09102  0.51202  1.0000
  H   H2741     1.0  0.59256  0.05083  0.94811  1.0000
  C   C1601     1.0  0.51200  0.30133  0.66252  1.0000
  H   H2742     1.0  0.54232  0.16172  0.74614  1.0000
  N   N114      1.0  0.49165  0.02664  0.91959  1.0000
  C   C1602     1.0  0.57249  0.11083  0.95016  1.0000
  H   H2743     1.0  0.63745  0.11662  0.47769  1.0000
  N   N115      1.0  0.58491  0.02775  0.56124  1.0000
  C   C1603     1.0  0.50814  0.02458  0.92629  1.0000
  H   H2744     1.0  0.51972  0.28140  0.59010  1.0000
  H   H2745     1.0  0.53378  0.32685  0.55741  1.0000
  H   H2746     1.0  0.61102  0.11104  0.93937  1.0000
  C   C1604     1.0  0.56186  0.04492  0.56659  1.0000
  C   C1605     1.0  0.59857  0.07693  0.95451  1.0000
  C   C1606     1.0  0.51771  0.06463  0.95894  1.0000
  C   C1607     1.0  0.55526  0.13422  0.76228  1.0000
  N   N116      1.0  0.72317  0.30688  0.65860  1.0000
  H   H2747     1.0  0.65578  0.08391  0.51920  1.0000
  H   H2748     1.0  0.51049  0.03135  0.94043  1.0000
  C   C1608     1.0  0.48792  0.32885  0.60065  1.0000
  C   C1609     1.0  0.60544  0.10702  0.95843  1.0000
  H   H2749     1.0  0.69040  0.11525  0.81991  1.0000
  C   C1610     1.0  0.66336  0.10996  0.49695  1.0000
  C   C1611     1.0  0.58623  0.14617  0.75300  1.0000
  H   H2750     1.0  0.69567  0.14485  0.47415  1.0000
  C   C1612     1.0  0.65421  0.13245  0.53345  1.0000
  C   C1613     1.0  0.73196  0.22314  0.58057  1.0000
  H   H2751     1.0  0.62762  0.09719  0.96577  1.0000
  N   N117      1.0  0.59111  0.09042  0.96402  1.0000
  C   C1614     1.0  0.55794  0.12727  0.71323  1.0000
  C   C1615     1.0  0.53830  0.00610  0.49939  1.0000
  C   C1616     1.0  0.65054  0.09548  0.51661  1.0000
  H   H2752     1.0  0.60209  0.99773  0.89584  1.0000
  H   H2753     1.0  0.60077  0.11820  0.96261  1.0000
  H   H2754     1.0  0.56471  0.08286  0.96027  1.0000
  H   H2755     1.0  0.57439  0.05962  0.95103  1.0000
  H   H2756     1.0  0.63658  0.14961  0.49707  1.0000
  C   C1617     1.0  0.52974  0.31395  0.59993  1.0000
  C   C1618     1.0  0.60317  0.15771  0.73660  1.0000
  H   H2757     1.0  0.51434  0.06290  0.90789  1.0000
  H   H2758     1.0  0.61348  0.03562  0.58297  1.0000
  C   C1619     1.0  0.52829  0.30038  0.66568  1.0000
  C   C1620     1.0  0.57255  0.03372  0.57780  1.0000
  H   H2759     1.0  0.70235  0.31783  0.65157  1.0000
  H   H2760     1.0  0.73408  0.21906  0.66616  1.0000
  N   N118      1.0  0.57056  0.14370  0.74263  1.0000
  C   C1621     1.0  0.57690  0.09312  0.95186  1.0000
  H   H2761     1.0  0.72012  0.32323  0.68314  1.0000
  H   H2762     1.0  0.71800  0.21720  0.58812  1.0000
  S   S467      1.0  0.67343  0.13228  0.94028  1.0000
  H   H2763     1.0  0.62967  0.11951  0.96589  1.0000
  S   S468      1.0  0.54189  0.08700  0.47316  1.0000
  H   H2764     1.0  0.69834  0.30649  0.61651  1.0000
  H   H2765     1.0  0.50278  0.27672  0.57528  1.0000
  H   H2766     1.0  0.49128  0.10334  0.48949  1.0000
  H   H2767     1.0  0.69473  0.28886  0.64089  1.0000
  H   H2768     1.0  0.58003  0.09173  0.93353  1.0000
  C   C1622     1.0  0.51251  0.28754  0.57846  1.0000
  H   H2769     1.0  0.50208  0.05972  0.88571  1.0000
  H   H2770     1.0  0.55322  0.32673  0.60906  1.0000
  C   C1623     1.0  0.59446  0.99833  0.88231  1.0000
  C   C1624     1.0  0.50474  0.32565  0.60618  1.0000
  H   H2771     1.0  0.48984  0.04676  0.93891  1.0000
  H   H2772     1.0  0.55230  0.04714  0.58053  1.0000
  N   N119      1.0  0.65924  0.12735  0.49133  1.0000
  H   H2773     1.0  0.62251  0.05330  0.52095  1.0000
  C   C1625     1.0  0.56849  0.99949  0.47807  1.0000
  H   H2774     1.0  0.52485  0.02213  0.89450  1.0000
  H   H2775     1.0  0.72057  0.32510  0.62866  1.0000
  H   H2776     1.0  0.67617  0.11167  0.50144  1.0000
  C   C1626     1.0  0.56861  0.00850  0.83565  1.0000
  H   H2777     1.0  0.62085  0.03308  0.53982  1.0000
  H   H2778     1.0  0.60373  0.05234  0.55727  1.0000
  H   H2779     1.0  0.64093  0.12462  0.53580  1.0000
  H   H2780     1.0  0.52665  0.00869  0.50784  1.0000
  C   C1627     1.0  0.58595  0.05885  0.95786  1.0000
  Fe  Fe231     1.0  0.72849  0.15852  0.96283  1.0000
  C   C1628     1.0  0.71076  0.29212  0.67731  1.0000
  C   C1629     1.0  0.50141  0.06037  0.90409  1.0000
  H   H2781     1.0  0.59453  0.02691  0.60664  1.0000
  S   S469      1.0  0.54298  0.31828  0.67104  1.0000
  H   H2782     1.0  0.70793  0.27380  0.70997  1.0000
  C   C1630     1.0  0.59827  0.04374  0.54633  1.0000
  C   C1631     1.0  0.63453  0.14124  0.48450  1.0000
  H   H2783     1.0  0.69880  0.29581  0.68388  1.0000
  C   C1632     1.0  0.70477  0.30003  0.62900  1.0000
  H   H2784     1.0  0.73209  0.22558  0.61577  1.0000
  C   C1633     1.0  0.49100  0.02409  0.89545  1.0000
  H   H2785     1.0  0.72941  0.25302  0.60615  1.0000
  H   H2786     1.0  0.73266  0.23586  0.56947  1.0000
  H   H2787     1.0  0.49251  0.30077  0.58179  1.0000
  C   C1634     1.0  0.49057  0.00550  0.89194  1.0000
  H   H2788     1.0  0.60924  0.07438  0.96253  1.0000
  C   C1635     1.0  0.50979  0.32719  0.54854  1.0000
  H   H2789     1.0  0.49391  0.00590  0.87305  1.0000
  H   H2790     1.0  0.48861  0.28833  0.65409  1.0000
  H   H2791     1.0  0.49661  0.24235  0.72799  1.0000
  S   S470      1.0  0.48911  0.20862  0.68388  1.0000
  C   C1636     1.0  0.73052  0.32110  0.67017  1.0000
  H   H2792     1.0  0.66431  0.10421  0.48136  1.0000
  H   H2793     1.0  0.50713  0.01065  0.93387  1.0000
  S   S471      1.0  0.49255  0.25574  0.64494  1.0000
  C   C1637     1.0  0.54136  0.32995  0.60526  1.0000
  H   H2794     1.0  0.50771  0.00389  0.47814  1.0000
  H   H2795     1.0  0.56118  0.01183  0.55602  1.0000
  C   C1638     1.0  0.48892  0.04429  0.92147  1.0000
  H   H2796     1.0  0.49670  0.32821  0.55517  1.0000
  H   H2797     1.0  0.73076  0.21168  0.89766  1.0000
  H   H2798     1.0  0.73162  0.28690  0.64340  1.0000
  C   C1639     1.0  0.49125  0.25333  0.72171  1.0000
  H   H2799     1.0  0.73677  0.21471  0.56969  1.0000
  S   S472      1.0  0.70202  0.60201  0.43656  1.0000
  C   C1640     1.0  0.49016  0.66116  0.39847  1.0000
  C   C1641     1.0  0.67499  0.52075  0.46541  1.0000
  S   S473      1.0  0.51403  0.34356  0.15204  1.0000
  S   S474      1.0  0.65733  0.56513  0.45386  1.0000
  Fe  Fe232     1.0  0.51366  0.62890  0.36538  1.0000
  S   S475      1.0  0.52066  0.61544  0.33675  1.0000
  H   H2800     1.0  0.49509  0.53715  0.41529  1.0000
  H   H2801     1.0  0.70684  0.45120  0.15852  1.0000
  H   H2802     1.0  0.59130  0.58175  0.37319  1.0000
  Fe  Fe233     1.0  0.50767  0.59042  0.36318  1.0000
  S   S476      1.0  0.51450  0.56461  0.36854  1.0000
  H   H2803     1.0  0.62348  0.60560  0.36389  1.0000
  H   H2804     1.0  0.54341  0.46845  0.32042  1.0000
  Fe  Fe234     1.0  0.49339  0.39396  0.45512  1.0000
  S   S477      1.0  0.70535  0.56258  0.45490  1.0000
  C   C1642     1.0  0.50446  0.57667  0.27064  1.0000
  H   H2805     1.0  0.52808  0.58743  0.30988  1.0000
  H   H2806     1.0  0.73328  0.43694  0.20903  1.0000
  S   S478      1.0  0.57984  0.48898  0.03654  1.0000
  Fe  Fe235     1.0  0.61334  0.51416  0.36709  1.0000
  S   S479      1.0  0.61497  0.52167  0.32861  1.0000
  S   S480      1.0  0.63876  0.52204  0.37809  1.0000
  Fe  Fe236     1.0  0.57474  0.49680  0.37684  1.0000
  S   S481      1.0  0.57348  0.50311  0.33929  1.0000
  S   S482      1.0  0.54954  0.48547  0.40309  1.0000
  Fe  Fe237     1.0  0.59792  0.49478  0.33238  1.0000
  S   S483      1.0  0.60342  0.47534  0.31058  1.0000
  Fe  Fe238     1.0  0.59046  0.52929  0.33890  1.0000
  S   S484      1.0  0.58682  0.55541  0.32318  1.0000
  S   S485      1.0  0.59800  0.48652  0.37035  1.0000
  S   S486      1.0  0.58999  0.52361  0.37693  1.0000
  S   S487      1.0  0.52997  0.65482  0.36859  1.0000
  S   S488      1.0  0.52157  0.40360  0.43765  1.0000
  Fe  Fe239     1.0  0.58320  0.48910  0.99803  1.0000
  Fe  Fe240     1.0  0.62830  0.43348  0.18416  1.0000
  S   S489      1.0  0.62251  0.45798  0.16742  1.0000
  S   S490      1.0  0.65329  0.43228  0.19571  1.0000
  Fe  Fe241     1.0  0.59197  0.41037  0.18426  1.0000
  S   S491      1.0  0.58375  0.43370  0.16849  1.0000
  S   S492      1.0  0.57650  0.38161  0.19181  1.0000
  Fe  Fe242     1.0  0.61001  0.44214  0.14456  1.0000
  S   S493      1.0  0.61578  0.44755  0.10500  1.0000
  Fe  Fe243     1.0  0.59694  0.44730  0.19314  1.0000
  S   S494      1.0  0.58642  0.46559  0.21323  1.0000
  S   S495      1.0  0.61785  0.41829  0.15950  1.0000
  S   S496      1.0  0.60315  0.42332  0.21077  1.0000
  S   S497      1.0  0.71912  0.49616  0.18108  1.0000
  C   C1643     1.0  0.67173  0.45004  0.19078  1.0000
  C   C1644     1.0  0.67359  0.46604  0.17575  1.0000
  C   C1645     1.0  0.68840  0.47987  0.17252  1.0000
  C   C1646     1.0  0.70150  0.47788  0.18426  1.0000
  C   C1647     1.0  0.69961  0.46191  0.19939  1.0000
  C   C1648     1.0  0.68483  0.44805  0.20253  1.0000
  H   H2807     1.0  0.66360  0.46778  0.16664  1.0000
  H   H2808     1.0  0.68962  0.49226  0.16104  1.0000
  H   H2809     1.0  0.70936  0.46037  0.20903  1.0000
  H   H2810     1.0  0.68339  0.43577  0.21441  1.0000
  C   C1649     1.0  0.59760  0.47253  0.28413  1.0000
  C   C1650     1.0  0.59058  0.48428  0.27141  1.0000
  C   C1651     1.0  0.58696  0.48185  0.24989  1.0000
  C   C1652     1.0  0.59039  0.46774  0.24085  1.0000
  C   C1653     1.0  0.59701  0.45579  0.25389  1.0000
  C   C1654     1.0  0.60055  0.45816  0.27540  1.0000
  H   H2811     1.0  0.58819  0.49537  0.27793  1.0000
  H   H2812     1.0  0.58175  0.49112  0.23998  1.0000
  H   H2813     1.0  0.59949  0.44475  0.24733  1.0000
  H   H2814     1.0  0.60575  0.44885  0.28526  1.0000
  C   C1655     1.0  0.54206  0.46272  0.41256  1.0000
  C   C1656     1.0  0.55332  0.45206  0.41132  1.0000
  C   C1657     1.0  0.54694  0.43388  0.41927  1.0000
  C   C1658     1.0  0.52930  0.42634  0.42826  1.0000
  C   C1659     1.0  0.51807  0.43702  0.42959  1.0000
  C   C1660     1.0  0.52446  0.45519  0.42182  1.0000
  H   H2815     1.0  0.56694  0.45783  0.40442  1.0000
  H   H2816     1.0  0.55566  0.42563  0.41838  1.0000
  H   H2817     1.0  0.50443  0.43129  0.43628  1.0000
  H   H2818     1.0  0.51571  0.46341  0.42280  1.0000
  C   C1661     1.0  0.58972  0.47718  0.05542  1.0000
  C   C1662     1.0  0.60133  0.46817  0.04718  1.0000
  C   C1663     1.0  0.60925  0.45926  0.06263  1.0000
  C   C1664     1.0  0.60551  0.45910  0.08645  1.0000
  C   C1665     1.0  0.59374  0.46793  0.09476  1.0000
  C   C1666     1.0  0.58594  0.47699  0.07926  1.0000
  H   H2819     1.0  0.60437  0.46826  0.02888  1.0000
  H   H2820     1.0  0.61839  0.45252  0.05606  1.0000
  H   H2821     1.0  0.59078  0.46790  0.11305  1.0000
  H   H2822     1.0  0.57697  0.48393  0.08577  1.0000
  C   C1667     1.0  0.55873  0.37120  0.18129  1.0000
  C   C1668     1.0  0.55517  0.35309  0.18267  1.0000
  C   C1669     1.0  0.54145  0.34434  0.17414  1.0000
  C   C1670     1.0  0.53110  0.35363  0.16400  1.0000
  C   C1671     1.0  0.53444  0.37168  0.16305  1.0000
  C   C1672     1.0  0.54799  0.38036  0.17192  1.0000
  H   H2823     1.0  0.56324  0.34579  0.19015  1.0000
  H   H2824     1.0  0.73311  0.64419  0.42453  1.0000
  H   H2825     1.0  0.52638  0.37898  0.15559  1.0000
  H   H2826     1.0  0.55013  0.39411  0.17162  1.0000
  H   H2827     1.0  0.54953  0.63833  0.44057  1.0000
  C   C1673     1.0  0.53498  0.56275  0.35633  1.0000
  C   C1674     1.0  0.54785  0.57707  0.34214  1.0000
  C   C1675     1.0  0.56378  0.57478  0.33195  1.0000
  C   C1676     1.0  0.56695  0.55825  0.33619  1.0000
  C   C1677     1.0  0.55418  0.54407  0.35074  1.0000
  C   C1678     1.0  0.53822  0.54629  0.36062  1.0000
  H   H2828     1.0  0.54556  0.58987  0.33906  1.0000
  H   H2829     1.0  0.57368  0.58582  0.32087  1.0000
  H   H2830     1.0  0.55654  0.53130  0.35428  1.0000
  H   H2831     1.0  0.52838  0.53519  0.37169  1.0000
  H   H2832     1.0  0.72476  0.35014  0.24282  1.0000
  C   C1679     1.0  0.65235  0.55288  0.43299  1.0000
  C   C1680     1.0  0.66519  0.55012  0.41653  1.0000
  C   C1681     1.0  0.66075  0.54047  0.40008  1.0000
  C   C1682     1.0  0.64346  0.53356  0.39976  1.0000
  C   C1683     1.0  0.63058  0.53617  0.41636  1.0000
  C   C1684     1.0  0.63503  0.54579  0.43289  1.0000
  H   H2833     1.0  0.67857  0.55550  0.41638  1.0000
  H   H2834     1.0  0.67081  0.53847  0.38737  1.0000
  H   H2835     1.0  0.61722  0.53077  0.41646  1.0000
  H   H2836     1.0  0.52045  0.49146  0.03856  1.0000
  H   H2837     1.0  0.61521  0.59401  0.34461  1.0000
  N   N120      1.0  0.65098  0.48067  0.24298  1.0000
  C   C1685     1.0  0.63911  0.48950  0.23164  1.0000
  C   C1686     1.0  0.64758  0.48169  0.26816  1.0000
  C   C1687     1.0  0.64629  0.46178  0.24144  1.0000
  C   C1688     1.0  0.66927  0.48977  0.23003  1.0000
  C   C1689     1.0  0.63804  0.48716  0.20693  1.0000
  C   C1690     1.0  0.64929  0.50019  0.27254  1.0000
  C   C1691     1.0  0.65555  0.44967  0.25390  1.0000
  C   C1692     1.0  0.68363  0.48832  0.24334  1.0000
  H   H2838     1.0  0.62579  0.48487  0.24242  1.0000
  H   H2839     1.0  0.64289  0.50383  0.23034  1.0000
  H   H2840     1.0  0.65601  0.47587  0.27780  1.0000
  H   H2841     1.0  0.63439  0.47373  0.27732  1.0000
  H   H2842     1.0  0.63226  0.45585  0.24836  1.0000
  H   H2843     1.0  0.64889  0.46061  0.22306  1.0000
  H   H2844     1.0  0.67239  0.48512  0.21387  1.0000
  H   H2845     1.0  0.67077  0.50403  0.22418  1.0000
  H   H2846     1.0  0.63097  0.49613  0.19930  1.0000
  H   H2847     1.0  0.65090  0.49014  0.19521  1.0000
  H   H2848     1.0  0.63053  0.47376  0.20742  1.0000
  H   H2849     1.0  0.66140  0.50957  0.26207  1.0000
  H   H2850     1.0  0.63813  0.50505  0.26905  1.0000
  H   H2851     1.0  0.64917  0.49970  0.29119  1.0000
  H   H2852     1.0  0.66942  0.45323  0.24570  1.0000
  H   H2853     1.0  0.65026  0.43621  0.25188  1.0000
  C   C1693     1.0  0.70019  0.43409  0.13597  1.0000
  H   H2854     1.0  0.68761  0.50023  0.25002  1.0000
  H   H2855     1.0  0.54326  0.56700  0.03804  1.0000
  H   H2856     1.0  0.50649  0.43137  0.35534  1.0000
  H   H2857     1.0  0.50789  0.62007  0.43179  1.0000
  C   C1694     1.0  0.54139  0.54255  0.02612  1.0000
  H   H2858     1.0  0.54669  0.42099  0.33587  1.0000
  C   C1695     1.0  0.54111  0.51226  0.04232  1.0000
  C   C1696     1.0  0.53432  0.57445  0.26677  1.0000
  H   H2859     1.0  0.50368  0.42325  0.38553  1.0000
  C   C1697     1.0  0.52822  0.50464  0.02845  1.0000
  H   H2860     1.0  0.54316  0.54373  0.07072  1.0000
  H   H2861     1.0  0.51114  0.41093  0.36542  1.0000
  H   H2862     1.0  0.70657  0.44309  0.11892  1.0000
  H   H2863     1.0  0.57094  0.52597  0.05219  1.0000
  C   C1698     1.0  0.54926  0.56237  0.02310  1.0000
  C   C1699     1.0  0.55471  0.44114  0.30419  1.0000
  H   H2864     1.0  0.53678  0.60979  0.26062  1.0000
  S   S498      1.0  0.49923  0.54732  0.98901  1.0000
  H   H2865     1.0  0.50167  0.64067  0.40844  1.0000
  Fe  Fe244     1.0  0.68456  0.57651  0.45789  1.0000
  H   H2866     1.0  0.52943  0.53895  0.04006  1.0000
  C   C1700     1.0  0.54754  0.64882  0.42827  1.0000
  C   C1701     1.0  0.52769  0.46930  0.35249  1.0000
  H   H2867     1.0  0.53792  0.47499  0.36090  1.0000
  H   H2868     1.0  0.52994  0.61939  0.28358  1.0000
  C   C1702     1.0  0.64185  0.60646  0.33267  1.0000
  H   H2869     1.0  0.51149  0.54742  0.29403  1.0000
  Fe  Fe245     1.0  0.70785  0.60814  0.46998  1.0000
  C   C1703     1.0  0.54965  0.57230  0.27771  1.0000
  H   H2870     1.0  0.50210  0.37356  0.21191  1.0000
  C   C1704     1.0  0.59434  0.56951  0.38065  1.0000
  H   H2871     1.0  0.54898  0.50287  0.04576  1.0000
  H   H2872     1.0  0.49387  0.51278  0.39692  1.0000
  N   N121      1.0  0.72784  0.43921  0.15185  1.0000
  H   H2873     1.0  0.55413  0.43139  0.29322  1.0000
  C   C1705     1.0  0.49566  0.55637  0.31927  1.0000
  H   H2874     1.0  0.51627  0.46127  0.36606  1.0000
  H   H2875     1.0  0.73575  0.44728  0.11442  1.0000
  S   S499      1.0  0.49374  0.62254  0.29220  1.0000
  C   C1706     1.0  0.50087  0.65653  0.44416  1.0000
  H   H2876     1.0  0.51905  0.59272  0.23586  1.0000
  H   H2877     1.0  0.71471  0.35433  0.21944  1.0000
  N   N122      1.0  0.54159  0.44447  0.34489  1.0000
  C   C1707     1.0  0.51202  0.42429  0.36832  1.0000
  H   H2878     1.0  0.56823  0.44537  0.30551  1.0000
  N   N123      1.0  0.62755  0.57958  0.36720  1.0000
  C   C1708     1.0  0.61200  0.57316  0.38724  1.0000
  C   C1709     1.0  0.64328  0.58180  0.37738  1.0000
  C   C1710     1.0  0.62709  0.56577  0.35309  1.0000
  C   C1711     1.0  0.64524  0.59497  0.39308  1.0000
  C   C1712     1.0  0.64434  0.56528  0.33835  1.0000
  H   H2879     1.0  0.61257  0.56095  0.39880  1.0000
  H   H2880     1.0  0.61159  0.58277  0.39834  1.0000
  H   H2881     1.0  0.65535  0.58573  0.36384  1.0000
  H   H2882     1.0  0.64350  0.56906  0.38778  1.0000
  H   H2883     1.0  0.62185  0.55245  0.36464  1.0000
  H   H2884     1.0  0.63575  0.59008  0.40996  1.0000
  H   H2885     1.0  0.65808  0.59662  0.39738  1.0000
  H   H2886     1.0  0.64453  0.60802  0.38440  1.0000
  H   H2887     1.0  0.64175  0.55581  0.32724  1.0000
  H   H2888     1.0  0.65251  0.56046  0.34956  1.0000
  H   H2889     1.0  0.65156  0.57799  0.32671  1.0000
  C   C1713     1.0  0.53072  0.43368  0.36802  1.0000
  H   H2890     1.0  0.49967  0.60570  0.45965  1.0000
  H   H2891     1.0  0.55696  0.52470  0.99748  1.0000
  H   H2892     1.0  0.52381  0.48035  0.34297  1.0000
  H   H2893     1.0  0.59332  0.56078  0.36843  1.0000
  H   H2894     1.0  0.73034  0.47449  0.14312  1.0000
  H   H2895     1.0  0.50966  0.60475  0.25538  1.0000
  H   H2896     1.0  0.56113  0.57401  0.26369  1.0000
  C   C1714     1.0  0.52070  0.52758  0.97600  1.0000
  H   H2897     1.0  0.56687  0.46272  0.33212  1.0000
  H   H2898     1.0  0.65340  0.44901  0.27281  1.0000
  C   C1715     1.0  0.62642  0.59645  0.35285  1.0000
  H   H2899     1.0  0.49096  0.35091  0.24775  1.0000
  H   H2900     1.0  0.61826  0.56684  0.34107  1.0000
  H   H2901     1.0  0.53646  0.42319  0.37500  1.0000
  H   H2902     1.0  0.49716  0.50668  0.42542  1.0000
  C   C1716     1.0  0.50804  0.59221  0.24982  1.0000
  H   H2903     1.0  0.52097  0.46942  0.46853  1.0000
  H   H2904     1.0  0.53051  0.44152  0.38139  1.0000
  H   H2905     1.0  0.72975  0.41869  0.19601  1.0000
  H   H2906     1.0  0.55804  0.46063  0.36174  1.0000
  H   H2907     1.0  0.64065  0.60162  0.31666  1.0000
  S   S500      1.0  0.73020  0.59616  0.46781  1.0000
  H   H2908     1.0  0.49660  0.59084  0.24201  1.0000
  H   H2909     1.0  0.56335  0.56659  0.02053  1.0000
  C   C1717     1.0  0.73432  0.47052  0.12672  1.0000
  H   H2910     1.0  0.57283  0.54817  0.04166  1.0000
  H   H2911     1.0  0.68679  0.43529  0.14019  1.0000
  N   N124      1.0  0.57110  0.40424  0.10106  1.0000
  C   C1718     1.0  0.56830  0.41718  0.11572  1.0000
  C   C1719     1.0  0.57767  0.39059  0.11475  1.0000
  C   C1720     1.0  0.55400  0.39585  0.09619  1.0000
  C   C1721     1.0  0.58400  0.41418  0.07891  1.0000
  C   C1722     1.0  0.55906  0.43077  0.10641  1.0000
  C   C1723     1.0  0.59352  0.39737  0.12431  1.0000
  C   C1724     1.0  0.55098  0.37686  0.09307  1.0000
  C   C1725     1.0  0.58937  0.40345  0.06156  1.0000
  H   H2912     1.0  0.56072  0.41024  0.13349  1.0000
  H   H2913     1.0  0.58072  0.42488  0.11803  1.0000
  H   H2914     1.0  0.58085  0.38113  0.10453  1.0000
  H   H2915     1.0  0.56744  0.38257  0.12998  1.0000
  H   H2916     1.0  0.54320  0.39511  0.11085  1.0000
  H   H2917     1.0  0.55164  0.40396  0.08062  1.0000
  H   H2918     1.0  0.57908  0.42426  0.06905  1.0000
  H   H2919     1.0  0.59594  0.42152  0.08286  1.0000
  H   H2920     1.0  0.54581  0.42469  0.10516  1.0000
  H   H2921     1.0  0.55801  0.43945  0.11873  1.0000
  H   H2922     1.0  0.56637  0.43934  0.08941  1.0000
  H   H2923     1.0  0.59776  0.38608  0.13247  1.0000
  H   H2924     1.0  0.60454  0.40597  0.11061  1.0000
  H   H2925     1.0  0.59027  0.40418  0.13827  1.0000
  H   H2926     1.0  0.53913  0.37337  0.08643  1.0000
  H   H2927     1.0  0.54870  0.36752  0.11004  1.0000
  H   H2928     1.0  0.56160  0.37472  0.08078  1.0000
  H   H2929     1.0  0.59553  0.39355  0.06899  1.0000
  H   H2930     1.0  0.59910  0.41243  0.04646  1.0000
  H   H2931     1.0  0.57841  0.39736  0.05466  1.0000
  H   H2932     1.0  0.56209  0.54345  0.08158  1.0000
  H   H2933     1.0  0.54763  0.61038  0.28433  1.0000
  C   C1726     1.0  0.56435  0.52959  0.00980  1.0000
  H   H2934     1.0  0.57193  0.52007  0.01396  1.0000
  H   H2935     1.0  0.73213  0.45717  0.17449  1.0000
  H   H2936     1.0  0.64217  0.62053  0.32906  1.0000
  S   S501      1.0  0.50151  0.59621  0.99422  1.0000
  H   H2937     1.0  0.66344  0.51149  0.46327  1.0000
  H   H2938     1.0  0.53299  0.51172  0.05945  1.0000
  C   C1727     1.0  0.51853  0.54447  0.97416  1.0000
  H   H2939     1.0  0.53756  0.63196  0.40675  1.0000
  H   H2940     1.0  0.72076  0.41102  0.16406  1.0000
  S   S502      1.0  0.48811  0.62990  0.35718  1.0000
  H   H2941     1.0  0.73537  0.64383  0.39460  1.0000
  C   C1728     1.0  0.48760  0.51010  0.41564  1.0000
  H   H2942     1.0  0.69526  0.48801  0.23090  1.0000
  H   H2943     1.0  0.51346  0.65459  0.43652  1.0000
  H   H2944     1.0  0.57321  0.43322  0.34174  1.0000
  H   H2945     1.0  0.58414  0.56291  0.39657  1.0000
  C   C1729     1.0  0.53834  0.65868  0.39302  1.0000
  S   S503      1.0  0.50301  0.60385  0.39248  1.0000
  H   H2946     1.0  0.51028  0.59394  0.30207  1.0000
  C   C1730     1.0  0.57721  0.54680  0.99557  1.0000
  C   C1731     1.0  0.54265  0.43262  0.32826  1.0000
  H   H2947     1.0  0.54715  0.55902  0.28879  1.0000
  C   C1732     1.0  0.51280  0.55903  0.30191  1.0000
  H   H2948     1.0  0.65446  0.60611  0.33655  1.0000
  Fe  Fe246     1.0  0.72328  0.58858  0.43571  1.0000
  C   C1733     1.0  0.70902  0.43860  0.15560  1.0000
  C   C1734     1.0  0.54069  0.64516  0.40919  1.0000
  H   H2949     1.0  0.58584  0.55314  0.00562  1.0000
  H   H2950     1.0  0.56422  0.43148  0.37219  1.0000
  H   H2951     1.0  0.53694  0.54074  0.01002  1.0000
  C   C1735     1.0  0.55303  0.53650  0.07241  1.0000
  H   H2952     1.0  0.52244  0.55814  0.31273  1.0000
  C   C1736     1.0  0.53494  0.60830  0.27958  1.0000
  H   H2953     1.0  0.51275  0.35668  0.21100  1.0000
  H   H2954     1.0  0.55308  0.58211  0.28802  1.0000
  H   H2955     1.0  0.54695  0.52330  0.08377  1.0000
  S   S504      1.0  0.55919  0.48922  0.98479  1.0000
  C   C1737     1.0  0.52246  0.59098  0.29470  1.0000
  C   C1738     1.0  0.53391  0.45876  0.33521  1.0000
  Fe  Fe247     1.0  0.49420  0.61457  0.33042  1.0000
  C   C1739     1.0  0.72706  0.43154  0.19590  1.0000
  H   H2956     1.0  0.58265  0.44857  0.35676  1.0000
  C   C1740     1.0  0.57016  0.44059  0.35510  1.0000
  H   H2957     1.0  0.53933  0.58587  0.25192  1.0000
  H   H2958     1.0  0.53083  0.56318  0.25858  1.0000
  H   H2959     1.0  0.55098  0.45235  0.29489  1.0000
  H   H2960     1.0  0.52974  0.42721  0.32508  1.0000
  N   N125      1.0  0.51874  0.57576  0.28326  1.0000
  H   H2961     1.0  0.49661  0.35853  0.19427  1.0000
  H   H2962     1.0  0.68071  0.47662  0.25754  1.0000
  H   H2963     1.0  0.53458  0.50279  0.01163  1.0000
  H   H2964     1.0  0.53642  0.45761  0.46252  1.0000
  H   H2965     1.0  0.70149  0.42871  0.17157  1.0000
  H   H2966     1.0  0.52295  0.45359  0.32755  1.0000
  C   C1741     1.0  0.55913  0.45297  0.34814  1.0000
  N   N126      1.0  0.55253  0.53049  0.03158  1.0000
  C   C1742     1.0  0.56316  0.53547  0.04868  1.0000
  H   H2967     1.0  0.69925  0.42040  0.13461  1.0000
  C   C1743     1.0  0.72539  0.34926  0.22444  1.0000
  H   H2968     1.0  0.73532  0.35268  0.17717  1.0000
  H   H2969     1.0  0.62499  0.54779  0.44562  1.0000
  H   H2970     1.0  0.51905  0.51261  0.02568  1.0000
  H   H2971     1.0  0.57053  0.55593  0.98744  1.0000
  H   H2972     1.0  0.51020  0.51645  0.98551  1.0000
  S   S505      1.0  0.59022  0.46971  0.97796  1.0000
  H   H2973     1.0  0.54603  0.56957  0.00758  1.0000
  Fe  Fe248     1.0  0.49424  0.57356  0.97761  1.0000
  C   C1744     1.0  0.50018  0.35965  0.21102  1.0000
  C   C1745     1.0  0.72985  0.42142  0.14967  1.0000
  H   H2974     1.0  0.49163  0.63105  0.24468  1.0000
  H   H2975     1.0  0.50055  0.56452  0.26431  1.0000
  H   H2976     1.0  0.58567  0.54389  0.98104  1.0000
  H   H2977     1.0  0.67389  0.53427  0.46087  1.0000
  H   H2978     1.0  0.68600  0.51992  0.45232  1.0000
  H   H2979     1.0  0.51197  0.62738  0.45752  1.0000
  H   H2980     1.0  0.72579  0.54866  0.97936  1.0000
  C   C1746     1.0  0.48927  0.64359  0.41455  1.0000
  H   H2981     1.0  0.49554  0.56778  0.32704  1.0000
  H   H2982     1.0  0.71309  0.42974  0.20189  1.0000
  H   H2983     1.0  0.72640  0.41832  0.13348  1.0000
  C   C1747     1.0  0.50229  0.61948  0.45013  1.0000
  C   C1748     1.0  0.50049  0.65731  0.46971  1.0000
  C   C1749     1.0  0.73453  0.44452  0.17211  1.0000
  H   H2984     1.0  0.49279  0.57757  0.28256  1.0000
  H   H2985     1.0  0.72469  0.47128  0.11597  1.0000
  H   H2986     1.0  0.53908  0.33047  0.17508  1.0000
  H   H2987     1.0  0.49400  0.54500  0.33374  1.0000
  Fe  Fe249     1.0  0.71038  0.57115  0.48739  1.0000
  S   S506      1.0  0.68841  0.58361  0.49177  1.0000
  S   S507      1.0  0.71637  0.55115  0.51432  1.0000
  N   N127      1.0  0.49010  0.65996  0.60740  1.0000
  S   S508      1.0  0.71359  0.57957  0.81836  1.0000
  Fe  Fe250     1.0  0.71030  0.57009  0.85706  1.0000
  S   S509      1.0  0.68600  0.56595  0.88460  1.0000
  C   C1750     1.0  0.51702  0.65440  0.58347  1.0000
  H   H2988     1.0  0.61558  0.57026  0.94328  1.0000
  S   S510      1.0  0.53375  0.63256  0.94193  1.0000
  H   H2989     1.0  0.70997  0.51953  0.90601  1.0000
  H   H2990     1.0  0.53802  0.64226  0.85964  1.0000
  H   H2991     1.0  0.49650  0.37717  0.60647  1.0000
  Fe  Fe251     1.0  0.68457  0.50282  0.64659  1.0000
  S   S511      1.0  0.66553  0.49175  0.68094  1.0000
  S   S512      1.0  0.67761  0.52295  0.62077  1.0000
  Fe  Fe252     1.0  0.70868  0.48142  0.66104  1.0000
  S   S513      1.0  0.69140  0.46880  0.69633  1.0000
  Fe  Fe253     1.0  0.66969  0.46570  0.67737  1.0000
  S   S514      1.0  0.64920  0.43933  0.68813  1.0000
  Fe  Fe254     1.0  0.68847  0.49582  0.69735  1.0000
  S   S515      1.0  0.68443  0.50729  0.72967  1.0000
  S   S516      1.0  0.68726  0.47649  0.64196  1.0000
  S   S517      1.0  0.70724  0.50871  0.66310  1.0000
  Fe  Fe255     1.0  0.60472  0.49321  0.94923  1.0000
  H   H2992     1.0  0.70283  0.44748  0.65184  1.0000
  S   S518      1.0  0.62951  0.49367  0.92507  1.0000
  H   H2993     1.0  0.71384  0.65884  0.84041  1.0000
  Fe  Fe256     1.0  0.56743  0.47171  0.96251  1.0000
  H   H2994     1.0  0.64872  0.65402  0.51294  1.0000
  H   H2995     1.0  0.66249  0.51294  0.54746  1.0000
  S   S519      1.0  0.58236  0.49377  0.93249  1.0000
  H   H2996     1.0  0.68035  0.54399  0.50854  1.0000
  Fe  Fe257     1.0  0.50355  0.41753  0.86211  1.0000
  S   S520      1.0  0.50110  0.42043  0.82498  1.0000
  S   S521      1.0  0.52582  0.43818  0.86681  1.0000
  S   S522      1.0  0.50638  0.37571  0.80859  1.0000
  S   S523      1.0  0.49923  0.38836  0.86815  1.0000
  Fe  Fe258     1.0  0.54086  0.34639  0.66319  1.0000
  S   S524      1.0  0.51660  0.35271  0.65657  1.0000
  Fe  Fe259     1.0  0.56146  0.38538  0.65268  1.0000
  S   S525      1.0  0.53830  0.39389  0.64482  1.0000
  S   S526      1.0  0.58530  0.40877  0.64559  1.0000
  Fe  Fe260     1.0  0.52330  0.37337  0.67687  1.0000
  S   S527      1.0  0.50377  0.38099  0.70223  1.0000
  Fe  Fe261     1.0  0.53376  0.37259  0.62529  1.0000
  S   S528      1.0  0.53124  0.37471  0.58755  1.0000
  S   S529      1.0  0.54654  0.36582  0.68579  1.0000
  S   S530      1.0  0.55792  0.36532  0.63095  1.0000
  H   H2997     1.0  0.68736  0.54953  0.72724  1.0000
  H   H2998     1.0  0.48894  0.39723  0.73658  1.0000
  C   C1751     1.0  0.51288  0.37472  0.57572  1.0000
  C   C1752     1.0  0.49750  0.37616  0.58858  1.0000
  C   C1753     1.0  0.69330  0.55055  0.65411  1.0000
  H   H2999     1.0  0.51035  0.43373  0.55098  1.0000
  C   C1754     1.0  0.49978  0.37354  0.54216  1.0000
  C   C1755     1.0  0.51390  0.37332  0.55252  1.0000
  S   S531      1.0  0.57031  0.53664  0.94192  1.0000
  H   H3000     1.0  0.71506  0.62546  0.51829  1.0000
  H   H3001     1.0  0.50068  0.37239  0.52434  1.0000
  H   H3002     1.0  0.52572  0.37217  0.54243  1.0000
  C   C1756     1.0  0.50540  0.37740  0.77909  1.0000
  C   C1757     1.0  0.51362  0.36745  0.76627  1.0000
  C   C1758     1.0  0.51312  0.36835  0.74277  1.0000
  C   C1759     1.0  0.50430  0.37915  0.73191  1.0000
  C   C1760     1.0  0.49583  0.38887  0.74484  1.0000
  C   C1761     1.0  0.49644  0.38809  0.76831  1.0000
  H   H3003     1.0  0.52049  0.35906  0.77451  1.0000
  H   H3004     1.0  0.51952  0.36064  0.73307  1.0000
  H   H3005     1.0  0.65563  0.40410  0.68171  1.0000
  H   H3006     1.0  0.48942  0.66183  0.47735  1.0000
  C   C1762     1.0  0.54066  0.44538  0.93523  1.0000
  C   C1763     1.0  0.54565  0.45929  0.91575  1.0000
  C   C1764     1.0  0.54039  0.45706  0.89516  1.0000
  C   C1765     1.0  0.52996  0.44101  0.89394  1.0000
  C   C1766     1.0  0.52440  0.42730  0.91369  1.0000
  C   C1767     1.0  0.52983  0.42947  0.93423  1.0000
  H   H3007     1.0  0.55384  0.47164  0.91635  1.0000
  H   H3008     1.0  0.54468  0.46773  0.87994  1.0000
  H   H3009     1.0  0.51640  0.41487  0.91289  1.0000
  H   H3010     1.0  0.52590  0.41866  0.94926  1.0000
  C   C1768     1.0  0.63173  0.43099  0.67569  1.0000
  C   C1769     1.0  0.62123  0.41392  0.68554  1.0000
  C   C1770     1.0  0.60726  0.40670  0.67631  1.0000
  C   C1771     1.0  0.60339  0.41659  0.65727  1.0000
  C   C1772     1.0  0.61396  0.43362  0.64736  1.0000
  C   C1773     1.0  0.62805  0.44077  0.65643  1.0000
  H   H3011     1.0  0.62394  0.40620  0.70043  1.0000
  H   H3012     1.0  0.59944  0.39352  0.68399  1.0000
  H   H3013     1.0  0.61115  0.44140  0.63260  1.0000
  H   H3014     1.0  0.63597  0.45390  0.64861  1.0000
  C   C1774     1.0  0.69904  0.55830  0.71490  1.0000
  H   H3015     1.0  0.66260  0.39153  0.66119  1.0000
  C   C1775     1.0  0.53641  0.52502  0.96566  1.0000
  H   H3016     1.0  0.70834  0.66296  0.63730  1.0000
  C   C1776     1.0  0.51639  0.64372  0.88636  1.0000
  H   H3017     1.0  0.49186  0.43178  0.53769  1.0000
  H   H3018     1.0  0.52480  0.39523  0.50125  1.0000
  H   H3019     1.0  0.68212  0.52066  0.92898  1.0000
  H   H3020     1.0  0.64110  0.53412  0.52938  1.0000
  H   H3021     1.0  0.53846  0.63351  0.88891  1.0000
  C   C1777     1.0  0.67137  0.54527  0.89644  1.0000
  C   C1778     1.0  0.67122  0.53140  0.88540  1.0000
  C   C1779     1.0  0.65851  0.51548  0.89460  1.0000
  C   C1780     1.0  0.64593  0.51337  0.91482  1.0000
  C   C1781     1.0  0.64655  0.52702  0.92633  1.0000
  C   C1782     1.0  0.65918  0.54293  0.91711  1.0000
  H   H3022     1.0  0.68058  0.53307  0.86948  1.0000
  H   H3023     1.0  0.65820  0.50491  0.88571  1.0000
  H   H3024     1.0  0.63714  0.52541  0.94216  1.0000
  H   H3025     1.0  0.65937  0.55356  0.92588  1.0000
  C   C1783     1.0  0.72016  0.53538  0.77103  1.0000
  H   H3026     1.0  0.61891  0.41564  0.88946  1.0000
  C   C1784     1.0  0.71642  0.52041  0.73925  1.0000
  C   C1785     1.0  0.69861  0.51778  0.74539  1.0000
  C   C1786     1.0  0.69168  0.52409  0.76434  1.0000
  C   C1787     1.0  0.70236  0.53293  0.77699  1.0000
  H   H3027     1.0  0.72198  0.51565  0.72478  1.0000
  H   H3028     1.0  0.67793  0.52215  0.76927  1.0000
  H   H3029     1.0  0.69681  0.53763  0.79152  1.0000
  H   H3030     1.0  0.50954  0.63557  0.90396  1.0000
  H   H3031     1.0  0.48687  0.65040  0.92145  1.0000
  C   C1788     1.0  0.68893  0.53107  0.59142  1.0000
  C   C1789     1.0  0.68410  0.54412  0.57725  1.0000
  C   C1790     1.0  0.69266  0.55076  0.55373  1.0000
  C   C1791     1.0  0.70609  0.54430  0.54418  1.0000
  C   C1792     1.0  0.71094  0.53130  0.55839  1.0000
  C   C1793     1.0  0.70244  0.52472  0.58192  1.0000
  H   H3032     1.0  0.67366  0.54910  0.58449  1.0000
  H   H3033     1.0  0.68882  0.56078  0.54299  1.0000
  H   H3034     1.0  0.66526  0.54349  0.49137  1.0000
  H   H3035     1.0  0.70628  0.51467  0.59263  1.0000
  C   C1794     1.0  0.65464  0.54142  0.52728  1.0000
  Fe  Fe262     1.0  0.49451  0.39129  0.83187  1.0000
  C   C1795     1.0  0.52981  0.63465  0.87670  1.0000
  H   H3036     1.0  0.50945  0.64320  0.57813  1.0000
  H   H3037     1.0  0.49588  0.63656  0.62484  1.0000
  H   H3038     1.0  0.68692  0.51074  0.95577  1.0000
  N   N128      1.0  0.66569  0.51780  0.50992  1.0000
  C   C1796     1.0  0.67109  0.51128  0.53197  1.0000
  H   H3039     1.0  0.68538  0.55503  0.64219  1.0000
  C   C1797     1.0  0.70198  0.55325  0.69119  1.0000
  C   C1798     1.0  0.64774  0.50719  0.51110  1.0000
  H   H3040     1.0  0.69692  0.38553  0.69577  1.0000
  H   H3041     1.0  0.73215  0.65167  0.61487  1.0000
  H   H3042     1.0  0.56258  0.42536  0.86545  1.0000
  C   C1799     1.0  0.52878  0.46158  0.47671  1.0000
  H   H3043     1.0  0.68407  0.49899  0.93357  1.0000
  C   C1800     1.0  0.72356  0.65949  0.82530  1.0000
  H   H3044     1.0  0.67704  0.64356  0.50843  1.0000
  H   H3045     1.0  0.71101  0.43781  0.69428  1.0000
  H   H3046     1.0  0.56601  0.45290  0.51069  1.0000
  C   C1801     1.0  0.67844  0.51579  0.48983  1.0000
  H   H3047     1.0  0.64808  0.49419  0.50750  1.0000
  H   H3048     1.0  0.50068  0.41141  0.51583  1.0000
  H   H3049     1.0  0.51110  0.45202  0.50918  1.0000
  H   H3050     1.0  0.70935  0.41465  0.69980  1.0000
  C   C1802     1.0  0.50610  0.65773  0.64087  1.0000
  H   H3051     1.0  0.59403  0.47506  0.87293  1.0000
  H   H3052     1.0  0.70350  0.53969  0.69424  1.0000
  H   H3053     1.0  0.69651  0.42350  0.71948  1.0000
  H   H3054     1.0  0.50580  0.44023  0.48795  1.0000
  H   H3055     1.0  0.65899  0.48293  0.53725  1.0000
  H   H3056     1.0  0.67661  0.41141  0.69899  1.0000
  H   H3057     1.0  0.59667  0.40782  0.90041  1.0000
  H   H3058     1.0  0.63980  0.50436  0.52911  1.0000
  C   C1803     1.0  0.68943  0.51208  0.93670  1.0000
  H   H3059     1.0  0.49002  0.39579  0.77803  1.0000
  H   H3060     1.0  0.49382  0.41373  0.55778  1.0000
  C   C1804     1.0  0.72862  0.64435  0.82217  1.0000
  C   C1805     1.0  0.71054  0.54925  0.92106  1.0000
  C   C1806     1.0  0.70204  0.42457  0.70084  1.0000
  H   H3061     1.0  0.48751  0.35049  0.96895  1.0000
  C   C1807     1.0  0.67269  0.65177  0.52004  1.0000
  C   C1808     1.0  0.69963  0.58842  0.66432  1.0000
  H   H3062     1.0  0.57100  0.44927  0.88459  1.0000
  S   S532      1.0  0.73431  0.54587  0.78681  1.0000
  H   H3063     1.0  0.52483  0.34279  0.56724  1.0000
  H   H3064     1.0  0.72442  0.44716  0.61666  1.0000
  Fe  Fe263     1.0  0.73048  0.56120  0.81524  1.0000
  C   C1809     1.0  0.72708  0.52905  0.75209  1.0000
  H   H3065     1.0  0.65528  0.55553  0.52238  1.0000
  C   C1810     1.0  0.51668  0.44603  0.49544  1.0000
  S   S533      1.0  0.73330  0.47531  0.64492  1.0000
  H   H3066     1.0  0.72122  0.64216  0.54829  1.0000
  H   H3067     1.0  0.64470  0.52708  0.48150  1.0000
  H   H3068     1.0  0.53050  0.57188  0.96013  1.0000
  H   H3069     1.0  0.53739  0.47039  0.48450  1.0000
  H   H3070     1.0  0.57577  0.41395  0.92056  1.0000
  C   C1811     1.0  0.49387  0.62944  0.86887  1.0000
  H   H3071     1.0  0.51185  0.64796  0.64971  1.0000
  H   H3072     1.0  0.57500  0.41304  0.87945  1.0000
  H   H3073     1.0  0.71485  0.56148  0.68149  1.0000
  C   C1812     1.0  0.53205  0.55880  0.96156  1.0000
  H   H3074     1.0  0.49170  0.33749  0.81999  1.0000
  N   N129      1.0  0.56006  0.42175  0.70872  1.0000
  C   C1813     1.0  0.57220  0.43674  0.69014  1.0000
  C   C1814     1.0  0.54545  0.41409  0.69829  1.0000
  C   C1815     1.0  0.56968  0.40823  0.71426  1.0000
  C   C1816     1.0  0.55433  0.42856  0.72982  1.0000
  C   C1817     1.0  0.58904  0.44579  0.69620  1.0000
  C   C1818     1.0  0.53498  0.42665  0.68994  1.0000
  C   C1819     1.0  0.55987  0.39157  0.73286  1.0000
  C   C1820     1.0  0.53722  0.41781  0.74682  1.0000
  H   H3075     1.0  0.57584  0.43243  0.67376  1.0000
  H   H3076     1.0  0.56586  0.44728  0.68552  1.0000
  H   H3077     1.0  0.53620  0.40255  0.71034  1.0000
  H   H3078     1.0  0.55038  0.40899  0.68311  1.0000
  H   H3079     1.0  0.57430  0.40395  0.69824  1.0000
  H   H3080     1.0  0.58125  0.41368  0.72056  1.0000
  H   H3081     1.0  0.56446  0.43002  0.74005  1.0000
  H   H3082     1.0  0.55268  0.44190  0.72430  1.0000
  H   H3083     1.0  0.58673  0.45003  0.71277  1.0000
  H   H3084     1.0  0.59807  0.43744  0.69663  1.0000
  H   H3085     1.0  0.59577  0.45765  0.68228  1.0000
  H   H3086     1.0  0.53113  0.43393  0.70305  1.0000
  H   H3087     1.0  0.54212  0.43592  0.67331  1.0000
  H   H3088     1.0  0.52301  0.41897  0.68645  1.0000
  H   H3089     1.0  0.55671  0.39436  0.75030  1.0000
  H   H3090     1.0  0.56830  0.38258  0.73414  1.0000
  H   H3091     1.0  0.54824  0.38435  0.72829  1.0000
  H   H3092     1.0  0.53841  0.41794  0.76496  1.0000
  H   H3093     1.0  0.53322  0.40398  0.74616  1.0000
  H   H3094     1.0  0.52663  0.42393  0.74428  1.0000
  C   C1821     1.0  0.71657  0.63940  0.51464  1.0000
  C   C1822     1.0  0.66070  0.40438  0.66327  1.0000
  H   H3095     1.0  0.50359  0.66143  0.83777  1.0000
  H   H3096     1.0  0.56240  0.43572  0.49577  1.0000
  H   H3097     1.0  0.68212  0.48949  0.52558  1.0000
  H   H3098     1.0  0.60213  0.45920  0.91915  1.0000
  C   C1823     1.0  0.55724  0.44642  0.50081  1.0000
  H   H3099     1.0  0.71716  0.57194  0.63863  1.0000
  H   H3100     1.0  0.53606  0.45017  0.52451  1.0000
  H   H3101     1.0  0.54526  0.34149  0.59048  1.0000
  H   H3102     1.0  0.66489  0.64306  0.53677  1.0000
  C   C1824     1.0  0.68922  0.38696  0.68240  1.0000
  H   H3103     1.0  0.70282  0.44028  0.61405  1.0000
  H   H3104     1.0  0.51265  0.33867  0.60659  1.0000
  H   H3105     1.0  0.71506  0.42439  0.61985  1.0000
  H   H3106     1.0  0.71229  0.40617  0.66342  1.0000
  C   C1825     1.0  0.68439  0.57214  0.67502  1.0000
  C   C1826     1.0  0.57979  0.44070  0.88242  1.0000
  H   H3107     1.0  0.61408  0.44618  0.87632  1.0000
  H   H3108     1.0  0.72127  0.52618  0.55110  1.0000
  H   H3109     1.0  0.60480  0.41837  0.86994  1.0000
  C   C1827     1.0  0.71755  0.53269  0.95560  1.0000
  C   C1828     1.0  0.58768  0.42649  0.94435  1.0000
  C   C1829     1.0  0.60208  0.47387  0.88585  1.0000
  S   S534      1.0  0.73256  0.59132  0.85987  1.0000
  H   H3110     1.0  0.71184  0.58707  0.66880  1.0000
  H   H3111     1.0  0.56044  0.66064  0.91087  1.0000
  H   H3112     1.0  0.72284  0.63215  0.83483  1.0000
  C   C1830     1.0  0.49227  0.65635  0.88332  1.0000
  H   H3113     1.0  0.52343  0.65621  0.88944  1.0000
  C   C1831     1.0  0.66203  0.66264  0.50824  1.0000
  H   H3114     1.0  0.52241  0.64967  0.59833  1.0000
  H   H3115     1.0  0.69783  0.39956  0.64584  1.0000
  C   C1832     1.0  0.67212  0.54085  0.69093  1.0000
  H   H3116     1.0  0.53793  0.51195  0.96705  1.0000
  H   H3117     1.0  0.73118  0.34560  0.64613  1.0000
  H   H3118     1.0  0.69693  0.59957  0.67143  1.0000
  C   C1833     1.0  0.65675  0.53863  0.67904  1.0000
  C   C1834     1.0  0.53612  0.40666  0.49430  1.0000
  N   N130      1.0  0.50385  0.64682  0.87161  1.0000
  C   C1835     1.0  0.53894  0.43941  0.51653  1.0000
  H   H3119     1.0  0.67476  0.52782  0.69457  1.0000
  H   H3120     1.0  0.66732  0.54336  0.70817  1.0000
  H   H3121     1.0  0.68846  0.37515  0.67513  1.0000
  H   H3122     1.0  0.55828  0.56739  0.94183  1.0000
  C   C1836     1.0  0.72005  0.64891  0.53163  1.0000
  C   C1837     1.0  0.49277  0.64866  0.62856  1.0000
  H   H3123     1.0  0.67505  0.57299  0.66375  1.0000
  H   H3124     1.0  0.67754  0.57380  0.69189  1.0000
  H   H3125     1.0  0.65975  0.53487  0.66220  1.0000
  H   H3126     1.0  0.64600  0.52780  0.69039  1.0000
  H   H3127     1.0  0.65191  0.55043  0.67669  1.0000
  H   H3128     1.0  0.56691  0.43039  0.92843  1.0000
  H   H3129     1.0  0.49172  0.33451  0.84999  1.0000
  N   N131      1.0  0.58993  0.44037  0.90121  1.0000
  H   H3130     1.0  0.50038  0.64466  0.48062  1.0000
  C   C1838     1.0  0.71903  0.56794  0.92261  1.0000
  H   H3131     1.0  0.67360  0.48856  0.55518  1.0000
  H   H3132     1.0  0.69698  0.54648  0.93068  1.0000
  H   H3133     1.0  0.71333  0.55505  0.62315  1.0000
  H   H3134     1.0  0.65048  0.40659  0.65403  1.0000
  H   H3135     1.0  0.53499  0.33330  0.62110  1.0000
  H   H3136     1.0  0.61572  0.43933  0.90484  1.0000
  N   N132      1.0  0.68831  0.55463  0.67758  1.0000
  H   H3137     1.0  0.58847  0.44654  0.86494  1.0000
  H   H3138     1.0  0.71418  0.50733  0.93111  1.0000
  H   H3139     1.0  0.68420  0.51909  0.53173  1.0000
  C   C1839     1.0  0.50132  0.42510  0.54353  1.0000
  H   H3140     1.0  0.67907  0.50204  0.49177  1.0000
  H   H3141     1.0  0.68051  0.41800  0.63380  1.0000
  H   H3142     1.0  0.52003  0.65056  0.83733  1.0000
  H   H3143     1.0  0.50200  0.62409  0.85666  1.0000
  C   C1840     1.0  0.66707  0.53697  0.50818  1.0000
  H   H3144     1.0  0.62621  0.51818  0.50506  1.0000
  C   C1841     1.0  0.54779  0.55624  0.95125  1.0000
  H   H3145     1.0  0.65837  0.53925  0.54422  1.0000
  S   S535      1.0  0.72569  0.55043  0.85396  1.0000
  H   H3146     1.0  0.70489  0.53389  0.96454  1.0000
  H   H3147     1.0  0.49047  0.33929  0.58480  1.0000
  H   H3148     1.0  0.50820  0.65223  0.94711  1.0000
  H   H3149     1.0  0.60388  0.48606  0.89229  1.0000
  H   H3150     1.0  0.71213  0.57687  0.91442  1.0000
  S   S536      1.0  0.54905  0.44683  0.96022  1.0000
  C   C1842     1.0  0.67135  0.49193  0.53739  1.0000
  N   N133      1.0  0.61753  0.55970  0.88861  1.0000
  C   C1843     1.0  0.61290  0.56826  0.90841  1.0000
  C   C1844     1.0  0.60786  0.56505  0.87056  1.0000
  C   C1845     1.0  0.63658  0.56700  0.87860  1.0000
  C   C1846     1.0  0.61290  0.54020  0.89794  1.0000
  C   C1847     1.0  0.62159  0.56495  0.92904  1.0000
  C   C1848     1.0  0.58806  0.55891  0.87835  1.0000
  C   C1849     1.0  0.64453  0.55987  0.85839  1.0000
  C   C1850     1.0  0.61075  0.52842  0.88032  1.0000
  H   H3151     1.0  0.61577  0.58269  0.90203  1.0000
  H   H3152     1.0  0.59890  0.56379  0.91619  1.0000
  H   H3153     1.0  0.61144  0.56051  0.85453  1.0000
  H   H3154     1.0  0.61143  0.57956  0.86463  1.0000
  H   H3155     1.0  0.63984  0.58148  0.87262  1.0000
  H   H3156     1.0  0.64400  0.56445  0.89199  1.0000
  H   H3157     1.0  0.62261  0.53666  0.90721  1.0000
  H   H3158     1.0  0.60064  0.53591  0.91134  1.0000
  H   H3159     1.0  0.69853  0.57206  0.71316  1.0000
  H   H3160     1.0  0.61969  0.55086  0.93631  1.0000
  H   H3161     1.0  0.55807  0.45616  0.48491  1.0000
  H   H3162     1.0  0.58241  0.56111  0.86291  1.0000
  H   H3163     1.0  0.58326  0.54482  0.88679  1.0000
  H   H3164     1.0  0.58297  0.56653  0.89028  1.0000
  H   H3165     1.0  0.65837  0.56698  0.85233  1.0000
  H   H3166     1.0  0.63869  0.56193  0.84319  1.0000
  H   H3167     1.0  0.64416  0.54592  0.86417  1.0000
  H   H3168     1.0  0.61777  0.51829  0.88371  1.0000
  H   H3169     1.0  0.61562  0.53507  0.86184  1.0000
  H   H3170     1.0  0.59704  0.52122  0.88308  1.0000
  H   H3171     1.0  0.69165  0.52359  0.48944  1.0000
  H   H3172     1.0  0.60042  0.42378  0.94060  1.0000
  C   C1851     1.0  0.57941  0.42742  0.92314  1.0000
  H   H3173     1.0  0.51612  0.40832  0.53243  1.0000
  H   H3174     1.0  0.67594  0.38633  0.69090  1.0000
  C   C1852     1.0  0.71224  0.55772  0.64084  1.0000
  N   N134      1.0  0.71867  0.53511  0.92980  1.0000
  H   H3175     1.0  0.54101  0.43222  0.47247  1.0000
  Fe  Fe264     1.0  0.57597  0.51119  0.95596  1.0000
  H   H3176     1.0  0.67350  0.43179  0.65126  1.0000
  H   H3177     1.0  0.58138  0.46057  0.91557  1.0000
  H   H3178     1.0  0.70149  0.59194  0.64512  1.0000
  C   C1853     1.0  0.71497  0.64797  0.49307  1.0000
  H   H3179     1.0  0.57923  0.41566  0.95868  1.0000
  C   C1854     1.0  0.53036  0.42325  0.48640  1.0000
  H   H3180     1.0  0.68235  0.43387  0.68731  1.0000
  H   H3181     1.0  0.71007  0.54973  0.90254  1.0000
  C   C1855     1.0  0.63740  0.51519  0.49478  1.0000
  H   H3182     1.0  0.58865  0.43853  0.95110  1.0000
  H   H3183     1.0  0.54000  0.42943  0.53128  1.0000
  H   H3184     1.0  0.69053  0.53619  0.65592  1.0000
  N   N135      1.0  0.52461  0.43204  0.50538  1.0000
  H   H3185     1.0  0.54387  0.40786  0.50759  1.0000
  C   C1856     1.0  0.53420  0.65433  0.93012  1.0000
  H   H3186     1.0  0.63546  0.57184  0.92444  1.0000
  C   C1857     1.0  0.56810  0.42319  0.88103  1.0000
  C   C1858     1.0  0.60695  0.43677  0.89289  1.0000
  C   C1859     1.0  0.60653  0.41863  0.88784  1.0000
  H   H3187     1.0  0.71829  0.43586  0.65691  1.0000
  H   H3188     1.0  0.61508  0.47350  0.87731  1.0000
  C   C1860     1.0  0.51069  0.41846  0.52373  1.0000
  C   C1861     1.0  0.59351  0.45821  0.90674  1.0000
  Fe  Fe265     1.0  0.50830  0.61234  0.95748  1.0000
  N   N136      1.0  0.69219  0.41949  0.66343  1.0000
  C   C1862     1.0  0.70651  0.43526  0.64992  1.0000
  C   C1863     1.0  0.68737  0.42214  0.68773  1.0000
  C   C1864     1.0  0.67713  0.41921  0.65208  1.0000
  C   C1865     1.0  0.69846  0.40334  0.66269  1.0000
  C   C1866     1.0  0.71233  0.43655  0.62364  1.0000
  H   H3189     1.0  0.51557  0.33796  0.53284  1.0000
  H   H3190     1.0  0.52814  0.66129  0.56871  1.0000
  H   H3191     1.0  0.55697  0.41829  0.89618  1.0000
  H   H3192     1.0  0.71769  0.56918  0.94087  1.0000
  S   S537      1.0  0.50294  0.58938  0.94090  1.0000
  H   H3193     1.0  0.51974  0.41935  0.47754  1.0000
  C   C1867     1.0  0.70880  0.51836  0.92508  1.0000
  H   H3194     1.0  0.52372  0.62118  0.87556  1.0000
  C   C1868     1.0  0.55007  0.53936  0.95355  1.0000
  H   H3195     1.0  0.73450  0.46946  0.69396  1.0000
  H   H3196     1.0  0.54392  0.40383  0.47902  1.0000
  H   H3197     1.0  0.72062  0.55081  0.64928  1.0000
  H   H3198     1.0  0.71002  0.55696  0.72299  1.0000
  C   C1869     1.0  0.51962  0.66049  0.93479  1.0000
  H   H3199     1.0  0.63198  0.50547  0.48523  1.0000
  H   H3200     1.0  0.71801  0.51918  0.96306  1.0000
  H   H3201     1.0  0.49029  0.61936  0.88544  1.0000
  H   H3202     1.0  0.73259  0.57273  0.91290  1.0000
  H   H3203     1.0  0.73305  0.63960  0.64181  1.0000
  C   C1870     1.0  0.73173  0.54504  0.96346  1.0000
  H   H3204     1.0  0.68461  0.65963  0.52303  1.0000
  C   C1871     1.0  0.51302  0.65794  0.84777  1.0000
  S   S538      1.0  0.71029  0.63677  0.47109  1.0000
  S   S539      1.0  0.59959  0.51253  0.97044  1.0000
  Fe  Fe266     1.0  0.60059  0.88510  0.31809  1.0000
  S   S540      1.0  0.57392  0.88232  0.31159  1.0000
  S   S541      1.0  0.61779  0.91325  0.30528  1.0000
  Fe  Fe267     1.0  0.59124  0.84611  0.34188  1.0000
  S   S542      1.0  0.56395  0.84096  0.33777  1.0000
  S   S543      1.0  0.60293  0.82420  0.35460  1.0000
  Fe  Fe268     1.0  0.57523  0.85707  0.30149  1.0000
  S   S544      1.0  0.56897  0.84993  0.26809  1.0000
  Fe  Fe269     1.0  0.56470  0.86651  0.34833  1.0000
  S   S545      1.0  0.54119  0.87139  0.36947  1.0000
  S   S546      1.0  0.60275  0.86112  0.30485  1.0000
  S   S547      1.0  0.59115  0.87045  0.35557  1.0000
  H   H3205     1.0  0.55297  0.69274  0.41755  1.0000
  S   S548      1.0  0.58919  0.88331  0.99319  1.0000
  C   C1872     1.0  0.50980  0.76323  0.10958  1.0000
  Fe  Fe270     1.0  0.57253  0.85586  0.00868  1.0000
  S   S549      1.0  0.54994  0.85199  0.03889  1.0000
  S   S550      1.0  0.59470  0.84378  0.00791  1.0000
  Fe  Fe271     1.0  0.71103  0.97681  0.29740  1.0000
  H   H3206     1.0  0.65348  0.93450  0.22186  1.0000
  S   S551      1.0  0.69337  0.94944  0.31472  1.0000
  H   H3207     1.0  0.61721  0.75230  0.41632  1.0000
  H   H3208     1.0  0.58647  0.89192  0.06862  1.0000
  Fe  Fe272     1.0  0.56891  0.73563  0.45414  1.0000
  S   S552      1.0  0.56060  0.66989  0.45570  1.0000
  Fe  Fe273     1.0  0.52093  0.92014  0.46565  1.0000
  H   H3209     1.0  0.67024  0.89430  0.01060  1.0000
  S   S553      1.0  0.71339  0.94879  0.07663  1.0000
  S   S554      1.0  0.69085  0.97616  0.08115  1.0000
  Fe  Fe274     1.0  0.71330  0.97078  0.09523  1.0000
  S   S555      1.0  0.71805  0.96526  0.13225  1.0000
  Fe  Fe275     1.0  0.69269  0.95599  0.05972  1.0000
  S   S556      1.0  0.66659  0.94015  0.05532  1.0000
  S   S557      1.0  0.71165  0.97519  0.02932  1.0000
  H   H3210     1.0  0.61733  0.87575  0.04914  1.0000
  S   S558      1.0  0.58795  0.72075  0.44350  1.0000
  S   S559      1.0  0.56014  0.75696  0.43293  1.0000
  H   H3211     1.0  0.60960  0.75759  0.45588  1.0000
  S   S560      1.0  0.50148  0.80817  0.18517  1.0000
  C   C1873     1.0  0.63634  0.97860  0.99940  1.0000
  S   S561      1.0  0.51986  0.94727  0.45011  1.0000
  S   S562      1.0  0.54290  0.90865  0.45396  1.0000
  Fe  Fe276     1.0  0.50009  0.78783  0.21671  1.0000
  C   C1874     1.0  0.51567  0.85446  0.20887  1.0000
  S   S563      1.0  0.50635  0.79404  0.25064  1.0000
  H   H3212     1.0  0.57543  0.82152  0.12183  1.0000
  H   H3213     1.0  0.63585  0.75998  0.42655  1.0000
  Fe  Fe277     1.0  0.50932  0.78991  0.16383  1.0000
  S   S564      1.0  0.53233  0.79496  0.13369  1.0000
  S   S565      1.0  0.51006  0.77053  0.19536  1.0000
  H   H3214     1.0  0.63288  0.86332  0.08086  1.0000
  C   C1875     1.0  0.58556  0.88268  0.05698  1.0000
  H   H3215     1.0  0.60192  0.94353  0.39637  1.0000
  Fe  Fe278     1.0  0.61135  0.87115  0.99064  1.0000
  N   N137      1.0  0.50087  0.74395  0.11746  1.0000
  H   H3216     1.0  0.61362  0.96224  0.35823  1.0000
  C   C1876     1.0  0.54954  0.67948  0.41534  1.0000
  C   C1877     1.0  0.51124  0.85614  0.46652  1.0000
  H   H3217     1.0  0.58132  0.94107  0.41319  1.0000
  H   H3218     1.0  0.61781  0.96874  0.32736  1.0000
  H   H3219     1.0  0.69347  0.92369  0.27153  1.0000
  C   C1878     1.0  0.55202  0.66599  0.43143  1.0000
  H   H3220     1.0  0.50402  0.77067  0.12130  1.0000
  Fe  Fe279     1.0  0.73236  0.96922  0.04738  1.0000
  C   C1879     1.0  0.72069  0.97809  0.15340  1.0000
  C   C1880     1.0  0.72722  0.97189  0.17252  1.0000
  H   H3221     1.0  0.67564  0.98593  0.03795  1.0000
  H   H3222     1.0  0.51029  0.98060  0.45040  1.0000
  H   H3223     1.0  0.69128  0.95494  0.26418  1.0000
  C   C1881     1.0  0.54456  0.83534  0.06457  1.0000
  C   C1882     1.0  0.53101  0.83505  0.08270  1.0000
  C   C1883     1.0  0.52682  0.82250  0.10382  1.0000
  C   C1884     1.0  0.53626  0.81020  0.10699  1.0000
  C   C1885     1.0  0.54966  0.81032  0.08874  1.0000
  C   C1886     1.0  0.55380  0.82281  0.06760  1.0000
  H   H3224     1.0  0.52378  0.84468  0.08047  1.0000
  H   H3225     1.0  0.51648  0.82254  0.11774  1.0000
  H   H3226     1.0  0.55700  0.80081  0.09107  1.0000
  H   H3227     1.0  0.56418  0.82282  0.05371  1.0000
  C   C1887     1.0  0.64537  0.89953  0.01423  1.0000
  C   C1888     1.0  0.63549  0.91002  0.02290  1.0000
  C   C1889     1.0  0.64226  0.92239  0.03520  1.0000
  C   C1890     1.0  0.65919  0.92491  0.03848  1.0000
  C   C1891     1.0  0.66930  0.91491  0.02904  1.0000
  C   C1892     1.0  0.66238  0.90223  0.01725  1.0000
  H   H3228     1.0  0.62253  0.90841  0.02046  1.0000
  H   H3229     1.0  0.63425  0.93000  0.04234  1.0000
  H   H3230     1.0  0.68232  0.91656  0.03138  1.0000
  H   H3231     1.0  0.60908  0.85416  0.04755  1.0000
  C   C1893     1.0  0.54172  0.88133  0.39334  1.0000
  C   C1894     1.0  0.55407  0.88043  0.40657  1.0000
  C   C1895     1.0  0.55429  0.88881  0.42521  1.0000
  C   C1896     1.0  0.54211  0.89806  0.43076  1.0000
  C   C1897     1.0  0.52958  0.89869  0.41781  1.0000
  C   C1898     1.0  0.52936  0.89029  0.39923  1.0000
  H   H3232     1.0  0.56336  0.87318  0.40250  1.0000
  H   H3233     1.0  0.56389  0.88812  0.43535  1.0000
  H   H3234     1.0  0.52011  0.90574  0.42198  1.0000
  H   H3235     1.0  0.51966  0.89089  0.38919  1.0000
  C   C1899     1.0  0.59084  0.80553  0.37621  1.0000
  C   C1900     1.0  0.59762  0.79106  0.38046  1.0000
  C   C1901     1.0  0.58834  0.77599  0.39763  1.0000
  C   C1902     1.0  0.57236  0.77544  0.41100  1.0000
  C   C1903     1.0  0.56547  0.78980  0.40643  1.0000
  C   C1904     1.0  0.57466  0.80479  0.38911  1.0000
  H   H3236     1.0  0.61002  0.79145  0.37026  1.0000
  H   H3237     1.0  0.59337  0.76469  0.40021  1.0000
  H   H3238     1.0  0.55299  0.78937  0.41646  1.0000
  H   H3239     1.0  0.56927  0.81583  0.38592  1.0000
  C   C1905     1.0  0.52376  0.80985  0.25498  1.0000
  C   C1906     1.0  0.52389  0.81233  0.27759  1.0000
  C   C1907     1.0  0.53753  0.82456  0.28197  1.0000
  C   C1908     1.0  0.55122  0.83454  0.26370  1.0000
  C   C1909     1.0  0.55098  0.83220  0.24105  1.0000
  C   C1910     1.0  0.53735  0.81995  0.23668  1.0000
  H   H3240     1.0  0.51336  0.80469  0.29184  1.0000
  H   H3241     1.0  0.53743  0.82633  0.29943  1.0000
  H   H3242     1.0  0.56150  0.83984  0.22679  1.0000
  H   H3243     1.0  0.53746  0.81821  0.21921  1.0000
  C   C1911     1.0  0.63842  0.92309  0.30940  1.0000
  C   C1912     1.0  0.64497  0.94135  0.30216  1.0000
  C   C1913     1.0  0.66164  0.94969  0.30398  1.0000
  C   C1914     1.0  0.67198  0.93982  0.31300  1.0000
  C   C1915     1.0  0.66526  0.92161  0.32070  1.0000
  C   C1916     1.0  0.64860  0.91327  0.31892  1.0000
  H   H3244     1.0  0.63721  0.94908  0.29478  1.0000
  H   H3245     1.0  0.66655  0.96372  0.29820  1.0000
  H   H3246     1.0  0.67310  0.91386  0.32785  1.0000
  H   H3247     1.0  0.64376  0.89923  0.32457  1.0000
  C   C1917     1.0  0.63622  0.78327  0.45660  1.0000
  H   H3248     1.0  0.73105  0.95986  0.17357  1.0000
  C   C1918     1.0  0.50084  0.73860  0.14287  1.0000
  H   H3249     1.0  0.67197  0.95974  0.21202  1.0000
  H   H3250     1.0  0.50105  0.99531  0.31509  1.0000
  C   C1919     1.0  0.50814  0.71468  0.11292  1.0000
  H   H3251     1.0  0.51947  0.71291  0.11989  1.0000
  C   C1920     1.0  0.57774  0.83564  0.11403  1.0000
  S   S566      1.0  0.49342  0.90740  0.46626  1.0000
  H   H3252     1.0  0.61079  0.89855  0.09747  1.0000
  H   H3253     1.0  0.51543  0.86208  0.19165  1.0000
  Fe  Fe280     1.0  0.49181  0.93478  0.45363  1.0000
  H   H3254     1.0  0.65797  0.95979  0.01560  1.0000
  H   H3255     1.0  0.60351  0.83692  0.09858  1.0000
  N   N138      1.0  0.59817  0.86002  0.07987  1.0000
  C   C1921     1.0  0.59004  0.78896  0.46038  1.0000
  H   H3256     1.0  0.64549  0.96493  0.04783  1.0000
  N   N139      1.0  0.62067  0.78553  0.44740  1.0000
  H   H3257     1.0  0.50797  0.70753  0.09872  1.0000
  H   H3258     1.0  0.50351  0.66972  0.39337  1.0000
  C   C1922     1.0  0.59271  0.84096  0.09230  1.0000
  C   C1923     1.0  0.49904  0.83938  0.21847  1.0000
  H   H3259     1.0  0.51777  0.84630  0.25440  1.0000
  C   C1924     1.0  0.48964  0.83643  0.26103  1.0000
  H   H3260     1.0  0.59070  0.87226  0.10787  1.0000
  C   C1925     1.0  0.67418  0.97228  0.24025  1.0000
  H   H3261     1.0  0.50684  0.84278  0.28370  1.0000
  C   C1926     1.0  0.61474  0.88961  0.08680  1.0000
  C   C1927     1.0  0.62548  0.80039  0.42620  1.0000
  S   S567      1.0  0.63701  0.88243  0.00053  1.0000
  H   H3262     1.0  0.64414  0.91674  0.24629  1.0000
  N   N140      1.0  0.56686  0.78817  0.31697  1.0000
  C   C1928     1.0  0.57607  0.80193  0.29505  1.0000
  C   C1929     1.0  0.55495  0.77387  0.30991  1.0000
  C   C1930     1.0  0.58025  0.78106  0.32684  1.0000
  C   C1931     1.0  0.55757  0.79663  0.33383  1.0000
  C   C1932     1.0  0.59078  0.81673  0.29749  1.0000
  C   C1933     1.0  0.54122  0.77951  0.29803  1.0000
  C   C1934     1.0  0.57373  0.76579  0.34839  1.0000
  C   C1935     1.0  0.54234  0.78458  0.35324  1.0000
  H   H3263     1.0  0.58159  0.79592  0.28118  1.0000
  H   H3264     1.0  0.56699  0.80854  0.28778  1.0000
  H   H3265     1.0  0.54797  0.76285  0.32473  1.0000
  H   H3266     1.0  0.56247  0.76792  0.29775  1.0000
  H   H3267     1.0  0.58836  0.77670  0.31330  1.0000
  H   H3268     1.0  0.58917  0.79140  0.33224  1.0000
  H   H3269     1.0  0.56677  0.80405  0.34246  1.0000
  H   H3270     1.0  0.55222  0.80653  0.32426  1.0000
  H   H3271     1.0  0.60236  0.81220  0.29954  1.0000
  H   H3272     1.0  0.59464  0.82727  0.28139  1.0000
  H   H3273     1.0  0.58681  0.82264  0.31210  1.0000
  H   H3274     1.0  0.53385  0.78663  0.30828  1.0000
  H   H3275     1.0  0.54694  0.78761  0.28017  1.0000
  H   H3276     1.0  0.53190  0.76775  0.29626  1.0000
  H   H3277     1.0  0.56755  0.76986  0.36368  1.0000
  H   H3278     1.0  0.58495  0.76165  0.35313  1.0000
  H   H3279     1.0  0.56513  0.75412  0.34533  1.0000
  H   H3280     1.0  0.54312  0.78866  0.36985  1.0000
  H   H3281     1.0  0.54174  0.77055  0.35672  1.0000
  H   H3282     1.0  0.52994  0.78634  0.34959  1.0000
  H   H3283     1.0  0.57394  0.88319  0.05001  1.0000
  C   C1936     1.0  0.67160  0.96558  0.98017  1.0000
  C   C1937     1.0  0.50606  0.84768  0.26550  1.0000
  H   H3284     1.0  0.62645  0.95204  0.34007  1.0000
  H   H3285     1.0  0.59655  0.88702  0.04178  1.0000
  C   C1938     1.0  0.72860  0.98093  0.19052  1.0000
  H   H3286     1.0  0.58967  0.95857  0.38763  1.0000
  H   H3287     1.0  0.68451  0.97917  0.24766  1.0000
  H   H3288     1.0  0.52866  0.99068  0.41005  1.0000
  H   H3289     1.0  0.54115  0.68639  0.38364  1.0000
  N   N141      1.0  0.68481  0.94524  0.23439  1.0000
  H   H3290     1.0  0.49343  0.83749  0.20319  1.0000
  C   C1939     1.0  0.68119  0.96194  0.22330  1.0000
  C   C1940     1.0  0.69369  0.93778  0.21590  1.0000
  C   C1941     1.0  0.66890  0.93183  0.24930  1.0000
  H   H3291     1.0  0.62931  0.77441  0.40489  1.0000
  H   H3292     1.0  0.48934  0.97378  0.32883  1.0000
  C   C1942     1.0  0.68526  0.93547  0.19527  1.0000
  C   C1943     1.0  0.65200  0.93054  0.24081  1.0000
  C   C1944     1.0  0.54284  0.67584  0.39615  1.0000
  H   H3293     1.0  0.66343  0.96387  0.25445  1.0000
  Fe  Fe281     1.0  0.56776  0.69657  0.46445  1.0000
  N   N142      1.0  0.66769  0.98808  0.00524  1.0000
  H   H3294     1.0  0.70701  0.94607  0.20839  1.0000
  H   H3295     1.0  0.69508  0.92468  0.22348  1.0000
  H   H3296     1.0  0.67107  0.91856  0.25236  1.0000
  H   H3297     1.0  0.66615  0.93458  0.26680  1.0000
  H   H3298     1.0  0.51894  0.78540  0.07993  1.0000
  C   C1945     1.0  0.64806  0.97913  0.04685  1.0000
  H   H3299     1.0  0.62749  0.84345  0.07051  1.0000
  H   H3300     1.0  0.68020  0.96736  0.01172  1.0000
  C   C1946     1.0  0.50993  0.77213  0.08453  1.0000
  H   H3301     1.0  0.49953  0.97254  0.29035  1.0000
  H   H3302     1.0  0.68402  0.94794  0.18537  1.0000
  H   H3303     1.0  0.67279  0.92541  0.20075  1.0000
  H   H3304     1.0  0.69372  0.93070  0.18274  1.0000
  H   H3305     1.0  0.51443  0.76498  0.07159  1.0000
  H   H3306     1.0  0.64600  0.78089  0.44310  1.0000
  H   H3307     1.0  0.50643  0.73524  0.08555  1.0000
  C   C1947     1.0  0.60264  0.87100  0.09694  1.0000
  H   H3308     1.0  0.51717  0.73484  0.16718  1.0000
  C   C1948     1.0  0.66921  0.96991  0.00437  1.0000
  H   H3309     1.0  0.58906  0.83252  0.08017  1.0000
  H   H3310     1.0  0.63718  0.98406  0.04246  1.0000
  C   C1949     1.0  0.61307  0.86229  0.05984  1.0000
  C   C1950     1.0  0.61325  0.76876  0.44063  1.0000
  C   C1951     1.0  0.62481  0.76390  0.42094  1.0000
  H   H3311     1.0  0.52053  0.86274  0.44977  1.0000
  H   H3312     1.0  0.60115  0.76903  0.43501  1.0000
  H   H3313     1.0  0.57152  0.86108  0.08424  1.0000
  C   C1952     1.0  0.58325  0.86388  0.07028  1.0000
  C   C1953     1.0  0.62921  0.85778  0.06631  1.0000
  H   H3314     1.0  0.49830  0.85460  0.46270  1.0000
  H   H3315     1.0  0.57995  0.85525  0.05829  1.0000
  S   S568      1.0  0.73295  0.99093  0.06652  1.0000
  H   H3316     1.0  0.61582  0.79822  0.41535  1.0000
  C   C1954     1.0  0.61502  0.95732  0.34217  1.0000
  H   H3317     1.0  0.51870  0.86345  0.22032  1.0000
  C   C1955     1.0  0.59875  0.94376  0.34109  1.0000
  H   H3318     1.0  0.71194  0.93973  0.27291  1.0000
  C   C1956     1.0  0.71598  0.99378  0.15221  1.0000
  H   H3319     1.0  0.52408  0.75588  0.14814  1.0000
  H   H3320     1.0  0.49716  0.77406  0.08299  1.0000
  H   H3321     1.0  0.52433  0.74054  0.09837  1.0000
  C   C1957     1.0  0.58897  0.94472  0.39497  1.0000
  H   H3322     1.0  0.61475  0.89543  0.06875  1.0000
  H   H3323     1.0  0.61552  0.93133  0.37290  1.0000
  H   H3324     1.0  0.52679  0.84879  0.20565  1.0000
  H   H3325     1.0  0.66936  0.98255  0.23062  1.0000
  H   H3326     1.0  0.49479  0.99218  0.27795  1.0000
  C   C1958     1.0  0.64597  0.79866  0.46514  1.0000
  C   C1959     1.0  0.69725  0.94994  0.24956  1.0000
  H   H3327     1.0  0.56545  0.83718  0.10992  1.0000
  S   S569      1.0  0.73386  0.97894  0.26888  1.0000
  H   H3328     1.0  0.69308  0.97090  0.21141  1.0000
  C   C1960     1.0  0.70405  0.93495  0.26091  1.0000
  C   C1961     1.0  0.51864  0.74184  0.14894  1.0000
  H   H3329     1.0  0.51029  0.97350  0.41177  1.0000
  H   H3330     1.0  0.52788  0.73709  0.13762  1.0000
  H   H3331     1.0  0.64405  0.93792  0.24976  1.0000
  H   H3332     1.0  0.60916  0.86430  0.10916  1.0000
  H   H3333     1.0  0.49205  0.98261  0.43978  1.0000
  H   H3334     1.0  0.52355  0.76575  0.11057  1.0000
  H   H3335     1.0  0.62813  0.88994  0.08823  1.0000
  H   H3336     1.0  0.64020  0.86327  0.05100  1.0000
  H   H3337     1.0  0.71259  0.93070  0.24792  1.0000
  H   H3338     1.0  0.58072  0.84277  0.12761  1.0000
  N   N143      1.0  0.59137  0.92821  0.36143  1.0000
  C   C1962     1.0  0.58029  0.91404  0.35304  1.0000
  C   C1963     1.0  0.60558  0.92117  0.36902  1.0000
  C   C1964     1.0  0.58007  0.93263  0.38095  1.0000
  C   C1965     1.0  0.56534  0.91872  0.34312  1.0000
  C   C1966     1.0  0.59999  0.90601  0.39076  1.0000
  H   H3339     1.0  0.58820  0.90966  0.33940  1.0000
  H   H3340     1.0  0.57436  0.90223  0.36717  1.0000
  H   H3341     1.0  0.61265  0.91670  0.35461  1.0000
  H   H3342     1.0  0.60229  0.93940  0.32469  1.0000
  H   H3343     1.0  0.58897  0.95102  0.33825  1.0000
  H   H3344     1.0  0.57072  0.93913  0.37426  1.0000
  H   H3345     1.0  0.57164  0.92062  0.39347  1.0000
  H   H3346     1.0  0.55862  0.90739  0.33706  1.0000
  H   H3347     1.0  0.55556  0.92112  0.35655  1.0000
  H   H3348     1.0  0.56984  0.92990  0.32786  1.0000
  H   H3349     1.0  0.59189  0.89405  0.38776  1.0000
  H   H3350     1.0  0.61163  0.90260  0.39512  1.0000
  H   H3351     1.0  0.59327  0.90959  0.40614  1.0000
  H   H3352     1.0  0.70861  0.96081  0.23958  1.0000
  H   H3353     1.0  0.50299  0.82729  0.22419  1.0000
  H   H3354     1.0  0.49329  0.74565  0.15314  1.0000
  H   H3355     1.0  0.58187  0.77600  0.46033  1.0000
  H   H3356     1.0  0.61525  0.82327  0.42715  1.0000
  C   C1967     1.0  0.51446  0.98733  0.41296  1.0000
  H   H3357     1.0  0.63793  0.80065  0.41498  1.0000
  C   C1968     1.0  0.62676  0.81899  0.43037  1.0000
  C   C1969     1.0  0.51024  0.73426  0.10256  1.0000
  H   H3358     1.0  0.59174  0.79792  0.44338  1.0000
  H   H3359     1.0  0.50615  0.86158  0.26378  1.0000
  C   C1970     1.0  0.66522  0.98972  0.03022  1.0000
  S   S570      1.0  0.56808  0.85069  0.97438  1.0000
  H   H3360     1.0  0.73357  0.97593  0.20511  1.0000
  H   H3361     1.0  0.49544  0.86968  0.23403  1.0000
  H   H3362     1.0  0.49122  0.82293  0.26398  1.0000
  H   H3363     1.0  0.50125  0.66989  0.43487  1.0000
  H   H3364     1.0  0.63777  0.82833  0.41727  1.0000
  H   H3365     1.0  0.64869  0.98081  0.06469  1.0000
  S   S571      1.0  0.72707  0.99325  0.31660  1.0000
  C   C1971     1.0  0.50591  0.98904  0.43716  1.0000
  H   H3366     1.0  0.49424  0.72467  0.15041  1.0000
  C   C1972     1.0  0.60722  0.78748  0.46670  1.0000
  H   H3367     1.0  0.62881  0.82077  0.44756  1.0000
  H   H3368     1.0  0.51047  0.99519  0.39883  1.0000
  H   H3369     1.0  0.65219  0.81019  0.45061  1.0000
  H   H3370     1.0  0.49731  0.91081  0.97503  1.0000
  C   C1973     1.0  0.65363  0.99280  0.99433  1.0000
  H   H3371     1.0  0.63469  0.96705  0.01339  1.0000
  H   H3372     1.0  0.66946  0.95121  0.98250  1.0000
  H   H3373     1.0  0.49629  0.70793  0.12632  1.0000
  H   H3374     1.0  0.63441  0.97406  0.98340  1.0000
  H   H3375     1.0  0.62557  0.98440  0.00448  1.0000
  H   H3376     1.0  0.58022  0.99681  0.47009  1.0000
  C   C1974     1.0  0.49006  0.98038  0.29241  1.0000
  C   C1975     1.0  0.48886  0.98535  0.31620  1.0000
  Fe  Fe282     1.0  0.59150  0.84044  0.97198  1.0000
  Fe  Fe283     1.0  0.71053  0.99514  0.05115  1.0000
  C   C1976     1.0  0.72341  0.99637  0.18969  1.0000
  H   H3377     1.0  0.65820  0.99658  0.97506  1.0000
  H   H3378     1.0  0.51236  0.66695  0.47040  1.0000
  H   H3379     1.0  0.50052  0.75109  0.80041  1.0000
  C   C1977     1.0  0.67359  0.76127  0.71157  1.0000
  C   C1978     1.0  0.65372  0.67783  0.53937  1.0000
  C   C1979     1.0  0.58352  0.94250  0.91745  1.0000
  H   H3380     1.0  0.69057  0.68515  0.47607  1.0000
  S   S572      1.0  0.61009  0.86657  0.95466  1.0000
  Fe  Fe284     1.0  0.55819  0.71397  0.50449  1.0000
  S   S573      1.0  0.57673  0.69763  0.49782  1.0000
  S   S574      1.0  0.53616  0.71090  0.53508  1.0000
  C   C1980     1.0  0.62375  0.76199  0.90919  1.0000
  H   H3381     1.0  0.51090  0.88002  0.47781  1.0000
  H   H3382     1.0  0.49780  0.73991  0.76616  1.0000
  Fe  Fe285     1.0  0.49255  0.70158  0.71614  1.0000
  Fe  Fe286     1.0  0.57884  0.76523  0.85477  1.0000
  S   S575      1.0  0.58200  0.74019  0.87463  1.0000
  S   S576      1.0  0.58667  0.79197  0.86414  1.0000
  Fe  Fe287     1.0  0.56671  0.74736  0.81619  1.0000
  S   S577      1.0  0.56944  0.72142  0.83352  1.0000
  S   S578      1.0  0.55865  0.75161  0.78130  1.0000
  Fe  Fe288     1.0  0.55703  0.72732  0.86655  1.0000
  S   S579      1.0  0.53360  0.70854  0.89183  1.0000
  Fe  Fe289     1.0  0.59431  0.73667  0.83965  1.0000
  S   S580      1.0  0.61784  0.72586  0.83587  1.0000
  S   S581      1.0  0.55289  0.75266  0.84893  1.0000
  S   S582      1.0  0.59257  0.76234  0.82004  1.0000
  Fe  Fe290     1.0  0.69864  0.72914  0.54816  1.0000
  S   S583      1.0  0.70202  0.70796  0.57521  1.0000
  S   S584      1.0  0.66985  0.72494  0.54970  1.0000
  Fe  Fe291     1.0  0.72024  0.72861  0.58597  1.0000
  S   S585      1.0  0.71377  0.72337  0.62579  1.0000
  S   S586      1.0  0.71564  0.75022  0.56036  1.0000
  H   H3383     1.0  0.53587  0.87352  0.52182  1.0000
  S   S587      1.0  0.71697  0.72860  0.76323  1.0000
  Fe  Fe292     1.0  0.71712  0.75187  0.77897  1.0000
  S   S588      1.0  0.69492  0.76466  0.78074  1.0000
  H   H3384     1.0  0.66406  0.78141  0.90988  1.0000
  Fe  Fe293     1.0  0.50842  0.70348  0.66525  1.0000
  H   H3385     1.0  0.53137  0.68246  0.82861  1.0000
  S   S589      1.0  0.53351  0.70319  0.64261  1.0000
  N   N144      1.0  0.69211  0.76064  0.70715  1.0000
  H   H3386     1.0  0.48848  0.69221  0.58004  1.0000
  S   S590      1.0  0.50535  0.72386  0.68551  1.0000
  Fe  Fe294     1.0  0.50906  0.90502  0.86722  1.0000
  S   S591      1.0  0.52515  0.91264  0.83087  1.0000
  S   S592      1.0  0.51185  0.88684  0.89896  1.0000
  C   C1981     1.0  0.55273  0.98669  0.48259  1.0000
  S   S593      1.0  0.49922  0.93645  0.81717  1.0000
  Fe  Fe295     1.0  0.49992  0.90841  0.81936  1.0000
  Fe  Fe296     1.0  0.59563  0.72300  0.47751  1.0000
  Fe  Fe297     1.0  0.52302  0.93995  0.83164  1.0000
  S   S594      1.0  0.54619  0.96367  0.81823  1.0000
  H   H3387     1.0  0.54813  0.67603  0.71906  1.0000
  S   S595      1.0  0.50887  0.93246  0.86883  1.0000
  H   H3388     1.0  0.73109  0.69455  0.65128  1.0000
  C   C1982     1.0  0.66501  0.67608  0.55726  1.0000
  S   S596      1.0  0.51557  0.92321  0.50268  1.0000
  H   H3389     1.0  0.58346  0.94021  0.87214  1.0000
  H   H3390     1.0  0.56573  0.70613  0.66009  1.0000
  H   H3391     1.0  0.71091  0.75671  0.67969  1.0000
  C   C1983     1.0  0.51977  0.67732  0.92331  1.0000
  H   H3392     1.0  0.66511  0.75013  0.70723  1.0000
  S   S597      1.0  0.51750  0.97436  0.49997  1.0000
  H   H3393     1.0  0.50873  0.77960  0.70389  1.0000
  C   C1984     1.0  0.49285  0.75412  0.72568  1.0000
  H   H3394     1.0  0.67106  0.66520  0.55692  1.0000
  H   H3395     1.0  0.52639  0.97112  0.85897  1.0000
  H   H3396     1.0  0.63855  0.72710  0.87538  1.0000
  H   H3397     1.0  0.56561  0.85699  0.92505  1.0000
  C   C1985     1.0  0.72479  0.73134  0.64627  1.0000
  H   H3398     1.0  0.57389  0.78173  0.95007  1.0000
  H   H3399     1.0  0.69966  0.77792  0.72971  1.0000
  C   C1986     1.0  0.71834  0.72328  0.66997  1.0000
  H   H3400     1.0  0.72180  0.72236  0.70509  1.0000
  H   H3401     1.0  0.70685  0.71253  0.67522  1.0000
  H   H3402     1.0  0.65653  0.75884  0.90902  1.0000
  H   H3403     1.0  0.63554  0.78574  0.92046  1.0000
  H   H3404     1.0  0.68369  0.70517  0.47164  1.0000
  H   H3405     1.0  0.68848  0.68702  0.51869  1.0000
  H   H3406     1.0  0.48917  0.90864  0.91544  1.0000
  S   S598      1.0  0.71999  0.72622  0.52114  1.0000
  C   C1987     1.0  0.53761  0.98992  0.49350  1.0000
  C   C1988     1.0  0.53450  0.68812  0.90717  1.0000
  H   H3407     1.0  0.53153  0.89202  0.50435  1.0000
  H   H3408     1.0  0.50839  0.68195  0.92681  1.0000
  H   H3409     1.0  0.55291  0.82135  0.95305  1.0000
  H   H3410     1.0  0.49016  0.93200  0.94621  1.0000
  H   H3411     1.0  0.56067  0.69041  0.89058  1.0000
  C   C1989     1.0  0.54172  0.73728  0.77374  1.0000
  C   C1990     1.0  0.53823  0.74170  0.75163  1.0000
  C   C1991     1.0  0.52523  0.73048  0.74463  1.0000
  C   C1992     1.0  0.51538  0.71479  0.75981  1.0000
  C   C1993     1.0  0.51872  0.71047  0.78201  1.0000
  C   C1994     1.0  0.53186  0.72158  0.78892  1.0000
  H   H3412     1.0  0.54574  0.75385  0.73982  1.0000
  H   H3413     1.0  0.52276  0.73402  0.72755  1.0000
  H   H3414     1.0  0.51110  0.69843  0.79398  1.0000
  H   H3415     1.0  0.53434  0.71805  0.80602  1.0000
  C   C1995     1.0  0.63905  0.73677  0.81975  1.0000
  C   C1996     1.0  0.64335  0.75390  0.80655  1.0000
  C   C1997     1.0  0.66054  0.76233  0.79498  1.0000
  C   C1998     1.0  0.67354  0.75362  0.79603  1.0000
  C   C1999     1.0  0.66920  0.73640  0.80891  1.0000
  C   C2000     1.0  0.65206  0.72808  0.82080  1.0000
  H   H3416     1.0  0.63344  0.76064  0.80525  1.0000
  H   H3417     1.0  0.66376  0.77566  0.78507  1.0000
  H   H3418     1.0  0.67905  0.72953  0.80988  1.0000
  H   H3419     1.0  0.64887  0.71482  0.83095  1.0000
  C   C2001     1.0  0.53721  0.71087  0.56417  1.0000
  C   C2002     1.0  0.52377  0.71478  0.57846  1.0000
  C   C2003     1.0  0.52285  0.71298  0.60238  1.0000
  C   C2004     1.0  0.53527  0.70706  0.61229  1.0000
  C   C2005     1.0  0.54900  0.70359  0.59794  1.0000
  C   C2006     1.0  0.55000  0.70551  0.57390  1.0000
  H   H3420     1.0  0.51392  0.71907  0.57099  1.0000
  H   H3421     1.0  0.51242  0.71605  0.61314  1.0000
  H   H3422     1.0  0.55871  0.69908  0.60549  1.0000
  H   H3423     1.0  0.56034  0.70236  0.56304  1.0000
  C   C2007     1.0  0.63699  0.73098  0.49537  1.0000
  C   C2008     1.0  0.72047  0.67561  0.50560  1.0000
  C   C2009     1.0  0.66530  0.73623  0.50509  1.0000
  C   C2010     1.0  0.65766  0.72819  0.52839  1.0000
  C   C2011     1.0  0.63965  0.72184  0.53511  1.0000
  C   C2012     1.0  0.62936  0.72314  0.51870  1.0000
  H   H3424     1.0  0.60984  0.77205  0.87534  1.0000
  H   H3425     1.0  0.67912  0.74123  0.49969  1.0000
  C   C2013     1.0  0.56356  0.89304  0.92005  1.0000
  C   C2014     1.0  0.54842  0.88266  0.93553  1.0000
  C   C2015     1.0  0.53261  0.88094  0.92889  1.0000
  C   C2016     1.0  0.53181  0.88978  0.90690  1.0000
  C   C2017     1.0  0.54692  0.90018  0.89145  1.0000
  C   C2018     1.0  0.56276  0.90166  0.89797  1.0000
  H   H3426     1.0  0.54889  0.87599  0.95261  1.0000
  H   H3427     1.0  0.52097  0.87276  0.94086  1.0000
  H   H3428     1.0  0.54644  0.90680  0.87433  1.0000
  H   H3429     1.0  0.57447  0.90931  0.88573  1.0000
  C   C2019     1.0  0.58888  0.80812  0.93409  1.0000
  C   C2020     1.0  0.59735  0.81978  0.91286  1.0000
  C   C2021     1.0  0.59683  0.81448  0.89172  1.0000
  C   C2022     1.0  0.58789  0.79745  0.89143  1.0000
  C   C2023     1.0  0.57977  0.78566  0.91266  1.0000
  C   C2024     1.0  0.58032  0.79096  0.93380  1.0000
  H   H3430     1.0  0.60435  0.83288  0.91275  1.0000
  H   H3431     1.0  0.60328  0.82370  0.87545  1.0000
  H   H3432     1.0  0.57283  0.77252  0.91281  1.0000
  H   H3433     1.0  0.65912  0.77905  0.86296  1.0000
  N   N145      1.0  0.63334  0.76776  0.88407  1.0000
  H   H3434     1.0  0.55798  0.74911  0.66726  1.0000
  H   H3435     1.0  0.67506  0.77265  0.88865  1.0000
  C   C2025     1.0  0.68646  0.74740  0.67170  1.0000
  H   H3436     1.0  0.50599  0.93727  0.70486  1.0000
  H   H3437     1.0  0.65620  0.68878  0.48072  1.0000
  C   C2026     1.0  0.68348  0.72722  0.72604  1.0000
  H   H3438     1.0  0.57784  0.69573  0.70524  1.0000
  C   C2027     1.0  0.58459  0.85909  0.89449  1.0000
  C   C2028     1.0  0.52711  0.88206  0.52098  1.0000
  Fe  Fe298     1.0  0.73213  0.72103  0.78954  1.0000
  N   N146      1.0  0.66212  0.68005  0.51412  1.0000
  H   H3439     1.0  0.72889  0.69737  0.60190  1.0000
  H   H3440     1.0  0.50000  0.66870  0.88620  1.0000
  S   S599      1.0  0.72404  0.69407  0.81384  1.0000
  S   S600      1.0  0.49745  0.89261  0.79126  1.0000
  H   H3441     1.0  0.63921  0.75601  0.85492  1.0000
  H   H3442     1.0  0.61721  0.77103  0.94086  1.0000
  C   C2029     1.0  0.72188  0.66703  0.52728  1.0000
  H   H3443     1.0  0.55061  0.94586  0.87047  1.0000
  H   H3444     1.0  0.52616  0.67443  0.71776  1.0000
  H   H3445     1.0  0.67945  0.70472  0.51360  1.0000
  H   H3446     1.0  0.60556  0.96361  0.89934  1.0000
  H   H3447     1.0  0.51531  0.67827  0.59343  1.0000
  C   C2030     1.0  0.65498  0.73768  0.48870  1.0000
  H   H3448     1.0  0.63539  0.73254  0.90289  1.0000
  H   H3449     1.0  0.49243  0.88482  0.94357  1.0000
  H   H3450     1.0  0.59760  0.97009  0.82895  1.0000
  C   C2031     1.0  0.54911  0.66532  0.91450  1.0000
  H   H3451     1.0  0.64881  0.68934  0.54182  1.0000
  H   H3452     1.0  0.48800  0.86923  0.67974  1.0000
  C   C2032     1.0  0.49302  0.88210  0.68364  1.0000
  H   H3453     1.0  0.49923  0.92980  0.63271  1.0000
  H   H3454     1.0  0.61187  0.79897  0.47375  1.0000
  C   C2033     1.0  0.49481  0.92118  0.67014  1.0000
  C   C2034     1.0  0.65166  0.77834  0.88067  1.0000
  H   H3455     1.0  0.66592  0.74987  0.74942  1.0000
  H   H3456     1.0  0.68131  0.71966  0.74419  1.0000
  N   N147      1.0  0.55334  0.83915  0.90616  1.0000
  C   C2035     1.0  0.56895  0.84806  0.91392  1.0000
  C   C2036     1.0  0.53895  0.83177  0.92758  1.0000
  C   C2037     1.0  0.54896  0.85278  0.88916  1.0000
  C   C2038     1.0  0.55784  0.82510  0.89474  1.0000
  H   H3457     1.0  0.59511  0.86454  0.90271  1.0000
  C   C2039     1.0  0.54150  0.81708  0.94589  1.0000
  C   C2040     1.0  0.53022  0.84943  0.88641  1.0000
  C   C2041     1.0  0.54342  0.81338  0.88683  1.0000
  Fe  Fe299     1.0  0.51215  0.94937  0.48706  1.0000
  H   H3458     1.0  0.72692  0.77039  0.71287  1.0000
  H   H3459     1.0  0.52654  0.82628  0.92330  1.0000
  H   H3460     1.0  0.53669  0.84239  0.93635  1.0000
  H   H3461     1.0  0.55166  0.86554  0.89424  1.0000
  H   H3462     1.0  0.55731  0.85516  0.87151  1.0000
  H   H3463     1.0  0.56833  0.83085  0.87890  1.0000
  H   H3464     1.0  0.56340  0.81646  0.90597  1.0000
  H   H3465     1.0  0.49558  0.90180  0.55349  1.0000
  C   C2042     1.0  0.53754  0.68237  0.72221  1.0000
  C   C2043     1.0  0.72229  0.78098  0.70382  1.0000
  H   H3466     1.0  0.53391  0.68209  0.74103  1.0000
  C   C2044     1.0  0.56684  0.96500  0.88484  1.0000
  H   H3467     1.0  0.65172  0.76116  0.73815  1.0000
  H   H3468     1.0  0.52538  0.83676  0.88210  1.0000
  H   H3469     1.0  0.52943  0.85978  0.87199  1.0000
  H   H3470     1.0  0.52152  0.85051  0.90220  1.0000
  H   H3471     1.0  0.54256  0.81940  0.86908  1.0000
  H   H3472     1.0  0.53073  0.81009  0.89889  1.0000
  H   H3473     1.0  0.54634  0.80061  0.88651  1.0000
  H   H3474     1.0  0.61555  0.71799  0.52409  1.0000
  H   H3475     1.0  0.62598  0.77370  0.83664  1.0000
  H   H3476     1.0  0.61906  0.74522  0.87431  1.0000
  C   C2045     1.0  0.54959  0.98135  0.83221  1.0000
  C   C2046     1.0  0.62277  0.77681  0.92206  1.0000
  H   H3477     1.0  0.72867  0.67626  0.59817  1.0000
  H   H3478     1.0  0.50290  0.88994  0.66803  1.0000
  H   H3479     1.0  0.62437  0.79122  0.87781  1.0000
  H   H3480     1.0  0.58957  0.94072  0.93258  1.0000
  C   C2047     1.0  0.49723  0.75364  0.76500  1.0000
  H   H3481     1.0  0.50763  0.91842  0.66758  1.0000
  C   C2048     1.0  0.72835  0.68409  0.61155  1.0000
  C   C2049     1.0  0.54925  0.68216  0.90295  1.0000
  H   H3482     1.0  0.57363  0.99507  0.80814  1.0000
  S   S601      1.0  0.58369  0.89551  0.92757  1.0000
  S   S602      1.0  0.49762  0.68140  0.69653  1.0000
  H   H3483     1.0  0.69409  0.74817  0.74144  1.0000
  H   H3484     1.0  0.52828  0.88932  0.53496  1.0000
  S   S603      1.0  0.54818  0.71121  0.47246  1.0000
  C   C2050     1.0  0.70256  0.77745  0.71104  1.0000
  H   H3485     1.0  0.53021  0.81292  0.96080  1.0000
  H   H3486     1.0  0.72695  0.78307  0.68478  1.0000
  H   H3487     1.0  0.67502  0.68842  0.55501  1.0000
  H   H3488     1.0  0.52805  0.87147  0.48299  1.0000
  H   H3489     1.0  0.56053  0.68484  0.67896  1.0000
  C   C2051     1.0  0.49673  0.92682  0.71884  1.0000
  H   H3490     1.0  0.50463  0.90586  0.70685  1.0000
  H   H3491     1.0  0.54537  0.72755  0.67042  1.0000
  C   C2052     1.0  0.63263  0.75202  0.87359  1.0000
  H   H3492     1.0  0.62602  0.68132  0.52312  1.0000
  H   H3493     1.0  0.66237  0.96941  0.97021  1.0000
  H   H3494     1.0  0.67220  0.77300  0.69987  1.0000
  H   H3495     1.0  0.51397  0.76110  0.69532  1.0000
  H   H3496     1.0  0.60415  0.77618  0.48187  1.0000
  S   S604      1.0  0.58903  0.81406  0.96136  1.0000
  H   H3497     1.0  0.49724  0.93495  0.67190  1.0000
  C   C2053     1.0  0.50141  0.90407  0.96139  1.0000
  H   H3498     1.0  0.61411  0.78446  0.91598  1.0000
  H   H3499     1.0  0.67493  0.75187  0.66913  1.0000
  H   H3500     1.0  0.72839  0.79309  0.70882  1.0000
  H   H3501     1.0  0.54233  0.80537  0.93895  1.0000
  C   C2054     1.0  0.68962  0.69690  0.48279  1.0000
  H   H3502     1.0  0.58966  0.85123  0.88300  1.0000
  H   H3503     1.0  0.61028  0.75441  0.91059  1.0000
  H   H3504     1.0  0.62915  0.75280  0.91965  1.0000
  H   H3505     1.0  0.57373  0.83846  0.92490  1.0000
  H   H3506     1.0  0.63362  0.71568  0.55311  1.0000
  C   C2055     1.0  0.66203  0.77221  0.89826  1.0000
  C   C2056     1.0  0.62375  0.77896  0.87158  1.0000
  C   C2057     1.0  0.62990  0.78473  0.84491  1.0000
  Fe  Fe300     1.0  0.72421  0.70622  0.54912  1.0000
  C   C2058     1.0  0.64098  0.73815  0.88415  1.0000
  H   H3507     1.0  0.52655  0.82788  0.51532  1.0000
  C   C2059     1.0  0.53812  0.98150  0.85235  1.0000
  C   C2060     1.0  0.67997  0.69220  0.50848  1.0000
  H   H3508     1.0  0.50397  0.67344  0.57217  1.0000
  H   H3509     1.0  0.50117  0.78578  0.74091  1.0000
  H   H3510     1.0  0.62349  0.79474  0.83833  1.0000
  N   N148      1.0  0.58574  0.96577  0.88033  1.0000
  C   C2061     1.0  0.59589  0.98425  0.86824  1.0000
  C   C2062     1.0  0.59052  0.95404  0.86475  1.0000
  H   H3511     1.0  0.57904  0.99167  0.55324  1.0000
  S   S605      1.0  0.49850  0.70048  0.75210  1.0000
  H   H3512     1.0  0.51079  0.76162  0.75856  1.0000
  C   C2063     1.0  0.58756  0.95849  0.83995  1.0000
  H   H3513     1.0  0.53713  0.67323  0.85433  1.0000
  H   H3514     1.0  0.50881  0.91360  0.94508  1.0000
  H   H3515     1.0  0.60981  0.98504  0.86275  1.0000
  H   H3516     1.0  0.59176  0.98865  0.85198  1.0000
  C   C2064     1.0  0.55404  0.94712  0.88732  1.0000
  H   H3517     1.0  0.60432  0.95423  0.86306  1.0000
  H   H3518     1.0  0.69920  0.78894  0.70152  1.0000
  H   H3519     1.0  0.58614  0.93255  0.90784  1.0000
  H   H3520     1.0  0.56440  0.97384  0.87018  1.0000
  S   S606      1.0  0.72613  0.67839  0.54927  1.0000
  H   H3521     1.0  0.58803  0.96980  0.91456  1.0000
  Fe  Fe301     1.0  0.48795  0.91232  0.50228  1.0000
  H   H3522     1.0  0.58264  0.79393  0.47383  1.0000
  H   H3523     1.0  0.57477  0.96077  0.83990  1.0000
  C   C2065     1.0  0.52565  0.84115  0.51703  1.0000
  C   C2066     1.0  0.50814  0.87196  0.52451  1.0000
  C   C2067     1.0  0.66549  0.76147  0.73671  1.0000
  H   H3524     1.0  0.53496  0.85007  0.50170  1.0000
  S   S607      1.0  0.57764  0.73945  0.48679  1.0000
  H   H3525     1.0  0.49254  0.76927  0.79107  1.0000
  H   H3526     1.0  0.56255  0.69759  0.73953  1.0000
  C   C2068     1.0  0.71704  0.66612  0.48862  1.0000
  S   S608      1.0  0.62477  0.73226  0.47379  1.0000
  C   C2069     1.0  0.69501  0.74572  0.72364  1.0000
  C   C2070     1.0  0.72673  0.72887  0.68696  1.0000
  H   H3527     1.0  0.67159  0.77352  0.74178  1.0000
  C   C2071     1.0  0.50690  0.84204  0.51841  1.0000
  Fe  Fe302     1.0  0.58665  0.87688  0.95877  1.0000
  H   H3528     1.0  0.71606  0.67289  0.47186  1.0000
  H   H3529     1.0  0.64394  0.79062  0.83914  1.0000
  H   H3530     1.0  0.58831  0.94740  0.83154  1.0000
  H   H3531     1.0  0.51363  0.84322  0.47193  1.0000
  C   C2072     1.0  0.59132  0.96126  0.90279  1.0000
  H   H3532     1.0  0.70843  0.74484  0.71863  1.0000
  H   H3533     1.0  0.68980  0.72021  0.71430  1.0000
  H   H3534     1.0  0.54176  0.94650  0.89915  1.0000
  H   H3535     1.0  0.49768  0.93736  0.91571  1.0000
  H   H3536     1.0  0.56848  0.73372  0.65825  1.0000
  H   H3537     1.0  0.49991  0.66389  0.65397  1.0000
  C   C2073     1.0  0.49162  0.75552  0.79013  1.0000
  C   C2074     1.0  0.63214  0.68036  0.50556  1.0000
  H   H3538     1.0  0.70080  0.77318  0.67051  1.0000
  H   H3539     1.0  0.55821  0.93568  0.89460  1.0000
  C   C2075     1.0  0.73087  0.67546  0.80895  1.0000
  H   H3540     1.0  0.65198  0.79213  0.88133  1.0000
  H   H3541     1.0  0.53339  0.99450  0.88031  1.0000
  H   H3542     1.0  0.56294  0.96999  0.90054  1.0000
  H   H3543     1.0  0.65513  0.74321  0.88065  1.0000
  N   N149      1.0  0.56006  0.71212  0.70664  1.0000
  C   C2076     1.0  0.56211  0.71096  0.73139  1.0000
  C   C2077     1.0  0.54227  0.70125  0.70759  1.0000
  C   C2078     1.0  0.56157  0.73099  0.69611  1.0000
  C   C2079     1.0  0.57410  0.70585  0.69350  1.0000
  C   C2080     1.0  0.57822  0.72355  0.73475  1.0000
  H   H3544     1.0  0.65685  0.67362  0.57497  1.0000
  C   C2081     1.0  0.55808  0.73517  0.67165  1.0000
  C   C2082     1.0  0.57019  0.69769  0.67296  1.0000
  H   H3545     1.0  0.55079  0.71322  0.74241  1.0000
  H   H3546     1.0  0.62873  0.66663  0.50390  1.0000
  H   H3547     1.0  0.54016  0.70047  0.69001  1.0000
  H   H3548     1.0  0.53237  0.70750  0.71484  1.0000
  H   H3549     1.0  0.55267  0.73610  0.70755  1.0000
  H   H3550     1.0  0.57468  0.73933  0.69474  1.0000
  H   H3551     1.0  0.58608  0.71668  0.68664  1.0000
  C   C2083     1.0  0.49226  0.90932  0.71131  1.0000
  H   H3552     1.0  0.59012  0.72323  0.72295  1.0000
  H   H3553     1.0  0.57691  0.73711  0.73249  1.0000
  H   H3554     1.0  0.57961  0.71968  0.75291  1.0000
  C   C2084     1.0  0.50654  0.66739  0.58893  1.0000
  C   C2085     1.0  0.65176  0.68860  0.49941  1.0000
  H   H3555     1.0  0.58175  0.87043  0.88402  1.0000
  H   H3556     1.0  0.69351  0.74723  0.65416  1.0000
  H   H3557     1.0  0.70294  0.70474  0.48125  1.0000
  C   C2086     1.0  0.69835  0.76004  0.68215  1.0000
  H   H3558     1.0  0.65364  0.70248  0.50031  1.0000
  H   H3559     1.0  0.67050  0.72682  0.72313  1.0000
  C   C2087     1.0  0.51401  0.86756  0.48431  1.0000
  H   H3560     1.0  0.49444  0.68355  0.62009  1.0000
  H   H3561     1.0  0.50300  0.92499  0.73377  1.0000
  H   H3562     1.0  0.72216  0.68958  0.50189  1.0000
  H   H3563     1.0  0.68261  0.73381  0.68191  1.0000
  H   H3564     1.0  0.51051  0.89698  0.96759  1.0000
  H   H3565     1.0  0.70757  0.68478  0.64026  1.0000
  H   H3566     1.0  0.52982  0.84359  0.53305  1.0000
  H   H3567     1.0  0.66585  0.66389  0.48915  1.0000
  H   H3568     1.0  0.56957  0.93996  0.92474  1.0000
  H   H3569     1.0  0.49792  0.89258  0.59432  1.0000
  C   C2088     1.0  0.71034  0.67661  0.62784  1.0000
  H   H3570     1.0  0.55233  0.97427  0.47800  1.0000
  H   H3571     1.0  0.52048  0.76730  0.72022  1.0000
  H   H3572     1.0  0.64230  0.66632  0.54507  1.0000
  H   H3573     1.0  0.52006  0.68411  0.85589  1.0000
  N   N150      1.0  0.50401  0.85948  0.50898  1.0000
  C   C2089     1.0  0.48891  0.92092  0.64720  1.0000
  H   H3574     1.0  0.58211  0.69535  0.66361  1.0000
  C   C2090     1.0  0.56473  0.99504  0.82377  1.0000
  H   H3575     1.0  0.70056  0.67649  0.61712  1.0000
  H   H3576     1.0  0.49466  0.74070  0.72873  1.0000
  C   C2091     1.0  0.54210  0.99481  0.86438  1.0000
  H   H3577     1.0  0.50049  0.83175  0.51028  1.0000
  H   H3578     1.0  0.49890  0.87955  0.69875  1.0000
  H   H3579     1.0  0.50042  0.83724  0.53714  1.0000
  H   H3580     1.0  0.50105  0.88220  0.52231  1.0000
  C   C2092     1.0  0.52603  0.67531  0.84701  1.0000
  C   C2093     1.0  0.51002  0.76636  0.71069  1.0000
  H   H3581     1.0  0.51701  0.66785  0.62887  1.0000
  S   S609      1.0  0.73075  0.74354  0.80684  1.0000
  C   C2094     1.0  0.48757  0.77776  0.74542  1.0000
  H   H3582     1.0  0.49125  0.86738  0.76346  1.0000
  H   H3583     1.0  0.62631  0.68780  0.49316  1.0000
  H   H3584     1.0  0.50374  0.86508  0.54317  1.0000
  H   H3585     1.0  0.63783  0.80212  0.47940  1.0000
  H   H3586     1.0  0.65651  0.79475  0.47232  1.0000
  H   H3587     1.0  0.73169  0.66460  0.65470  1.0000
  H   H3588     1.0  0.68492  0.97152  0.96980  1.0000
  H   H3589     1.0  0.63258  0.77150  0.47125  1.0000
  H   H3590     1.0  0.66100  0.74378  0.47067  1.0000
  H   H3591     1.0  0.89875  0.99997  0.02594  1.0000
  H   H3592     1.0  0.97154  0.09998  0.01215  1.0000
  Fe  Fe303     1.0  0.88039  0.01433  0.34420  1.0000
  S   S610      1.0  0.87344  0.03769  0.35459  1.0000
  H   H3593     1.0  0.93013  0.99826  0.24541  1.0000
  Fe  Fe304     1.0  0.87741  0.02599  0.38963  1.0000
  S   S611      1.0  0.89467  0.03545  0.41350  1.0000
  Fe  Fe305     1.0  0.84625  0.02003  0.36511  1.0000
  S   S612      1.0  0.82054  0.02548  0.36042  1.0000
  C   C2095     1.0  0.91548  0.00936  0.30861  1.0000
  H   H3594     1.0  0.77165  0.04281  0.34154  1.0000
  H   H3595     1.0  0.85514  0.31097  0.00081  1.0000
  H   H3596     1.0  0.75713  0.04176  0.38443  1.0000
  H   H3597     1.0  0.80315  0.00888  0.99081  1.0000
  Fe  Fe306     1.0  0.95835  0.11405  0.44285  1.0000
  S   S613      1.0  0.94149  0.10919  0.41692  1.0000
  H   H3598     1.0  0.79263  0.10649  0.34426  1.0000
  S   S614      1.0  0.97026  0.09435  0.46007  1.0000
  H   H3599     1.0  0.80344  0.23446  0.21152  1.0000
  S   S615      1.0  0.88549  0.00335  0.37850  1.0000
  H   H3600     1.0  0.82907  0.01047  0.32010  1.0000
  H   H3601     1.0  0.96303  0.02506  0.20671  1.0000
  C   C2096     1.0  0.86942  0.31549  0.99756  1.0000
  H   H3602     1.0  0.79860  0.09433  0.36875  1.0000
  C   C2097     1.0  0.78090  0.01045  0.32906  1.0000
  S   S616      1.0  0.75348  0.12867  0.37865  1.0000
  H   H3603     1.0  0.93292  0.02949  0.28068  1.0000
  Fe  Fe307     1.0  0.85810  0.26660  0.44389  1.0000
  S   S617      1.0  0.85990  0.23873  0.44934  1.0000
  S   S618      1.0  0.87136  0.28480  0.40881  1.0000
  S   S619      1.0  0.80916  0.21094  0.45630  1.0000
  Fe  Fe308     1.0  0.76183  0.15820  0.36776  1.0000
  S   S620      1.0  0.78642  0.17561  0.37420  1.0000
  H   H3604     1.0  0.75934  0.19224  0.30409  1.0000
  S   S621      1.0  0.75871  0.11084  0.31903  1.0000
  H   H3605     1.0  0.92510  0.22094  0.45974  1.0000
  H   H3606     1.0  0.81245  0.25736  0.33900  1.0000
  S   S622      1.0  0.76102  0.15773  0.33026  1.0000
  H   H3607     1.0  0.76748  0.01036  0.33172  1.0000
  C   C2098     1.0  0.78930  0.22932  0.21423  1.0000
  C   C2099     1.0  0.75011  0.20488  0.21460  1.0000
  S   S623      1.0  0.78104  0.30139  0.19717  1.0000
  C   C2100     1.0  0.76609  0.28862  0.18460  1.0000
  C   C2101     1.0  0.76228  0.29510  0.16346  1.0000
  H   H3608     1.0  0.80096  0.07709  0.28812  1.0000
  H   H3609     1.0  0.97875  0.05455  0.03980  1.0000
  H   H3610     1.0  0.74433  0.05490  0.37193  1.0000
  H   H3611     1.0  0.77640  0.19220  0.45047  1.0000
  H   H3612     1.0  0.76895  0.30824  0.15375  1.0000
  C   C2102     1.0  0.78829  0.00422  0.31051  1.0000
  H   H3613     1.0  0.76426  0.08501  0.35308  1.0000
  H   H3614     1.0  0.78486  0.02093  0.35891  1.0000
  H   H3615     1.0  0.98652  0.07356  0.31518  1.0000
  H   H3616     1.0  0.93223  0.17204  0.46428  1.0000
  H   H3617     1.0  0.73816  0.12312  0.09359  1.0000
  H   H3618     1.0  0.79908  0.05240  0.34818  1.0000
  H   H3619     1.0  0.75259  0.28354  0.08667  1.0000
  H   H3620     1.0  0.92953  0.04279  0.32064  1.0000
  C   C2103     1.0  0.86228  0.32028  0.03690  1.0000
  C   C2104     1.0  0.87190  0.30709  0.40525  1.0000
  S   S624      1.0  0.88162  0.99788  0.98209  1.0000
  H   H3621     1.0  0.76000  0.05791  0.33299  1.0000
  H   H3622     1.0  0.78096  0.08622  0.31595  1.0000
  H   H3623     1.0  0.94337  0.01246  0.18041  1.0000
  C   C2105     1.0  0.86580  0.31374  0.42405  1.0000
  H   H3624     1.0  0.88351  0.31333  0.36862  1.0000
  H   H3625     1.0  0.78307  0.05899  0.30231  1.0000
  H   H3626     1.0  0.86040  0.30511  0.44104  1.0000
  C   C2106     1.0  0.80319  0.20132  0.43310  1.0000
  C   C2107     1.0  0.78581  0.19275  0.43508  1.0000
  C   C2108     1.0  0.78041  0.18480  0.41743  1.0000
  C   C2109     1.0  0.79235  0.18525  0.39738  1.0000
  C   C2110     1.0  0.80974  0.19381  0.39540  1.0000
  C   C2111     1.0  0.81514  0.20163  0.41313  1.0000
  H   H3627     1.0  0.94292  0.07329  0.43384  1.0000
  H   H3628     1.0  0.76701  0.17828  0.41938  1.0000
  H   H3629     1.0  0.81917  0.19410  0.38018  1.0000
  H   H3630     1.0  0.82861  0.20749  0.41159  1.0000
  H   H3631     1.0  0.89647  0.09162  0.45955  1.0000
  H   H3632     1.0  0.95401  0.08096  0.01496  1.0000
  C   C2112     1.0  0.94299  0.04967  0.36986  1.0000
  H   H3633     1.0  0.79180  0.25752  0.42667  1.0000
  H   H3634     1.0  0.74669  0.28978  0.13873  1.0000
  S   S625      1.0  0.82945  0.25924  0.45639  1.0000
  C   C2113     1.0  0.76107  0.26188  0.07487  1.0000
  C   C2114     1.0  0.90880  0.05611  0.41156  1.0000
  C   C2115     1.0  0.92237  0.05682  0.42312  1.0000
  C   C2116     1.0  0.93271  0.07294  0.42457  1.0000
  C   C2117     1.0  0.92960  0.08857  0.41435  1.0000
  C   C2118     1.0  0.91653  0.08786  0.40188  1.0000
  C   C2119     1.0  0.90615  0.07173  0.40051  1.0000
  H   H3635     1.0  0.80365  0.06058  0.31015  1.0000
  C   C2120     1.0  0.77493  0.00689  0.07436  1.0000
  H   H3636     1.0  0.91413  0.09989  0.39371  1.0000
  H   H3637     1.0  0.89574  0.07140  0.39157  1.0000
  C   C2121     1.0  0.80833  0.01680  0.34126  1.0000
  C   C2122     1.0  0.79085  0.01657  0.34438  1.0000
  Fe  Fe309     1.0  0.97548  0.01409  0.05717  1.0000
  C   C2123     1.0  0.81565  0.01037  0.32288  1.0000
  C   C2124     1.0  0.75091  0.08235  0.29965  1.0000
  S   S626      1.0  0.89946  0.02055  0.31005  1.0000
  S   S627      1.0  0.98251  0.13611  0.43522  1.0000
  H   H3638     1.0  0.82204  0.27352  0.40860  1.0000
  C   C2125     1.0  0.78165  0.22204  0.24043  1.0000
  H   H3639     1.0  0.76206  0.22229  0.28203  1.0000
  C   C2126     1.0  0.74292  0.32843  0.18729  1.0000
  H   H3640     1.0  0.98038  0.05078  0.31642  1.0000
  H   H3641     1.0  0.96955  0.04251  0.00495  1.0000
  C   C2127     1.0  0.92246  0.06283  0.33641  1.0000
  C   C2128     1.0  0.74138  0.06571  0.29863  1.0000
  C   C2129     1.0  0.97793  0.06092  0.32593  1.0000
  C   C2130     1.0  0.93715  0.01324  0.36090  1.0000
  C   C2131     1.0  0.97350  0.00713  0.98368  1.0000
  C   C2132     1.0  0.93102  0.01694  0.29223  1.0000
  H   H3642     1.0  0.77484  0.00372  0.11005  1.0000
  C   C2133     1.0  0.90804  0.32310  0.00282  1.0000
  C   C2134     1.0  0.98477  0.06867  0.03229  1.0000
  H   H3643     1.0  0.74313  0.12485  0.05114  1.0000
  H   H3644     1.0  0.80155  0.08882  0.32226  1.0000
  H   H3645     1.0  0.79848  0.25954  0.36462  1.0000
  H   H3646     1.0  0.94197  0.00171  0.35850  1.0000
  C   C2135     1.0  0.87883  0.31842  0.38325  1.0000
  C   C2136     1.0  0.74551  0.09051  0.31740  1.0000
  C   C2137     1.0  0.92867  0.04604  0.33802  1.0000
  H   H3647     1.0  0.78728  0.21097  0.24530  1.0000
  H   H3648     1.0  0.79539  0.23923  0.35704  1.0000
  H   H3649     1.0  0.76436  0.11260  0.02878  1.0000
  H   H3650     1.0  0.95617  0.01453  0.27844  1.0000
  H   H3651     1.0  0.93204  0.07439  0.32465  1.0000
  H   H3652     1.0  0.74302  0.19241  0.25050  1.0000
  H   H3653     1.0  0.94063  0.03984  0.99664  1.0000
  N   N151      1.0  0.87505  0.31471  0.02033  1.0000
  H   H3654     1.0  0.92183  0.00948  0.98837  1.0000
  C   C2138     1.0  0.87461  0.29621  0.03118  1.0000
  C   C2139     1.0  0.93471  0.00466  0.04811  1.0000
  H   H3655     1.0  0.91863  0.06552  0.35378  1.0000
  C   C2140     1.0  0.75730  0.27149  0.19688  1.0000
  C   C2141     1.0  0.87994  0.29358  0.05471  1.0000
  C   C2142     1.0  0.76513  0.19619  0.28514  1.0000
  H   H3656     1.0  0.85063  0.27913  0.37400  1.0000
  H   H3657     1.0  0.75726  0.23581  0.22209  1.0000
  H   H3658     1.0  0.76542  0.22183  0.05543  1.0000
  H   H3659     1.0  0.88297  0.29069  0.01970  1.0000
  H   H3660     1.0  0.86145  0.28750  0.03379  1.0000
  H   H3661     1.0  0.76870  0.23055  0.08792  1.0000
  C   C2143     1.0  0.75118  0.32744  0.24908  1.0000
  H   H3662     1.0  0.92094  0.02267  0.03506  1.0000
  S   S628      1.0  0.95098  0.02112  0.05274  1.0000
  H   H3663     1.0  0.94732  0.24382  0.45793  1.0000
  H   H3664     1.0  0.76786  0.07421  0.37892  1.0000
  C   C2144     1.0  0.95907  0.06180  0.32878  1.0000
  C   C2145     1.0  0.96364  0.09207  0.00257  1.0000
  H   H3665     1.0  0.78454  0.24037  0.20672  1.0000
  H   H3666     1.0  0.74571  0.05960  0.28488  1.0000
  C   C2146     1.0  0.96229  0.02051  0.22549  1.0000
  H   H3667     1.0  0.77090  0.24808  0.11672  1.0000
  H   H3668     1.0  0.74366  0.20612  0.28101  1.0000
  C   C2147     1.0  0.96418  0.00175  0.23115  1.0000
  H   H3669     1.0  0.94622  0.06225  0.98187  1.0000
  H   H3670     1.0  0.75867  0.26882  0.05848  1.0000
  H   H3671     1.0  0.75905  0.23097  0.03025  1.0000
  H   H3672     1.0  0.89326  0.30130  0.05327  1.0000
  S   S629      1.0  0.74447  0.02121  0.26564  1.0000
  H   H3673     1.0  0.84674  0.26831  0.35141  1.0000
  C   C2148     1.0  0.94422  0.00851  0.29098  1.0000
  C   C2149     1.0  0.74492  0.26084  0.18821  1.0000
  C   C2150     1.0  0.74157  0.11046  0.05514  1.0000
  C   C2151     1.0  0.74970  0.28455  0.15494  1.0000
  H   H3674     1.0  0.77030  0.00024  0.06116  1.0000
  Fe  Fe310     1.0  0.75038  0.12851  0.34211  1.0000
  H   H3675     1.0  0.74962  0.10803  0.06788  1.0000
  C   C2152     1.0  0.75782  0.21093  0.27428  1.0000
  C   C2153     1.0  0.74098  0.26736  0.16722  1.0000
  H   H3676     1.0  0.73847  0.20980  0.21585  1.0000
  H   H3677     1.0  0.82732  0.24110  0.35933  1.0000
  H   H3678     1.0  0.87082  0.29027  0.98886  1.0000
  H   H3679     1.0  0.75428  0.32366  0.18119  1.0000
  H   H3680     1.0  0.80488  0.24289  0.42985  1.0000
  H   H3681     1.0  0.77337  0.24510  0.04234  1.0000
  C   C2154     1.0  0.83387  0.28850  0.35479  1.0000
  H   H3682     1.0  0.80850  0.27341  0.38893  1.0000
  H   H3683     1.0  0.87307  0.32922  0.98723  1.0000
  C   C2155     1.0  0.76006  0.23622  0.12028  1.0000
  C   C2156     1.0  0.80554  0.25092  0.35721  1.0000
  H   H3684     1.0  0.95670  0.06317  0.31087  1.0000
  H   H3685     1.0  0.91484  0.32579  0.42802  1.0000
  H   H3686     1.0  0.74868  0.23769  0.13191  1.0000
  C   C2157     1.0  0.95154  0.05094  0.98631  1.0000
  H   H3687     1.0  0.92461  0.04480  0.43155  1.0000
  C   C2158     1.0  0.81792  0.24508  0.37159  1.0000
  C   C2159     1.0  0.75232  0.04574  0.36881  1.0000
  H   H3688     1.0  0.86709  0.32234  0.05272  1.0000
  H   H3689     1.0  0.78240  0.05884  0.39474  1.0000
  C   C2160     1.0  0.83666  0.24893  0.39871  1.0000
  C   C2161     1.0  0.85135  0.24254  0.38613  1.0000
  H   H3690     1.0  0.84244  0.25762  0.40928  1.0000
  H   H3691     1.0  0.82783  0.23734  0.41145  1.0000
  H   H3692     1.0  0.84669  0.23265  0.37645  1.0000
  H   H3693     1.0  0.86179  0.25348  0.37449  1.0000
  H   H3694     1.0  0.85723  0.23609  0.39936  1.0000
  N   N152      1.0  0.76231  0.21636  0.24806  1.0000
  H   H3695     1.0  0.78401  0.03875  0.38622  1.0000
  C   C2162     1.0  0.75532  0.23180  0.24120  1.0000
  C   C2163     1.0  0.92139  0.00919  0.03871  1.0000
  C   C2164     1.0  0.75494  0.20097  0.23840  1.0000
  H   H3696     1.0  0.93631  0.01394  0.37932  1.0000
  H   H3697     1.0  0.98669  0.09806  0.97663  1.0000
  H   H3698     1.0  0.94058  0.06268  0.37010  1.0000
  H   H3699     1.0  0.83085  0.29643  0.36752  1.0000
  H   H3700     1.0  0.76384  0.19241  0.23708  1.0000
  C   C2165     1.0  0.78777  0.09737  0.36159  1.0000
  H   H3701     1.0  0.74832  0.09266  0.03270  1.0000
  H   H3702     1.0  0.76247  0.24341  0.24645  1.0000
  H   H3703     1.0  0.97651  0.00226  0.21964  1.0000
  H   H3704     1.0  0.93108  0.04045  0.38147  1.0000
  C   C2166     1.0  0.89246  0.32715  0.01709  1.0000
  C   C2167     1.0  0.95618  0.23624  0.46362  1.0000
  Fe  Fe311     1.0  0.74932  0.99738  0.28666  1.0000
  C   C2168     1.0  0.95803  0.04925  0.38198  1.0000
  H   H3705     1.0  0.96491  0.03949  0.37793  1.0000
  H   H3706     1.0  0.98114  0.02096  0.97824  1.0000
  H   H3707     1.0  0.95593  0.10007  0.99441  1.0000
  H   H3708     1.0  0.96254  0.02959  0.34731  1.0000
  H   H3709     1.0  0.81080  0.23254  0.38418  1.0000
  C   C2169     1.0  0.79450  0.06801  0.30519  1.0000
  N   N153      1.0  0.74888  0.24380  0.08285  1.0000
  H   H3710     1.0  0.75170  0.31384  0.25549  1.0000
  H   H3711     1.0  0.97533  0.07613  0.03639  1.0000
  C   C2170     1.0  0.84022  0.27309  0.36589  1.0000
  H   H3712     1.0  0.78732  0.21884  0.20452  1.0000
  C   C2171     1.0  0.97513  0.08677  0.98337  1.0000
  C   C2172     1.0  0.96511  0.05455  0.00090  1.0000
  C   C2173     1.0  0.78957  0.07879  0.32294  1.0000
  N   N154      1.0  0.98034  0.07013  0.99004  1.0000
  N   N155      1.0  0.94543  0.04677  0.34552  1.0000
  H   H3713     1.0  0.97333  0.02944  0.22937  1.0000
  H   H3714     1.0  0.91966  0.32835  0.00917  1.0000
  H   H3715     1.0  0.76260  0.08890  0.28663  1.0000
  H   H3716     1.0  0.76057  0.21412  0.20085  1.0000
  H   H3717     1.0  0.82268  0.28439  0.34725  1.0000
  H   H3718     1.0  0.89022  0.30787  0.97602  1.0000
  Fe  Fe312     1.0  0.83120  0.23143  0.46351  1.0000
  H   H3719     1.0  0.92417  0.01063  0.35724  1.0000
  C   C2174     1.0  0.75028  0.10670  0.03234  1.0000
  H   H3720     1.0  0.80711  0.07250  0.35426  1.0000
  H   H3721     1.0  0.95809  0.05553  0.01794  1.0000
  H   H3722     1.0  0.74982  0.06776  0.99301  1.0000
  H   H3723     1.0  0.80238  0.05406  0.38994  1.0000
  H   H3724     1.0  0.91793  0.03557  0.35007  1.0000
  H   H3725     1.0  0.91036  0.32949  0.98418  1.0000
  H   H3726     1.0  0.77335  0.28261  0.09012  1.0000
  H   H3727     1.0  0.78141  0.10449  0.37316  1.0000
  N   N156      1.0  0.78134  0.06859  0.34757  1.0000
  C   C2175     1.0  0.76021  0.27431  0.09174  1.0000
  C   C2176     1.0  0.77447  0.08076  0.36072  1.0000
  C   C2177     1.0  0.76673  0.05366  0.34667  1.0000
  C   C2178     1.0  0.79497  0.06200  0.35753  1.0000
  H   H3728     1.0  0.96618  0.99906  0.24919  1.0000
  H   H3729     1.0  0.90715  0.30907  0.00460  1.0000
  H   H3730     1.0  0.74750  0.21805  0.10238  1.0000
  C   C2179     1.0  0.79034  0.05285  0.38350  1.0000
  H   H3731     1.0  0.78913  0.01190  0.06946  1.0000
  C   C2180     1.0  0.74616  0.23663  0.06178  1.0000
  H   H3732     1.0  0.90162  0.06183  0.45877  1.0000
  H   H3733     1.0  0.96029  0.22921  0.45029  1.0000
  H   H3734     1.0  0.75999  0.26660  0.21340  1.0000
  H   H3735     1.0  0.87960  0.27962  0.06055  1.0000
  N   N157      1.0  0.82709  0.25812  0.38342  1.0000
  C   C2181     1.0  0.80013  0.25092  0.41683  1.0000
  H   H3736     1.0  0.77459  0.26104  0.07051  1.0000
  H   H3737     1.0  0.96726  0.06237  0.37778  1.0000
  H   H3738     1.0  0.73975  0.06956  0.06507  1.0000
  C   C2182     1.0  0.81484  0.26491  0.39894  1.0000
  H   H3739     1.0  0.79186  0.24228  0.40846  1.0000
  H   H3740     1.0  0.76409  0.22541  0.13012  1.0000
  N   N158      1.0  0.73805  0.32410  0.21349  1.0000
  H   H3741     1.0  0.78703  0.23219  0.24952  1.0000
  H   H3742     1.0  0.95059  0.02220  0.23617  1.0000
  H   H3743     1.0  0.76464  0.32728  0.21505  1.0000
  H   H3744     1.0  0.87098  0.29666  0.06849  1.0000
  H   H3745     1.0  0.98196  0.05866  0.34258  1.0000
  H   H3746     1.0  0.84991  0.30991  0.04316  1.0000
  C   C2183     1.0  0.94966  0.02967  0.34407  1.0000
  C   C2184     1.0  0.75624  0.23152  0.09764  1.0000
  H   H3747     1.0  0.91079  0.06090  0.32912  1.0000
  C   C2185     1.0  0.76209  0.23359  0.04683  1.0000
  H   H3748     1.0  0.96781  0.24593  0.46486  1.0000
  H   H3749     1.0  0.95853  0.07440  0.33360  1.0000
  S   S630      1.0  0.85326  0.99760  0.35234  1.0000
  S   S631      1.0  0.84952  0.01090  0.40146  1.0000
  H   H3750     1.0  0.74580  0.11298  0.01745  1.0000
  H   H3751     1.0  0.74577  0.29990  0.21778  1.0000
  H   H3752     1.0  0.94206  0.20167  0.45557  1.0000
  H   H3753     1.0  0.76178  0.18441  0.27802  1.0000
  C   C2186     1.0  0.93645  0.00314  0.19715  1.0000
  H   H3754     1.0  0.84439  0.29733  0.34047  1.0000
  C   C2187     1.0  0.87607  0.30448  0.98129  1.0000
  H   H3755     1.0  0.89623  0.03215  0.47021  1.0000
  H   H3756     1.0  0.95041  0.02762  0.32610  1.0000
  H   H3757     1.0  0.95288  0.04528  0.40108  1.0000
  H   H3758     1.0  0.76971  0.01849  0.07373  1.0000
  H   H3759     1.0  0.77921  0.20057  0.28341  1.0000
  C   C2188     1.0  0.80567  0.00409  0.30770  1.0000
  H   H3760     1.0  0.91467  0.10784  0.46096  1.0000
  Fe  Fe313     1.0  0.79713  0.32995  0.18597  1.0000
  H   H3761     1.0  0.74682  0.19249  0.20872  1.0000
  H   H3762     1.0  0.89545  0.32894  0.03403  1.0000
  H   H3763     1.0  0.75530  0.26793  0.11035  1.0000
  H   H3764     1.0  0.96336  0.00694  0.99857  1.0000
  H   H3765     1.0  0.93357  0.01109  0.20973  1.0000
  H   H3766     1.0  0.81152  0.99923  0.29350  1.0000
  H   H3767     1.0  0.74132  0.24552  0.04975  1.0000
  C   C2189     1.0  0.93003  0.00601  0.97419  1.0000
  H   H3768     1.0  0.91082  0.32461  0.40011  1.0000
  H   H3769     1.0  0.98180  0.99897  0.98970  1.0000
  H   H3770     1.0  0.74358  0.03389  0.36622  1.0000
  H   H3771     1.0  0.92283  0.08169  0.46841  1.0000
  H   H3772     1.0  0.73816  0.24774  0.19790  1.0000
  H   H3773     1.0  0.73913  0.32949  0.25831  1.0000
  Fe  Fe314     1.0  0.97240  0.14157  0.46991  1.0000
  H   H3774     1.0  0.90510  0.19183  0.46904  1.0000
  S   S632      1.0  0.97612  0.17054  0.47047  1.0000
  H   H3775     1.0  0.89455  0.04309  0.86877  1.0000
  S   S633      1.0  0.94711  0.08051  0.52369  1.0000
  H   H3776     1.0  0.93813  0.04391  0.54639  1.0000
  C   C2190     1.0  0.96693  0.00170  0.96282  1.0000
  H   H3777     1.0  0.87934  0.04057  0.53636  1.0000
  H   H3778     1.0  0.95837  0.01353  0.63424  1.0000
  C   C2191     1.0  0.97802  0.17149  0.51617  1.0000
  H   H3779     1.0  0.88124  0.06265  0.47328  1.0000
  H   H3780     1.0  0.93257  0.18451  0.54424  1.0000
  N   N159      1.0  0.75806  0.23850  0.59539  1.0000
  H   H3781     1.0  0.83534  0.26705  0.72774  1.0000
  S   S634      1.0  0.95822  0.07777  0.92689  1.0000
  H   H3782     1.0  0.96529  0.05375  0.89773  1.0000
  S   S635      1.0  0.74415  0.18697  0.94751  1.0000
  H   H3783     1.0  0.84739  0.31228  0.76244  1.0000
  H   H3784     1.0  0.87776  0.25321  0.78358  1.0000
  H   H3785     1.0  0.77533  0.24984  0.61549  1.0000
  Fe  Fe315     1.0  0.83459  0.26019  0.49176  1.0000
  S   S636      1.0  0.83438  0.23197  0.50022  1.0000
  S   S637      1.0  0.81959  0.27382  0.51463  1.0000
  H   H3786     1.0  0.76150  0.22680  0.88875  1.0000
  H   H3787     1.0  0.74587  0.26364  0.61940  1.0000
  S   S638      1.0  0.88130  0.23194  0.50578  1.0000
  H   H3788     1.0  0.95169  0.00603  0.59871  1.0000
  H   H3789     1.0  0.98205  0.06320  0.85234  1.0000
  Fe  Fe316     1.0  0.86512  0.27772  0.83636  1.0000
  S   S639      1.0  0.85499  0.30134  0.83672  1.0000
  S   S640      1.0  0.88958  0.28394  0.80819  1.0000
  Fe  Fe317     1.0  0.83254  0.25386  0.87102  1.0000
  S   S641      1.0  0.82028  0.27597  0.87313  1.0000
  S   S642      1.0  0.82017  0.22483  0.88730  1.0000
  Fe  Fe318     1.0  0.83003  0.28424  0.83425  1.0000
  S   S643      1.0  0.81629  0.29565  0.80783  1.0000
  Fe  Fe319     1.0  0.84654  0.29129  0.87535  1.0000
  S   S644      1.0  0.84781  0.31004  0.89988  1.0000
  S   S645      1.0  0.84047  0.26114  0.83188  1.0000
  S   S646      1.0  0.85840  0.26862  0.87544  1.0000
  H   H3790     1.0  0.88387  0.04779  0.84565  1.0000
  C   C2192     1.0  0.89324  0.05369  0.85521  1.0000
  Fe  Fe320     1.0  0.97035  0.26681  0.54311  1.0000
  S   S647      1.0  0.95161  0.27599  0.52256  1.0000
  S   S648      1.0  0.96311  0.24310  0.57243  1.0000
  H   H3791     1.0  0.87959  0.07557  0.50571  1.0000
  S   S649      1.0  0.95503  0.25575  0.81667  1.0000
  H   H3792     1.0  0.97504  0.22678  0.69792  1.0000
  H   H3793     1.0  0.76977  0.22968  0.79550  1.0000
  H   H3794     1.0  0.91327  0.02934  0.85136  1.0000
  Fe  Fe321     1.0  0.79385  0.26858  0.64898  1.0000
  S   S650      1.0  0.77353  0.28202  0.64195  1.0000
  S   S651      1.0  0.81110  0.25837  0.62399  1.0000
  Fe  Fe322     1.0  0.78430  0.26542  0.70106  1.0000
  S   S652      1.0  0.76271  0.27799  0.69846  1.0000
  S   S653      1.0  0.79206  0.25391  0.73379  1.0000
  Fe  Fe323     1.0  0.75593  0.26187  0.67263  1.0000
  Fe  Fe324     1.0  0.78138  0.29743  0.66806  1.0000
  C   C2193     1.0  0.95772  0.02461  0.62077  1.0000
  S   S654      1.0  0.77580  0.24741  0.67810  1.0000
  S   S655      1.0  0.80353  0.28582  0.67225  1.0000
  H   H3795     1.0  0.95896  0.21986  0.49396  1.0000
  S   S656      1.0  0.95902  0.01847  0.81218  1.0000
  H   H3796     1.0  0.94421  0.05477  0.86072  1.0000
  C   C2194     1.0  0.78262  0.25517  0.84392  1.0000
  C   C2195     1.0  0.79014  0.20218  0.84989  1.0000
  H   H3797     1.0  0.88372  0.30849  0.89177  1.0000
  C   C2196     1.0  0.77172  0.23460  0.57816  1.0000
  C   C2197     1.0  0.79959  0.21446  0.90594  1.0000
  C   C2198     1.0  0.79392  0.19609  0.91178  1.0000
  C   C2199     1.0  0.77718  0.18735  0.92507  1.0000
  C   C2200     1.0  0.76595  0.19693  0.93278  1.0000
  C   C2201     1.0  0.77184  0.21526  0.92760  1.0000
  C   C2202     1.0  0.78852  0.22399  0.91423  1.0000
  H   H3798     1.0  0.80241  0.18858  0.90560  1.0000
  H   H3799     1.0  0.77288  0.17325  0.92899  1.0000
  H   H3800     1.0  0.76332  0.22278  0.93367  1.0000
  H   H3801     1.0  0.79274  0.23810  0.91015  1.0000
  C   C2203     1.0  0.80960  0.28400  0.78726  1.0000
  C   C2204     1.0  0.80285  0.29200  0.76957  1.0000
  C   C2205     1.0  0.79766  0.28310  0.75276  1.0000
  C   C2206     1.0  0.79898  0.26602  0.75376  1.0000
  C   C2207     1.0  0.80575  0.25806  0.77143  1.0000
  C   C2208     1.0  0.81100  0.26697  0.78814  1.0000
  H   H3802     1.0  0.80145  0.30505  0.76900  1.0000
  H   H3803     1.0  0.79236  0.28932  0.73928  1.0000
  H   H3804     1.0  0.80691  0.24490  0.77217  1.0000
  H   H3805     1.0  0.81600  0.26060  0.80176  1.0000
  C   C2209     1.0  0.90712  0.27487  0.80990  1.0000
  C   C2210     1.0  0.90662  0.26159  0.82865  1.0000
  C   C2211     1.0  0.92126  0.25544  0.82999  1.0000
  C   C2212     1.0  0.93649  0.26254  0.81267  1.0000
  C   C2213     1.0  0.93685  0.27554  0.79364  1.0000
  C   C2214     1.0  0.92219  0.28164  0.79226  1.0000
  H   H3806     1.0  0.89506  0.25624  0.84227  1.0000
  H   H3807     1.0  0.92088  0.24534  0.84473  1.0000
  H   H3808     1.0  0.94850  0.28108  0.78023  1.0000
  H   H3809     1.0  0.92264  0.29191  0.77769  1.0000
  C   C2215     1.0  0.81671  0.26892  0.54511  1.0000
  C   C2216     1.0  0.82192  0.25511  0.55670  1.0000
  C   C2217     1.0  0.81971  0.25178  0.58099  1.0000
  C   C2218     1.0  0.81235  0.26226  0.59383  1.0000
  C   C2219     1.0  0.80677  0.27582  0.58233  1.0000
  C   C2220     1.0  0.80894  0.27912  0.55803  1.0000
  H   H3810     1.0  0.82769  0.24702  0.54694  1.0000
  H   H3811     1.0  0.82375  0.24106  0.58989  1.0000
  H   H3812     1.0  0.80116  0.28401  0.59207  1.0000
  H   H3813     1.0  0.80485  0.28980  0.54912  1.0000
  C   C2221     1.0  0.93219  0.26339  0.51799  1.0000
  C   C2222     1.0  0.92404  0.24646  0.53118  1.0000
  C   C2223     1.0  0.90832  0.23721  0.52748  1.0000
  C   C2224     1.0  0.90060  0.24464  0.51048  1.0000
  C   C2225     1.0  0.90872  0.26157  0.49731  1.0000
  C   C2226     1.0  0.92437  0.27089  0.50113  1.0000
  H   H3814     1.0  0.92976  0.24059  0.54440  1.0000
  H   H3815     1.0  0.90202  0.22422  0.53797  1.0000
  H   H3816     1.0  0.96649  0.31664  0.81755  1.0000
  H   H3817     1.0  0.97789  0.99840  0.95244  1.0000
  C   C2227     1.0  0.94225  0.03237  0.90691  1.0000
  C   C2228     1.0  0.92550  0.02550  0.92070  1.0000
  C   C2229     1.0  0.91912  0.03465  0.93637  1.0000
  H   H3818     1.0  0.94726  0.02532  0.89478  1.0000
  C   C2230     1.0  0.93447  0.31784  0.82480  1.0000
  H   H3819     1.0  0.92323  0.30098  0.85860  1.0000
  H   H3820     1.0  0.97644  0.27070  0.70616  1.0000
  C   C2231     1.0  0.95246  0.04843  0.90857  1.0000
  C   C2232     1.0  0.94601  0.05758  0.92423  1.0000
  H   H3821     1.0  0.97190  0.23241  0.72535  1.0000
  C   C2233     1.0  0.92940  0.05056  0.93824  1.0000
  H   H3822     1.0  0.77382  0.22391  0.64411  1.0000
  S   S657      1.0  0.77849  0.32514  0.66522  1.0000
  H   H3823     1.0  0.92123  0.31888  0.82441  1.0000
  C   C2234     1.0  0.98351  0.04962  0.79324  1.0000
  H   H3824     1.0  0.91018  0.28799  0.73695  1.0000
  C   C2235     1.0  0.88711  0.06694  0.51297  1.0000
  H   H3825     1.0  0.85640  0.23924  0.78899  1.0000
  H   H3826     1.0  0.89599  0.26686  0.74831  1.0000
  H   H3827     1.0  0.89662  0.10112  0.48488  1.0000
  H   H3828     1.0  0.90313  0.04013  0.51349  1.0000
  H   H3829     1.0  0.89804  0.27818  0.71860  1.0000
  H   H3830     1.0  0.90863  0.07559  0.82790  1.0000
  H   H3831     1.0  0.92855  0.29008  0.83673  1.0000
  C   C2236     1.0  0.97898  0.04076  0.52882  1.0000
  H   H3832     1.0  0.86929  0.24485  0.76071  1.0000
  C   C2237     1.0  0.93959  0.19339  0.52724  1.0000
  Fe  Fe325     1.0  0.98161  0.09335  0.89889  1.0000
  H   H3833     1.0  0.83882  0.24868  0.74686  1.0000
  C   C2238     1.0  0.95933  0.06519  0.52583  1.0000
  H   H3834     1.0  0.95885  0.29424  0.81762  1.0000
  H   H3835     1.0  0.86509  0.05385  0.54132  1.0000
  H   H3836     1.0  0.93647  0.07022  0.79931  1.0000
  C   C2239     1.0  0.96143  0.03561  0.53935  1.0000
  C   C2240     1.0  0.95165  0.04788  0.53811  1.0000
  C   C2241     1.0  0.88628  0.03724  0.47977  1.0000
  H   H3837     1.0  0.84432  0.25152  0.71609  1.0000
  H   H3838     1.0  0.95545  0.02226  0.54862  1.0000
  N   N160      1.0  0.87787  0.27521  0.55891  1.0000
  C   C2242     1.0  0.86807  0.25823  0.57579  1.0000
  C   C2243     1.0  0.87553  0.28995  0.57042  1.0000
  C   C2244     1.0  0.89674  0.27633  0.55246  1.0000
  C   C2245     1.0  0.87109  0.27621  0.53707  1.0000
  C   C2246     1.0  0.87034  0.24139  0.56835  1.0000
  C   C2247     1.0  0.85759  0.29338  0.57308  1.0000
  C   C2248     1.0  0.90575  0.27402  0.57285  1.0000
  C   C2249     1.0  0.87903  0.29329  0.51816  1.0000
  H   H3839     1.0  0.87133  0.25775  0.59309  1.0000
  H   H3840     1.0  0.85409  0.25712  0.57916  1.0000
  H   H3841     1.0  0.88520  0.30243  0.56124  1.0000
  H   H3842     1.0  0.87795  0.28746  0.58824  1.0000
  H   H3843     1.0  0.89896  0.26651  0.54237  1.0000
  H   H3844     1.0  0.90396  0.28912  0.54057  1.0000
  H   H3845     1.0  0.87344  0.26559  0.52844  1.0000
  H   H3846     1.0  0.85685  0.27364  0.54090  1.0000
  H   H3847     1.0  0.88380  0.24053  0.56608  1.0000
  H   H3848     1.0  0.86248  0.22996  0.58227  1.0000
  H   H3849     1.0  0.86568  0.23987  0.55239  1.0000
  H   H3850     1.0  0.84737  0.28180  0.58358  1.0000
  H   H3851     1.0  0.85726  0.30405  0.58241  1.0000
  H   H3852     1.0  0.85452  0.29768  0.55606  1.0000
  H   H3853     1.0  0.90042  0.26092  0.58467  1.0000
  H   H3854     1.0  0.90529  0.28429  0.58279  1.0000
  H   H3855     1.0  0.91954  0.27519  0.56573  1.0000
  H   H3856     1.0  0.88967  0.29172  0.50510  1.0000
  H   H3857     1.0  0.88406  0.30479  0.52494  1.0000
  H   H3858     1.0  0.86899  0.29655  0.50924  1.0000
  H   H3859     1.0  0.85247  0.29661  0.78289  1.0000
  H   H3860     1.0  0.75398  0.24001  0.63171  1.0000
  C   C2250     1.0  0.93043  0.05155  0.85987  1.0000
  H   H3861     1.0  0.91532  0.08790  0.86066  1.0000
  H   H3862     1.0  0.76856  0.26645  0.58401  1.0000
  S   S658      1.0  0.94728  0.12116  0.47579  1.0000
  C   C2251     1.0  0.74237  0.26213  0.60274  1.0000
  C   C2252     1.0  0.97250  0.04312  0.83482  1.0000
  S   S659      1.0  0.98062  0.10917  0.86466  1.0000
  H   H3863     1.0  0.78985  0.23596  0.86717  1.0000
  C   C2253     1.0  0.94676  0.07367  0.80872  1.0000
  H   H3864     1.0  0.75829  0.21020  0.63340  1.0000
  C   C2254     1.0  0.97424  0.26508  0.67264  1.0000
  H   H3865     1.0  0.94027  0.31648  0.80728  1.0000
  N   N161      1.0  0.76901  0.22187  0.85453  1.0000
  H   H3866     1.0  0.91570  0.05891  0.51902  1.0000
  H   H3867     1.0  0.98636  0.20677  0.47152  1.0000
  C   C2255     1.0  0.90432  0.09633  0.47157  1.0000
  C   C2256     1.0  0.76928  0.22202  0.62813  1.0000
  H   H3868     1.0  0.80121  0.21077  0.85415  1.0000
  C   C2257     1.0  0.77288  0.20455  0.86203  1.0000
  N   N162      1.0  0.97560  0.03590  0.60916  1.0000
  C   C2258     1.0  0.96141  0.06120  0.59810  1.0000
  H   H3869     1.0  0.98490  0.05167  0.65775  1.0000
  C   C2259     1.0  0.94813  0.22385  0.48772  1.0000
  H   H3870     1.0  0.96457  0.32689  0.85088  1.0000
  H   H3871     1.0  0.98167  0.06640  0.95482  1.0000
  H   H3872     1.0  0.75610  0.23382  0.82985  1.0000
  H   H3873     1.0  0.77046  0.22030  0.58123  1.0000
  H   H3874     1.0  0.88634  0.30102  0.73140  1.0000
  H   H3875     1.0  0.95239  0.08306  0.83812  1.0000
  C   C2260     1.0  0.75568  0.22391  0.87401  1.0000
  H   H3876     1.0  0.77301  0.20208  0.88082  1.0000
  S   S660      1.0  0.98454  0.12329  0.48978  1.0000
  N   N163      1.0  0.93378  0.20807  0.48862  1.0000
  C   C2261     1.0  0.75605  0.25651  0.58682  1.0000
  C   C2262     1.0  0.88204  0.31724  0.90318  1.0000
  H   H3877     1.0  0.93750  0.28362  0.90083  1.0000
  N   N164      1.0  0.92572  0.06767  0.84882  1.0000
  C   C2263     1.0  0.92103  0.07726  0.86742  1.0000
  C   C2264     1.0  0.91050  0.06341  0.83795  1.0000
  C   C2265     1.0  0.93588  0.08562  0.87783  1.0000
  H   H3878     1.0  0.86518  0.04436  0.51677  1.0000
  H   H3879     1.0  0.90841  0.32312  0.90651  1.0000
  C   C2266     1.0  0.93355  0.30165  0.84353  1.0000
  C   C2267     1.0  0.92659  0.19912  0.51390  1.0000
  H   H3880     1.0  0.86939  0.31251  0.76070  1.0000
  H   H3881     1.0  0.90622  0.02951  0.94700  1.0000
  H   H3882     1.0  0.94441  0.07702  0.88100  1.0000
  N   N165      1.0  0.95020  0.30077  0.85047  1.0000
  H   H3883     1.0  0.93273  0.02559  0.85726  1.0000
  H   H3884     1.0  0.95262  0.06277  0.81264  1.0000
  H   H3885     1.0  0.78473  0.24053  0.58058  1.0000
  H   H3886     1.0  0.98286  0.08356  0.50563  1.0000
  H   H3887     1.0  0.95713  0.08443  0.79653  1.0000
  H   H3888     1.0  0.93567  0.32803  0.86823  1.0000
  H   H3889     1.0  0.97451  0.15737  0.51995  1.0000
  H   H3890     1.0  0.97864  0.17290  0.55164  1.0000
  Fe  Fe326     1.0  0.97964  0.99779  0.54823  1.0000
  S   S661      1.0  0.86323  0.27023  0.47848  1.0000
  H   H3891     1.0  0.91936  0.08787  0.49542  1.0000
  C   C2268     1.0  0.94080  0.07996  0.83074  1.0000
  H   H3892     1.0  0.79571  0.23582  0.83775  1.0000
  N   N166      1.0  0.86494  0.27847  0.74844  1.0000
  C   C2269     1.0  0.85419  0.29144  0.74760  1.0000
  C   C2270     1.0  0.86262  0.26936  0.72889  1.0000
  C   C2271     1.0  0.88347  0.28861  0.74477  1.0000
  C   C2272     1.0  0.85882  0.26609  0.77199  1.0000
  Fe  Fe327     1.0  0.96914  0.00506  0.78486  1.0000
  C   C2273     1.0  0.84416  0.25864  0.73032  1.0000
  C   C2274     1.0  0.89745  0.27961  0.73675  1.0000
  C   C2275     1.0  0.86621  0.25014  0.77618  1.0000
  H   H3893     1.0  0.76038  0.23684  0.54707  1.0000
  C   C2276     1.0  0.98247  0.05948  0.83586  1.0000
  H   H3894     1.0  0.87087  0.26030  0.72732  1.0000
  H   H3895     1.0  0.86689  0.27907  0.71190  1.0000
  H   H3896     1.0  0.77356  0.25828  0.85756  1.0000
  H   H3897     1.0  0.88597  0.29261  0.76094  1.0000
  H   H3898     1.0  0.86191  0.27314  0.78561  1.0000
  H   H3899     1.0  0.84456  0.26131  0.77689  1.0000
  H   H3900     1.0  0.92322  0.04649  0.87828  1.0000
  H   H3901     1.0  0.93791  0.09269  0.82493  1.0000
  H   H3902     1.0  0.88766  0.06288  0.86384  1.0000
  C   C2277     1.0  0.85621  0.30379  0.76444  1.0000
  H   H3903     1.0  0.97879  0.02153  0.58206  1.0000
  C   C2278     1.0  0.97822  0.22438  0.71527  1.0000
  H   H3904     1.0  0.94986  0.03159  0.63047  1.0000
  H   H3905     1.0  0.79063  0.18859  0.85663  1.0000
  H   H3906     1.0  0.78700  0.22842  0.80882  1.0000
  C   C2279     1.0  0.94801  0.28273  0.86489  1.0000
  C   C2280     1.0  0.97680  0.07022  0.51506  1.0000
  H   H3907     1.0  0.96578  0.01355  0.95115  1.0000
  H   H3908     1.0  0.93354  0.01093  0.61429  1.0000
  H   H3909     1.0  0.93159  0.04111  0.49691  1.0000
  S   S662      1.0  0.97095  0.25933  0.62945  1.0000
  H   H3910     1.0  0.92434  0.05758  0.95038  1.0000
  C   C2281     1.0  0.98032  0.18033  0.53413  1.0000
  H   H3911     1.0  0.98040  0.28642  0.83749  1.0000
  C   C2282     1.0  0.98328  0.26935  0.68973  1.0000
  C   C2283     1.0  0.86589  0.32016  0.90977  1.0000
  H   H3912     1.0  0.96390  0.04268  0.65451  1.0000
  H   H3913     1.0  0.92186  0.00273  0.96197  1.0000
  C   C2284     1.0  0.98289  0.26371  0.65087  1.0000
  C   C2285     1.0  0.87359  0.05027  0.52745  1.0000
  H   H3914     1.0  0.95087  0.05725  0.58916  1.0000
  Fe  Fe328     1.0  0.96053  0.10246  0.49257  1.0000
  C   C2286     1.0  0.92716  0.03565  0.84865  1.0000
  C   C2287     1.0  0.98508  0.04048  0.62756  1.0000
  Fe  Fe329     1.0  0.98005  0.25954  0.59081  1.0000
  H   H3915     1.0  0.93312  0.03875  0.82992  1.0000
  H   H3916     1.0  0.75015  0.21104  0.83632  1.0000
  C   C2288     1.0  0.97574  0.05208  0.59192  1.0000
  H   H3917     1.0  0.91586  0.18738  0.51638  1.0000
  C   C2289     1.0  0.97292  0.03819  0.81349  1.0000
  C   C2290     1.0  0.97995  0.18093  0.49354  1.0000
  H   H3918     1.0  0.74147  0.27511  0.59397  1.0000
  H   H3919     1.0  0.96444  0.03427  0.85057  1.0000
  H   H3920     1.0  0.77869  0.25734  0.82711  1.0000
  H   H3921     1.0  0.79186  0.20410  0.83088  1.0000
  H   H3922     1.0  0.94742  0.18625  0.51774  1.0000
  C   C2291     1.0  0.74942  0.31123  0.62421  1.0000
  C   C2292     1.0  0.77332  0.22211  0.81042  1.0000
  H   H3923     1.0  0.75274  0.25808  0.56960  1.0000
  C   C2293     1.0  0.73712  0.29978  0.64705  1.0000
  H   H3924     1.0  0.98403  0.01238  0.60821  1.0000
  C   C2294     1.0  0.98115  0.30050  0.83192  1.0000
  H   H3925     1.0  0.76254  0.19360  0.86022  1.0000
  C   C2295     1.0  0.78488  0.23667  0.85101  1.0000
  H   H3926     1.0  0.90302  0.26745  0.48407  1.0000
  H   H3927     1.0  0.79518  0.26474  0.84162  1.0000
  C   C2296     1.0  0.92670  0.05169  0.48815  1.0000
  C   C2297     1.0  0.90323  0.20116  0.48011  1.0000
  H   H3928     1.0  0.96045  0.26312  0.67616  1.0000
  H   H3929     1.0  0.94072  0.01774  0.96577  1.0000
  Fe  Fe330     1.0  0.86303  0.24194  0.48520  1.0000
  H   H3930     1.0  0.88205  0.03001  0.49811  1.0000
  C   C2298     1.0  0.94707  0.01680  0.60455  1.0000
  H   H3931     1.0  0.84027  0.28467  0.75160  1.0000
  C   C2299     1.0  0.96363  0.30323  0.82853  1.0000
  H   H3932     1.0  0.94370  0.23190  0.49961  1.0000
  H   H3933     1.0  0.94359  0.09829  0.86624  1.0000
  H   H3934     1.0  0.74540  0.29678  0.65921  1.0000
  H   H3935     1.0  0.94877  0.32911  0.88891  1.0000
  C   C2300     1.0  0.91256  0.08245  0.48269  1.0000
  H   H3936     1.0  0.89338  0.07354  0.52530  1.0000
  H   H3937     1.0  0.77750  0.25564  0.54667  1.0000
  H   H3938     1.0  0.77195  0.20853  0.80820  1.0000
  H   H3939     1.0  0.85704  0.29983  0.72976  1.0000
  H   H3940     1.0  0.78014  0.21977  0.61626  1.0000
  H   H3941     1.0  0.97201  0.21061  0.72403  1.0000
  C   C2301     1.0  0.91094  0.05353  0.50481  1.0000
  S   S663      1.0  0.91283  0.00548  0.91811  1.0000
  H   H3942     1.0  0.91261  0.05542  0.82500  1.0000
  H   H3943     1.0  0.93053  0.28399  0.49088  1.0000
  H   H3944     1.0  0.92084  0.20785  0.52333  1.0000
  C   C2302     1.0  0.77271  0.24119  0.55207  1.0000
  H   H3945     1.0  0.91100  0.06838  0.88237  1.0000
  H   H3946     1.0  0.98370  0.04604  0.77668  1.0000
  H   H3947     1.0  0.96669  0.07549  0.59094  1.0000
  C   C2303     1.0  0.97701  0.05012  0.64460  1.0000
  H   H3948     1.0  0.78225  0.23601  0.54180  1.0000
  H   H3949     1.0  0.97453  0.04884  0.57490  1.0000
  C   C2304     1.0  0.76406  0.23848  0.61781  1.0000
  H   H3950     1.0  0.95608  0.05942  0.61682  1.0000
  H   H3951     1.0  0.94821  0.20471  0.53118  1.0000
  C   C2305     1.0  0.76151  0.22238  0.83329  1.0000
  H   H3952     1.0  0.95419  0.19684  0.47630  1.0000
  C   C2306     1.0  0.94090  0.19655  0.47443  1.0000
  H   H3953     1.0  0.93064  0.08837  0.89475  1.0000
  H   H3954     1.0  0.96006  0.28154  0.87034  1.0000
  N   N167      1.0  0.90053  0.06461  0.49399  1.0000
  C   C2307     1.0  0.93389  0.27661  0.88742  1.0000
  C   C2308     1.0  0.98488  0.02500  0.59636  1.0000
  H   H3955     1.0  0.74459  0.32141  0.61477  1.0000
  C   C2309     1.0  0.98441  0.19869  0.52977  1.0000
  H   H3956     1.0  0.89431  0.20818  0.47319  1.0000
  C   C2310     1.0  0.89237  0.05734  0.47584  1.0000
  H   H3957     1.0  0.94531  0.27281  0.85434  1.0000
  C   C2311     1.0  0.89602  0.32557  0.91153  1.0000
  C   C2312     1.0  0.74135  0.22454  0.60051  1.0000
  H   H3958     1.0  0.93262  0.26260  0.89468  1.0000
  Fe  Fe331     1.0  0.97624  0.99773  0.73647  1.0000
  H   H3959     1.0  0.97781  0.21103  0.75968  1.0000
  H   H3960     1.0  0.94710  0.02679  0.58930  1.0000
  S   S664      1.0  0.98541  0.28399  0.56271  1.0000
  H   H3961     1.0  0.92106  0.27740  0.88462  1.0000
  H   H3962     1.0  0.91684  0.22502  0.48694  1.0000
  Fe  Fe332     1.0  0.98148  0.26458  0.79236  1.0000
  H   H3963     1.0  0.92359  0.04841  0.47201  1.0000
  C   C2313     1.0  0.92020  0.21466  0.47854  1.0000
  H   H3964     1.0  0.98382  0.18878  0.85904  1.0000
  H   H3965     1.0  0.93288  0.30938  0.89136  1.0000
  H   H3966     1.0  0.76197  0.31758  0.62755  1.0000
  H   H3967     1.0  0.75196  0.30284  0.61193  1.0000
  H   H3968     1.0  0.93747  0.16917  0.49169  1.0000
  C   C2314     1.0  0.94248  0.32038  0.87873  1.0000
  H   H3969     1.0  0.75060  0.23525  0.86831  1.0000
  H   H3970     1.0  0.87511  0.03393  0.47170  1.0000
  C   C2315     1.0  0.98661  0.05809  0.51675  1.0000
  H   H3971     1.0  0.94398  0.99769  0.93633  1.0000
  C   C2316     1.0  0.73980  0.20813  0.88439  1.0000
  H   H3972     1.0  0.82606  0.32663  0.74162  1.0000
  C   C2317     1.0  0.98460  0.19930  0.48902  1.0000
  H   H3973     1.0  0.91730  0.17383  0.48845  1.0000
  H   H3974     1.0  0.94183  0.33009  0.82817  1.0000
  H   H3975     1.0  0.89656  0.19432  0.49821  1.0000
  S   S665      1.0  0.98657  0.20910  0.55323  1.0000
  H   H3976     1.0  0.97725  0.06347  0.63572  1.0000
  H   H3977     1.0  0.96487  0.31047  0.87442  1.0000
  C   C2318     1.0  0.95636  0.31466  0.86325  1.0000
  H   H3978     1.0  0.96886  0.08676  0.96834  1.0000
  C   C2319     1.0  0.93113  0.17695  0.48049  1.0000
  H   H3979     1.0  0.74338  0.21140  0.60609  1.0000
  H   H3980     1.0  0.87140  0.30702  0.96504  1.0000
  H   H3981     1.0  0.73983  0.31712  0.68011  1.0000
  H   H3982     1.0  0.74321  0.19666  0.89367  1.0000
  H   H3983     1.0  0.98172  0.18994  0.75721  1.0000
  H   H3984     1.0  0.93741  0.06377  0.48374  1.0000
  S   S666      1.0  0.97767  0.00751  0.69795  1.0000
  H   H3985     1.0  0.98632  0.30775  0.84430  1.0000
  H   H3986     1.0  0.98672  0.02843  0.63832  1.0000
  H   H3987     1.0  0.95663  0.04704  0.97026  1.0000
  C   C2320     1.0  0.98670  0.20814  0.50702  1.0000
  Fe  Fe333     1.0  0.86559  0.60813  0.30678  1.0000
  S   S667      1.0  0.86605  0.58374  0.29366  1.0000
  H   H3988     1.0  0.85839  0.46266  0.43682  1.0000
  Fe  Fe334     1.0  0.83493  0.58807  0.34736  1.0000
  S   S668      1.0  0.83381  0.56237  0.33722  1.0000
  S   S669      1.0  0.81785  0.58771  0.38173  1.0000
  Fe  Fe335     1.0  0.86261  0.57074  0.33122  1.0000
  S   S670      1.0  0.87936  0.55303  0.34121  1.0000
  Fe  Fe336     1.0  0.83720  0.57763  0.30069  1.0000
  S   S671      1.0  0.82032  0.57179  0.27482  1.0000
  S   S672      1.0  0.86366  0.59533  0.34389  1.0000
  S   S673      1.0  0.83680  0.60309  0.31127  1.0000
  Fe  Fe337     1.0  0.84152  0.57944  0.99904  1.0000
  S   S674      1.0  0.83193  0.60359  0.99504  1.0000
  S   S675      1.0  0.83165  0.55467  0.02758  1.0000
  C   C2321     1.0  0.79219  0.57697  0.02822  1.0000
  H   H3989     1.0  0.75895  0.56506  0.36653  1.0000
  C   C2322     1.0  0.91144  0.59858  0.30759  1.0000
  H   H3990     1.0  0.95518  0.64002  0.29832  1.0000
  H   H3991     1.0  0.85764  0.43205  0.44970  1.0000
  S   S676      1.0  0.91471  0.40541  0.99152  1.0000
  H   H3992     1.0  0.79987  0.56274  0.33089  1.0000
  Fe  Fe338     1.0  0.90454  0.37635  0.00563  1.0000
  S   S677      1.0  0.89542  0.36219  0.04378  1.0000
  H   H3993     1.0  0.79298  0.53445  0.36032  1.0000
  Fe  Fe339     1.0  0.91157  0.52902  0.45289  1.0000
  S   S678      1.0  0.93890  0.52945  0.43797  1.0000
  S   S679      1.0  0.89914  0.54994  0.43945  1.0000
  S   S680      1.0  0.82579  0.33838  0.17143  1.0000
  H   H3994     1.0  0.95655  0.37791  0.35222  1.0000
  Fe  Fe340     1.0  0.92734  0.50128  0.43928  1.0000
  H   H3995     1.0  0.93337  0.58574  0.39012  1.0000
  Fe  Fe341     1.0  0.89306  0.42556  0.34894  1.0000
  S   S681      1.0  0.90916  0.42764  0.31369  1.0000
  S   S682      1.0  0.88560  0.44781  0.36264  1.0000
  Fe  Fe342     1.0  0.88722  0.38606  0.36294  1.0000
  S   S683      1.0  0.90265  0.38485  0.32861  1.0000
  S   S684      1.0  0.87536  0.36546  0.39639  1.0000
  Fe  Fe343     1.0  0.92143  0.40887  0.33256  1.0000
  S   S685      1.0  0.94995  0.41022  0.32809  1.0000
  Fe  Fe344     1.0  0.88901  0.40366  0.31242  1.0000
  S   S686      1.0  0.87705  0.40568  0.28054  1.0000
  S   S687      1.0  0.90677  0.40871  0.36779  1.0000
  S   S688      1.0  0.87219  0.40302  0.34674  1.0000
  Fe  Fe345     1.0  0.79601  0.36724  0.18952  1.0000
  S   S689      1.0  0.82435  0.37851  0.17527  1.0000
  S   S690      1.0  0.77740  0.38204  0.20321  1.0000
  H   H3996     1.0  0.90174  0.40185  0.19910  1.0000
  C   C2323     1.0  0.87055  0.44152  0.44339  1.0000
  Fe  Fe346     1.0  0.82741  0.35471  0.19837  1.0000
  S   S691      1.0  0.84807  0.35344  0.21932  1.0000
  Fe  Fe347     1.0  0.82084  0.36154  0.14947  1.0000
  S   S692      1.0  0.83166  0.37357  0.11098  1.0000
  S   S693      1.0  0.79924  0.34453  0.21456  1.0000
  S   S694      1.0  0.79201  0.35202  0.16210  1.0000
  H   H3997     1.0  0.74608  0.54046  0.33606  1.0000
  S   S695      1.0  0.76451  0.49869  0.14876  1.0000
  Fe  Fe348     1.0  0.77694  0.50215  0.20774  1.0000
  S   S696      1.0  0.79635  0.50379  0.17527  1.0000
  S   S697      1.0  0.78653  0.50380  0.24119  1.0000
  Fe  Fe349     1.0  0.78242  0.52091  0.15700  1.0000
  S   S698      1.0  0.79578  0.54743  0.13288  1.0000
  Fe  Fe350     1.0  0.77684  0.48126  0.16988  1.0000
  S   S699      1.0  0.78493  0.46052  0.15289  1.0000
  S   S700      1.0  0.76406  0.52063  0.18975  1.0000
  S   S701      1.0  0.75816  0.47800  0.20365  1.0000
  C   C2324     1.0  0.78078  0.40430  0.18985  1.0000
  C   C2325     1.0  0.79046  0.41130  0.16712  1.0000
  C   C2326     1.0  0.79194  0.42869  0.15627  1.0000
  C   C2327     1.0  0.78410  0.43937  0.16816  1.0000
  C   C2328     1.0  0.77478  0.43253  0.19113  1.0000
  C   C2329     1.0  0.77294  0.41497  0.20181  1.0000
  H   H3998     1.0  0.79650  0.40320  0.15771  1.0000
  H   H3999     1.0  0.79912  0.43387  0.13849  1.0000
  H   H4000     1.0  0.76869  0.44062  0.20047  1.0000
  H   H4001     1.0  0.76548  0.40966  0.21942  1.0000
  C   C2330     1.0  0.86814  0.39028  0.26508  1.0000
  C   C2331     1.0  0.85783  0.39501  0.24989  1.0000
  C   C2332     1.0  0.85105  0.38364  0.23645  1.0000
  C   C2333     1.0  0.85483  0.36749  0.23765  1.0000
  C   C2334     1.0  0.86521  0.36277  0.25274  1.0000
  C   C2335     1.0  0.87168  0.37400  0.26657  1.0000
  H   H4002     1.0  0.85503  0.40758  0.24853  1.0000
  H   H4003     1.0  0.84316  0.38752  0.22488  1.0000
  H   H4004     1.0  0.86832  0.35038  0.25370  1.0000
  H   H4005     1.0  0.87970  0.37022  0.27800  1.0000
  C   C2336     1.0  0.92438  0.47884  0.39613  1.0000
  C   C2337     1.0  0.90814  0.48181  0.39723  1.0000
  C   C2338     1.0  0.89635  0.47221  0.38686  1.0000
  C   C2339     1.0  0.90082  0.45985  0.37500  1.0000
  C   C2340     1.0  0.91724  0.45725  0.37331  1.0000
  C   C2341     1.0  0.92902  0.46675  0.38383  1.0000
  H   H4006     1.0  0.90457  0.49127  0.40643  1.0000
  H   H4007     1.0  0.88360  0.47409  0.38848  1.0000
  H   H4008     1.0  0.92082  0.44783  0.36405  1.0000
  C   C2342     1.0  0.87974  0.33635  0.38012  1.0000
  C   C2343     1.0  0.87772  0.36549  0.06232  1.0000
  C   C2344     1.0  0.86885  0.37741  0.05443  1.0000
  C   C2345     1.0  0.85478  0.37968  0.06960  1.0000
  C   C2346     1.0  0.84939  0.37004  0.09274  1.0000
  C   C2347     1.0  0.85816  0.35799  0.10060  1.0000
  C   C2348     1.0  0.87231  0.35577  0.08545  1.0000
  H   H4009     1.0  0.87288  0.38495  0.03667  1.0000
  H   H4010     1.0  0.84803  0.38900  0.06338  1.0000
  H   H4011     1.0  0.85397  0.35032  0.11827  1.0000
  C   C2349     1.0  0.91644  0.44143  0.45135  1.0000
  H   H4012     1.0  0.96939  0.47680  0.41971  1.0000
  H   H4013     1.0  0.75159  0.34919  0.15606  1.0000
  S   S702      1.0  0.93848  0.48886  0.41163  1.0000
  C   C2350     1.0  0.76271  0.56395  0.02652  1.0000
  H   H4014     1.0  0.80379  0.64226  0.40101  1.0000
  C   C2351     1.0  0.79982  0.65448  0.39652  1.0000
  H   H4015     1.0  0.73924  0.55301  0.01617  1.0000
  H   H4016     1.0  0.96781  0.39903  0.00252  1.0000
  C   C2352     1.0  0.95853  0.44223  0.33977  1.0000
  C   C2353     1.0  0.96402  0.42784  0.33481  1.0000
  H   H4017     1.0  0.94548  0.44268  0.33958  1.0000
  H   H4018     1.0  0.79371  0.58554  0.01085  1.0000
  H   H4019     1.0  0.75797  0.42876  0.13494  1.0000
  C   C2354     1.0  0.82260  0.55312  0.05705  1.0000
  C   C2355     1.0  0.82197  0.56791  0.06593  1.0000
  C   C2356     1.0  0.81374  0.56598  0.08926  1.0000
  C   C2357     1.0  0.80617  0.54930  0.10383  1.0000
  C   C2358     1.0  0.80694  0.53455  0.09499  1.0000
  C   C2359     1.0  0.81515  0.53647  0.07170  1.0000
  H   H4020     1.0  0.82772  0.58079  0.05482  1.0000
  H   H4021     1.0  0.81318  0.57745  0.09600  1.0000
  H   H4022     1.0  0.80122  0.52165  0.10610  1.0000
  H   H4023     1.0  0.81564  0.52498  0.06496  1.0000
  H   H4024     1.0  0.81772  0.59268  0.16217  1.0000
  H   H4025     1.0  0.90341  0.44745  0.42399  1.0000
  C   C2360     1.0  0.88987  0.64256  0.02258  1.0000
  S   S703      1.0  0.74099  0.59413  0.39992  1.0000
  H   H4026     1.0  0.88307  0.62886  0.02725  1.0000
  C   C2361     1.0  0.88435  0.55187  0.36887  1.0000
  C   C2362     1.0  0.87719  0.56045  0.38475  1.0000
  C   C2363     1.0  0.88168  0.55963  0.40642  1.0000
  C   C2364     1.0  0.89313  0.54999  0.41257  1.0000
  C   C2365     1.0  0.90015  0.54123  0.39680  1.0000
  C   C2366     1.0  0.89594  0.54237  0.37494  1.0000
  H   H4027     1.0  0.86812  0.56767  0.38045  1.0000
  H   H4028     1.0  0.87619  0.56643  0.41854  1.0000
  H   H4029     1.0  0.90915  0.53394  0.40126  1.0000
  H   H4030     1.0  0.90189  0.53608  0.36261  1.0000
  C   C2367     1.0  0.79642  0.58931  0.38619  1.0000
  C   C2368     1.0  0.78567  0.58260  0.40848  1.0000
  C   C2369     1.0  0.76861  0.58387  0.41294  1.0000
  C   C2370     1.0  0.76223  0.59201  0.39512  1.0000
  C   C2371     1.0  0.77302  0.59888  0.37286  1.0000
  C   C2372     1.0  0.79007  0.59756  0.36839  1.0000
  H   H4031     1.0  0.79056  0.57632  0.42238  1.0000
  H   H4032     1.0  0.91695  0.34202  0.36438  1.0000
  H   H4033     1.0  0.76819  0.60534  0.35905  1.0000
  H   H4034     1.0  0.79834  0.60304  0.35127  1.0000
  C   C2373     1.0  0.81154  0.55269  0.26543  1.0000
  C   C2374     1.0  0.80051  0.55373  0.25003  1.0000
  C   C2375     1.0  0.79295  0.53897  0.24223  1.0000
  C   C2376     1.0  0.79624  0.52291  0.24990  1.0000
  C   C2377     1.0  0.80713  0.52181  0.26552  1.0000
  C   C2378     1.0  0.81486  0.53664  0.27312  1.0000
  H   H4035     1.0  0.79770  0.56604  0.24417  1.0000
  H   H4036     1.0  0.78435  0.53992  0.23058  1.0000
  H   H4037     1.0  0.80965  0.50941  0.27170  1.0000
  H   H4038     1.0  0.82325  0.53559  0.28504  1.0000
  H   H4039     1.0  0.90894  0.58682  0.30018  1.0000
  H   H4040     1.0  0.75743  0.57079  0.03943  1.0000
  Fe  Fe351     1.0  0.74690  0.49684  0.18281  1.0000
  H   H4041     1.0  0.76789  0.58538  0.32822  1.0000
  H   H4042     1.0  0.97665  0.48902  0.38964  1.0000
  H   H4043     1.0  0.89285  0.62298  0.37799  1.0000
  H   H4044     1.0  0.87355  0.41053  0.11551  1.0000
  H   H4045     1.0  0.75390  0.52287  0.31389  1.0000
  C   C2379     1.0  0.93338  0.60425  0.35890  1.0000
  H   H4046     1.0  0.90929  0.37382  0.41265  1.0000
  H   H4047     1.0  0.78975  0.62867  0.44635  1.0000
  H   H4048     1.0  0.78516  0.57002  0.34890  1.0000
  H   H4049     1.0  0.94902  0.36160  0.32643  1.0000
  H   H4050     1.0  0.98547  0.41645  0.33104  1.0000
  H   H4051     1.0  0.96570  0.49900  0.43576  1.0000
  C   C2380     1.0  0.97786  0.41112  0.99640  1.0000
  C   C2381     1.0  0.90206  0.64741  0.29242  1.0000
  H   H4052     1.0  0.91394  0.63586  0.36334  1.0000
  H   H4053     1.0  0.75736  0.35629  0.18062  1.0000
  H   H4054     1.0  0.91989  0.60949  0.29345  1.0000
  H   H4055     1.0  0.88533  0.39924  0.42986  1.0000
  C   C2382     1.0  0.92440  0.37073  0.38036  1.0000
  H   H4056     1.0  0.91250  0.58813  0.38879  1.0000
  C   C2383     1.0  0.93518  0.35898  0.33460  1.0000
  H   H4057     1.0  0.97613  0.38601  0.37672  1.0000
  H   H4058     1.0  0.75458  0.53205  0.35889  1.0000
  C   C2384     1.0  0.74769  0.54837  0.02705  1.0000
  H   H4059     1.0  0.95655  0.39142  0.38509  1.0000
  H   H4060     1.0  0.97527  0.51474  0.39725  1.0000
  H   H4061     1.0  0.89887  0.60135  0.31275  1.0000
  S   S704      1.0  0.92755  0.37001  0.98569  1.0000
  H   H4062     1.0  0.94158  0.46441  0.38295  1.0000
  H   H4063     1.0  0.74293  0.56538  0.34929  1.0000
  H   H4064     1.0  0.78820  0.58142  0.06403  1.0000
  C   C2385     1.0  0.76764  0.52859  0.30521  1.0000
  S   S705      1.0  0.87402  0.64544  0.98473  1.0000
  H   H4065     1.0  0.90243  0.46036  0.44484  1.0000
  H   H4066     1.0  0.76720  0.64143  0.46033  1.0000
  H   H4067     1.0  0.93167  0.37150  0.33313  1.0000
  H   H4068     1.0  0.87908  0.34648  0.09164  1.0000
  H   H4069     1.0  0.92031  0.61856  0.01352  1.0000
  H   H4070     1.0  0.79713  0.58372  0.18045  1.0000
  C   C2386     1.0  0.88765  0.41350  0.42885  1.0000
  H   H4071     1.0  0.96133  0.37286  0.40243  1.0000
  N   N168      1.0  0.88089  0.39108  0.15533  1.0000
  C   C2387     1.0  0.87119  0.40495  0.15374  1.0000
  C   C2388     1.0  0.88552  0.38906  0.17873  1.0000
  C   C2389     1.0  0.86880  0.37423  0.15439  1.0000
  C   C2390     1.0  0.89633  0.39658  0.13517  1.0000
  C   C2391     1.0  0.86385  0.40834  0.13185  1.0000
  C   C2392     1.0  0.89682  0.40559  0.18333  1.0000
  C   C2393     1.0  0.87590  0.35807  0.15580  1.0000
  C   C2394     1.0  0.91154  0.38859  0.13807  1.0000
  H   H4072     1.0  0.86027  0.40182  0.16916  1.0000
  H   H4073     1.0  0.87957  0.41780  0.15402  1.0000
  H   H4074     1.0  0.89201  0.37856  0.18211  1.0000
  H   H4075     1.0  0.87365  0.38481  0.19280  1.0000
  H   H4076     1.0  0.85716  0.37080  0.16874  1.0000
  H   H4077     1.0  0.86419  0.37556  0.13799  1.0000
  H   H4078     1.0  0.89239  0.39370  0.11910  1.0000
  H   H4079     1.0  0.90179  0.41101  0.13127  1.0000
  H   H4080     1.0  0.85917  0.42027  0.13126  1.0000
  S   S706      1.0  0.88888  0.37210  0.97879  1.0000
  H   H4081     1.0  0.85254  0.39763  0.13238  1.0000
  H   H4082     1.0  0.90802  0.41223  0.16876  1.0000
  H   H4083     1.0  0.88918  0.41490  0.18718  1.0000
  H   H4084     1.0  0.88901  0.64279  0.32821  1.0000
  C   C2395     1.0  0.97814  0.42273  0.97596  1.0000
  H   H4085     1.0  0.88600  0.35944  0.14016  1.0000
  Fe  Fe352     1.0  0.85988  0.61839  0.98058  1.0000
  H   H4086     1.0  0.91697  0.38577  0.12127  1.0000
  H   H4087     1.0  0.90836  0.37624  0.15125  1.0000
  H   H4088     1.0  0.92216  0.39822  0.14173  1.0000
  H   H4089     1.0  0.93545  0.63659  0.33544  1.0000
  H   H4090     1.0  0.93185  0.59126  0.32207  1.0000
  H   H4091     1.0  0.80092  0.57097  0.98446  1.0000
  C   C2396     1.0  0.76956  0.52987  0.06164  1.0000
  N   N169      1.0  0.83134  0.56511  0.17737  1.0000
  C   C2397     1.0  0.83384  0.55133  0.19615  1.0000
  C   C2398     1.0  0.84310  0.58224  0.17806  1.0000
  C   C2399     1.0  0.83654  0.56043  0.15437  1.0000
  C   C2400     1.0  0.81261  0.56502  0.18228  1.0000
  C   C2401     1.0  0.82485  0.53227  0.19672  1.0000
  C   C2402     1.0  0.83903  0.58862  0.20069  1.0000
  C   C2403     1.0  0.84001  0.57484  0.13217  1.0000
  H   H4092     1.0  0.84776  0.55211  0.19469  1.0000
  H   H4093     1.0  0.82909  0.55334  0.21373  1.0000
  H   H4094     1.0  0.84333  0.59300  0.16364  1.0000
  H   H4095     1.0  0.85667  0.58140  0.17532  1.0000
  H   H4096     1.0  0.84852  0.55599  0.15358  1.0000
  H   H4097     1.0  0.82657  0.54920  0.15242  1.0000
  H   H4098     1.0  0.80459  0.55299  0.17899  1.0000
  H   H4099     1.0  0.80765  0.56405  0.20103  1.0000
  H   H4100     1.0  0.81080  0.53014  0.19890  1.0000
  H   H4101     1.0  0.83022  0.52801  0.18109  1.0000
  H   H4102     1.0  0.82686  0.52354  0.21195  1.0000
  H   H4103     1.0  0.84758  0.60188  0.19850  1.0000
  H   H4104     1.0  0.82562  0.58963  0.20487  1.0000
  H   H4105     1.0  0.84156  0.58021  0.21574  1.0000
  H   H4106     1.0  0.85187  0.58530  0.13037  1.0000
  H   H4107     1.0  0.82902  0.58045  0.13093  1.0000
  H   H4108     1.0  0.84215  0.56898  0.11685  1.0000
  N   N170      1.0  0.87542  0.49838  0.32982  1.0000
  C   C2404     1.0  0.89320  0.49556  0.32780  1.0000
  C   C2405     1.0  0.86343  0.48122  0.32969  1.0000
  C   C2406     1.0  0.87041  0.50298  0.35288  1.0000
  C   C2407     1.0  0.87602  0.51306  0.30991  1.0000
  C   C2408     1.0  0.90722  0.51037  0.33169  1.0000
  C   C2409     1.0  0.86799  0.47376  0.30816  1.0000
  C   C2410     1.0  0.85249  0.50611  0.35901  1.0000
  C   C2411     1.0  0.85886  0.51377  0.30283  1.0000
  H   H4109     1.0  0.89288  0.48351  0.34032  1.0000
  H   H4110     1.0  0.89813  0.49339  0.31035  1.0000
  H   H4111     1.0  0.84995  0.48186  0.33137  1.0000
  H   H4112     1.0  0.86303  0.47104  0.34519  1.0000
  H   H4113     1.0  0.87126  0.49265  0.36726  1.0000
  H   H4114     1.0  0.87941  0.51522  0.35385  1.0000
  H   H4115     1.0  0.88158  0.52592  0.31365  1.0000
  H   H4116     1.0  0.88488  0.51243  0.29391  1.0000
  H   H4117     1.0  0.90585  0.51010  0.35050  1.0000
  H   H4118     1.0  0.92003  0.50823  0.32559  1.0000
  H   H4119     1.0  0.90722  0.52343  0.32205  1.0000
  H   H4120     1.0  0.87054  0.48359  0.29167  1.0000
  H   H4121     1.0  0.87919  0.46823  0.30879  1.0000
  H   H4122     1.0  0.85705  0.46277  0.30810  1.0000
  H   H4123     1.0  0.85040  0.50847  0.37685  1.0000
  H   H4124     1.0  0.84198  0.49473  0.35914  1.0000
  H   H4125     1.0  0.85168  0.51812  0.34748  1.0000
  H   H4126     1.0  0.85854  0.52765  0.29824  1.0000
  H   H4127     1.0  0.84708  0.50696  0.31628  1.0000
  H   H4128     1.0  0.85815  0.50884  0.28679  1.0000
  H   H4129     1.0  0.86906  0.34856  0.02128  1.0000
  H   H4130     1.0  0.76204  0.33611  0.25372  1.0000
  H   H4131     1.0  0.79494  0.54996  0.97859  1.0000
  N   N171      1.0  0.77350  0.55125  0.33052  1.0000
  C   C2412     1.0  0.77830  0.53622  0.32162  1.0000
  C   C2413     1.0  0.78701  0.55823  0.34306  1.0000
  C   C2414     1.0  0.77367  0.56509  0.30979  1.0000
  C   C2415     1.0  0.75580  0.54441  0.34624  1.0000
  H   H4132     1.0  0.79956  0.60015  0.04166  1.0000
  H   H4133     1.0  0.84905  0.34038  0.04161  1.0000
  S   S707      1.0  0.89992  0.50120  0.45202  1.0000
  H   H4134     1.0  0.79203  0.54017  0.31216  1.0000
  C   C2416     1.0  0.93371  0.34528  0.39997  1.0000
  H   H4135     1.0  0.90885  0.66238  0.21496  1.0000
  H   H4136     1.0  0.75168  0.41905  0.16572  1.0000
  H   H4137     1.0  0.78408  0.56566  0.29476  1.0000
  H   H4138     1.0  0.93738  0.61519  0.36745  1.0000
  H   H4139     1.0  0.90594  0.34177  0.41368  1.0000
  H   H4140     1.0  0.90413  0.60039  0.01187  1.0000
  H   H4141     1.0  0.92859  0.45038  0.44010  1.0000
  H   H4142     1.0  0.88504  0.34500  0.36313  1.0000
  H   H4143     1.0  0.90250  0.64098  0.05135  1.0000
  H   H4144     1.0  0.89251  0.34049  0.00833  1.0000
  C   C2417     1.0  0.76007  0.64504  0.44687  1.0000
  H   H4145     1.0  0.77713  0.52507  0.33621  1.0000
  H   H4146     1.0  0.92539  0.60296  0.99643  1.0000
  H   H4147     1.0  0.92881  0.65717  0.21628  1.0000
  C   C2418     1.0  0.80742  0.58044  0.16874  1.0000
  H   H4148     1.0  0.95033  0.62280  0.98315  1.0000
  H   H4149     1.0  0.79833  0.54741  0.01907  1.0000
  H   H4150     1.0  0.94195  0.33626  0.39695  1.0000
  N   N172      1.0  0.93583  0.35859  0.37782  1.0000
  H   H4151     1.0  0.98448  0.47091  0.39958  1.0000
  S   S708      1.0  0.88609  0.63233  0.28425  1.0000
  C   C2419     1.0  0.97003  0.45623  0.34458  1.0000
  H   H4152     1.0  0.96568  0.46739  0.34812  1.0000
  H   H4153     1.0  0.96264  0.35962  0.36621  1.0000
  H   H4154     1.0  0.92786  0.35126  0.32425  1.0000
  H   H4155     1.0  0.80216  0.57682  0.15393  1.0000
  C   C2420     1.0  0.91604  0.61033  0.00161  1.0000
  C   C2421     1.0  0.93258  0.62628  0.32555  1.0000
  H   H4156     1.0  0.91650  0.44294  0.46934  1.0000
  C   C2422     1.0  0.91677  0.65730  0.27542  1.0000
  H   H4157     1.0  0.75213  0.45465  0.12904  1.0000
  H   H4158     1.0  0.79016  0.58957  0.31352  1.0000
  H   H4159     1.0  0.89711  0.59741  0.36305  1.0000
  C   C2423     1.0  0.78826  0.54554  0.36478  1.0000
  C   C2424     1.0  0.98111  0.42753  0.33489  1.0000
  C   C2425     1.0  0.87377  0.34300  0.39902  1.0000
  H   H4160     1.0  0.92861  0.38210  0.36528  1.0000
  H   H4161     1.0  0.93833  0.35120  0.41369  1.0000
  H   H4162     1.0  0.77893  0.56155  0.98310  1.0000
  C   C2426     1.0  0.95447  0.36869  0.36924  1.0000
  H   H4163     1.0  0.92463  0.63089  0.31386  1.0000
  C   C2427     1.0  0.88217  0.41649  0.45351  1.0000
  H   H4164     1.0  0.79778  0.55264  0.37324  1.0000
  H   H4165     1.0  0.76645  0.52470  0.08077  1.0000
  C   C2428     1.0  0.91170  0.62064  0.98033  1.0000
  H   H4166     1.0  0.75787  0.52519  0.05535  1.0000
  H   H4167     1.0  0.77435  0.59231  0.29732  1.0000
  C   C2429     1.0  0.88752  0.65341  0.00309  1.0000
  N   N173      1.0  0.77892  0.55985  0.03154  1.0000
  H   H4168     1.0  0.86534  0.34660  0.15614  1.0000
  S   S709      1.0  0.86937  0.59432  0.98711  1.0000
  H   H4169     1.0  0.75755  0.61661  0.42868  1.0000
  C   C2430     1.0  0.77591  0.54995  0.05645  1.0000
  H   H4170     1.0  0.94558  0.60216  0.34994  1.0000
  H   H4171     1.0  0.86210  0.33670  0.43561  1.0000
  C   C2431     1.0  0.79035  0.55881  0.98892  1.0000
  C   C2432     1.0  0.77055  0.62578  0.42405  1.0000
  H   H4172     1.0  0.77592  0.54074  0.37788  1.0000
  C   C2433     1.0  0.78625  0.54994  0.01498  1.0000
  C   C2434     1.0  0.92472  0.58753  0.37809  1.0000
  C   C2435     1.0  0.86841  0.45966  0.44595  1.0000
  H   H4173     1.0  0.88042  0.35481  0.17196  1.0000
  H   H4174     1.0  0.78799  0.55253  0.06276  1.0000
  C   C2436     1.0  0.90094  0.64950  0.03624  1.0000
  H   H4175     1.0  0.77772  0.53677  0.01696  1.0000
  H   H4176     1.0  0.98320  0.54627  0.38824  1.0000
  C   C2437     1.0  0.91975  0.59473  0.32845  1.0000
  H   H4177     1.0  0.92633  0.39254  0.39770  1.0000
  H   H4178     1.0  0.77987  0.52417  0.05433  1.0000
  H   H4179     1.0  0.76673  0.55458  0.06825  1.0000
  H   H4180     1.0  0.91106  0.58245  0.34009  1.0000
  H   H4181     1.0  0.80503  0.57468  0.02870  1.0000
  H   H4182     1.0  0.74873  0.44697  0.16875  1.0000
  H   H4183     1.0  0.76044  0.57858  0.43016  1.0000
  H   H4184     1.0  0.91683  0.42802  0.44997  1.0000
  H   H4185     1.0  0.95956  0.62498  0.32056  1.0000
  C   C2438     1.0  0.90037  0.65009  0.31501  1.0000
  C   C2439     1.0  0.94994  0.62685  0.31014  1.0000
  H   H4186     1.0  0.77604  0.62407  0.40655  1.0000
  C   C2440     1.0  0.90616  0.62231  0.37133  1.0000
  N   N174      1.0  0.92290  0.60894  0.34167  1.0000
  H   H4187     1.0  0.78799  0.61032  0.43377  1.0000
  H   H4188     1.0  0.74620  0.48056  0.11665  1.0000
  C   C2441     1.0  0.97944  0.49228  0.46189  1.0000
  H   H4189     1.0  0.74736  0.63520  0.45255  1.0000
  H   H4190     1.0  0.87392  0.44234  0.42436  1.0000
  H   H4191     1.0  0.89896  0.61580  0.34084  1.0000
  H   H4192     1.0  0.79316  0.65644  0.43221  1.0000
  C   C2442     1.0  0.90121  0.44670  0.44294  1.0000
  H   H4193     1.0  0.91083  0.61702  0.38662  1.0000
  H   H4194     1.0  0.93103  0.37459  0.41445  1.0000
  H   H4195     1.0  0.91107  0.36422  0.37960  1.0000
  C   C2443     1.0  0.90574  0.61048  0.35375  1.0000
  H   H4196     1.0  0.88006  0.41833  0.41679  1.0000
  H   H4197     1.0  0.90153  0.41943  0.42113  1.0000
  C   C2444     1.0  0.75989  0.64922  0.40480  1.0000
  C   C2445     1.0  0.93099  0.34845  0.35997  1.0000
  C   C2446     1.0  0.96222  0.38021  0.38465  1.0000
  H   H4198     1.0  0.75787  0.34617  0.21661  1.0000
  H   H4199     1.0  0.73779  0.62574  0.41419  1.0000
  C   C2447     1.0  0.77661  0.58407  0.31277  1.0000
  H   H4200     1.0  0.74826  0.40588  0.14537  1.0000
  H   H4201     1.0  0.75173  0.53810  0.01932  1.0000
  C   C2448     1.0  0.74803  0.41889  0.14887  1.0000
  C   C2449     1.0  0.78872  0.58816  0.04602  1.0000
  C   C2450     1.0  0.74907  0.55692  0.35985  1.0000
  C   C2451     1.0  0.75345  0.33182  0.22246  1.0000
  H   H4202     1.0  0.92245  0.57573  0.37082  1.0000
  H   H4203     1.0  0.76561  0.64638  0.38813  1.0000
  H   H4204     1.0  0.79457  0.65463  0.38071  1.0000
  C   C2452     1.0  0.92286  0.37805  0.40262  1.0000
  H   H4205     1.0  0.76151  0.56181  0.30372  1.0000
  C   C2453     1.0  0.86677  0.33163  0.42094  1.0000
  H   H4206     1.0  0.73739  0.35841  0.21348  1.0000
  H   H4207     1.0  0.76888  0.53832  0.28902  1.0000
  H   H4208     1.0  0.76527  0.57360  0.00970  1.0000
  H   H4209     1.0  0.88970  0.41042  0.46472  1.0000
  C   C2454     1.0  0.91521  0.33386  0.41080  1.0000
  N   N175      1.0  0.76937  0.64422  0.42327  1.0000
  H   H4210     1.0  0.88032  0.47012  0.43769  1.0000
  C   C2455     1.0  0.98056  0.48224  0.40476  1.0000
  H   H4211     1.0  0.77259  0.51785  0.29978  1.0000
  N   N176      1.0  0.88359  0.43519  0.45508  1.0000
  C   C2456     1.0  0.78042  0.61851  0.44155  1.0000
  C   C2457     1.0  0.97791  0.50487  0.44040  1.0000
  H   H4212     1.0  0.77690  0.59250  0.04533  1.0000
  H   H4213     1.0  0.94870  0.61728  0.29900  1.0000
  H   H4214     1.0  0.92161  0.65197  0.98923  1.0000
  H   H4215     1.0  0.73934  0.54915  0.37575  1.0000
  H   H4216     1.0  0.93738  0.33764  0.35983  1.0000
  C   C2458     1.0  0.74050  0.64011  0.41016  1.0000
  H   H4217     1.0  0.93857  0.64259  0.99224  1.0000
  H   H4218     1.0  0.77130  0.61031  0.45774  1.0000
  H   H4219     1.0  0.97734  0.53895  0.41901  1.0000
  H   H4220     1.0  0.86418  0.46033  0.46426  1.0000
  C   C2459     1.0  0.74699  0.34782  0.17501  1.0000
  C   C2460     1.0  0.91335  0.66245  0.32045  1.0000
  H   H4221     1.0  0.90028  0.62515  0.98697  1.0000
  C   C2461     1.0  0.78701  0.65685  0.41708  1.0000
  H   H4222     1.0  0.73998  0.54259  0.04506  1.0000
  H   H4223     1.0  0.86867  0.40842  0.46035  1.0000
  C   C2462     1.0  0.85765  0.33728  0.02736  1.0000
  H   H4224     1.0  0.85064  0.33608  0.01326  1.0000
  H   H4225     1.0  0.97592  0.51664  0.44641  1.0000
  H   H4226     1.0  0.91822  0.65516  0.25803  1.0000
  H   H4227     1.0  0.98144  0.47987  0.45805  1.0000
  C   C2463     1.0  0.93242  0.64842  0.97898  1.0000
  C   C2464     1.0  0.73808  0.45239  0.12994  1.0000
  H   H4228     1.0  0.75031  0.66192  0.46706  1.0000
  H   H4229     1.0  0.76117  0.66352  0.40084  1.0000
  C   C2465     1.0  0.75719  0.66298  0.44899  1.0000
  Fe  Fe353     1.0  0.86593  0.59187  0.95138  1.0000
  S   S710      1.0  0.85776  0.61672  0.94392  1.0000
  S   S711      1.0  0.88873  0.58797  0.92730  1.0000
  H   H4230     1.0  0.74497  0.55162  0.91752  1.0000
  S   S712      1.0  0.80635  0.60278  0.94590  1.0000
  C   C2466     1.0  0.89111  0.51472  0.93487  1.0000
  H   H4231     1.0  0.81912  0.63506  0.85163  1.0000
  H   H4232     1.0  0.92480  0.51795  0.93462  1.0000
  H   H4233     1.0  0.89841  0.49023  0.61567  1.0000
  Fe  Fe354     1.0  0.83067  0.59980  0.95881  1.0000
  H   H4234     1.0  0.97656  0.53183  0.89551  1.0000
  C   C2467     1.0  0.97723  0.56215  0.82455  1.0000
  S   S713      1.0  0.76956  0.56780  0.87324  1.0000
  H   H4235     1.0  0.92376  0.38065  0.89600  1.0000
  C   C2468     1.0  0.89502  0.49441  0.91040  1.0000
  S   S714      1.0  0.91395  0.52264  0.49029  1.0000
  S   S715      1.0  0.75433  0.58145  0.81560  1.0000
  H   H4236     1.0  0.86378  0.36269  0.87683  1.0000
  Fe  Fe355     1.0  0.90212  0.52302  0.84717  1.0000
  S   S716      1.0  0.91375  0.53863  0.81063  1.0000
  S   S717      1.0  0.87999  0.52782  0.87137  1.0000
  Fe  Fe356     1.0  0.92207  0.49621  0.84142  1.0000
  S   S718      1.0  0.93488  0.50952  0.80435  1.0000
  S   S719      1.0  0.93075  0.47346  0.85794  1.0000
  Fe  Fe357     1.0  0.93879  0.53415  0.81769  1.0000
  S   S720      1.0  0.96586  0.55244  0.80559  1.0000
  Fe  Fe358     1.0  0.90881  0.51254  0.80057  1.0000
  S   S721      1.0  0.89777  0.51130  0.76811  1.0000
  S   S722      1.0  0.92740  0.52055  0.85502  1.0000
  S   S723      1.0  0.89572  0.49718  0.83688  1.0000
  C   C2469     1.0  0.74619  0.46559  0.66096  1.0000
  H   H4237     1.0  0.94563  0.51102  0.90583  1.0000
  S   S724      1.0  0.91198  0.34687  0.93669  1.0000
  C   C2470     1.0  0.87800  0.36588  0.87153  1.0000
  H   H4238     1.0  0.93320  0.46694  0.53562  1.0000
  S   S725      1.0  0.92368  0.39586  0.94034  1.0000
  Fe  Fe359     1.0  0.90435  0.49477  0.48820  1.0000
  N   N177      1.0  0.78495  0.63579  0.84498  1.0000
  S   S726      1.0  0.88737  0.47188  0.51689  1.0000
  H   H4239     1.0  0.88314  0.35990  0.88580  1.0000
  H   H4240     1.0  0.86199  0.36931  0.91228  1.0000
  H   H4241     1.0  0.87619  0.34869  0.94432  1.0000
  Fe  Fe360     1.0  0.84404  0.45730  0.65016  1.0000
  S   S727      1.0  0.85709  0.43955  0.66940  1.0000
  S   S728      1.0  0.85698  0.47978  0.61863  1.0000
  Fe  Fe361     1.0  0.80999  0.44257  0.68555  1.0000
  S   S729      1.0  0.82046  0.42356  0.70726  1.0000
  S   S730      1.0  0.78307  0.44433  0.70044  1.0000
  Fe  Fe362     1.0  0.84407  0.44578  0.70201  1.0000
  S   S731      1.0  0.85522  0.44712  0.73439  1.0000
  Fe  Fe363     1.0  0.83259  0.41857  0.67347  1.0000
  S   S732      1.0  0.83574  0.39156  0.67058  1.0000
  S   S733      1.0  0.83274  0.46510  0.68261  1.0000
  S   S734      1.0  0.82039  0.43601  0.65186  1.0000
  C   C2471     1.0  0.76876  0.45190  0.68486  1.0000
  C   C2472     1.0  0.75556  0.45775  0.69666  1.0000
  C   C2473     1.0  0.91052  0.49887  0.60390  1.0000
  H   H4242     1.0  0.75983  0.63856  0.88680  1.0000
  Fe  Fe364     1.0  0.91234  0.36770  0.95796  1.0000
  C   C2474     1.0  0.77027  0.45237  0.66118  1.0000
  H   H4243     1.0  0.75422  0.45728  0.71504  1.0000
  H   H4244     1.0  0.94316  0.48080  0.56406  1.0000
  H   H4245     1.0  0.77552  0.34865  0.73893  1.0000
  H   H4246     1.0  0.78015  0.44755  0.65204  1.0000
  C   C2475     1.0  0.86481  0.47714  0.59039  1.0000
  C   C2476     1.0  0.87092  0.49196  0.57190  1.0000
  C   C2477     1.0  0.87780  0.49055  0.54931  1.0000
  C   C2478     1.0  0.87863  0.47426  0.54498  1.0000
  C   C2479     1.0  0.87232  0.45941  0.56341  1.0000
  C   C2480     1.0  0.86548  0.46082  0.58604  1.0000
  H   H4247     1.0  0.87030  0.50460  0.57506  1.0000
  H   H4248     1.0  0.88233  0.50204  0.53521  1.0000
  H   H4249     1.0  0.87280  0.44673  0.56023  1.0000
  H   H4250     1.0  0.86081  0.44931  0.60011  1.0000
  C   C2481     1.0  0.88634  0.49313  0.75889  1.0000
  C   C2482     1.0  0.88187  0.49601  0.73717  1.0000
  C   C2483     1.0  0.87230  0.48217  0.72943  1.0000
  C   C2484     1.0  0.86714  0.46520  0.74329  1.0000
  C   C2485     1.0  0.87160  0.46233  0.76501  1.0000
  C   C2486     1.0  0.88110  0.47619  0.77281  1.0000
  H   H4251     1.0  0.88588  0.50904  0.72620  1.0000
  H   H4252     1.0  0.86905  0.48461  0.71267  1.0000
  H   H4253     1.0  0.86771  0.44927  0.77588  1.0000
  H   H4254     1.0  0.88439  0.47373  0.78955  1.0000
  C   C2487     1.0  0.91787  0.45900  0.88347  1.0000
  C   C2488     1.0  0.92577  0.44977  0.89834  1.0000
  C   C2489     1.0  0.91590  0.43745  0.91835  1.0000
  C   C2490     1.0  0.89802  0.43398  0.92334  1.0000
  C   C2491     1.0  0.89005  0.44349  0.90875  1.0000
  C   C2492     1.0  0.89998  0.45599  0.88875  1.0000
  H   H4255     1.0  0.93961  0.45214  0.89438  1.0000
  H   H4256     1.0  0.92220  0.43070  0.92993  1.0000
  H   H4257     1.0  0.87620  0.44092  0.91265  1.0000
  H   H4258     1.0  0.89383  0.46300  0.87716  1.0000
  C   C2493     1.0  0.79460  0.34348  0.66664  1.0000
  C   C2494     1.0  0.79034  0.35930  0.66768  1.0000
  C   C2495     1.0  0.80280  0.37423  0.66862  1.0000
  C   C2496     1.0  0.81972  0.37350  0.66829  1.0000
  C   C2497     1.0  0.82398  0.35768  0.66718  1.0000
  C   C2498     1.0  0.81148  0.34271  0.66652  1.0000
  H   H4259     1.0  0.77733  0.36005  0.66776  1.0000
  H   H4260     1.0  0.79933  0.38630  0.66956  1.0000
  H   H4261     1.0  0.83705  0.35701  0.66685  1.0000
  H   H4262     1.0  0.85145  0.33386  0.92990  1.0000
  H   H4263     1.0  0.76855  0.61736  0.83094  1.0000
  C   C2499     1.0  0.96875  0.56660  0.84401  1.0000
  Fe  Fe365     1.0  0.90117  0.40057  0.96287  1.0000
  H   H4264     1.0  0.90682  0.49339  0.96313  1.0000
  H   H4265     1.0  0.95486  0.56336  0.84834  1.0000
  C   C2500     1.0  0.90046  0.38914  0.89577  1.0000
  H   H4266     1.0  0.87934  0.42798  0.86496  1.0000
  H   H4267     1.0  0.77285  0.60805  0.85755  1.0000
  H   H4268     1.0  0.86769  0.49417  0.91562  1.0000
  S   S735      1.0  0.83886  0.57489  0.96372  1.0000
  C   C2501     1.0  0.86221  0.42676  0.49499  1.0000
  H   H4269     1.0  0.85233  0.43261  0.48890  1.0000
  H   H4270     1.0  0.78267  0.62680  0.88196  1.0000
  H   H4271     1.0  0.74545  0.52074  0.94021  1.0000
  H   H4272     1.0  0.76046  0.45983  0.63086  1.0000
  H   H4273     1.0  0.85146  0.38395  0.92407  1.0000
  C   C2502     1.0  0.88608  0.57141  0.91148  1.0000
  C   C2503     1.0  0.86997  0.56007  0.91357  1.0000
  C   C2504     1.0  0.86828  0.54697  0.90085  1.0000
  C   C2505     1.0  0.88265  0.54512  0.88590  1.0000
  C   C2506     1.0  0.89879  0.55641  0.88381  1.0000
  C   C2507     1.0  0.90048  0.56951  0.89659  1.0000
  H   H4274     1.0  0.85881  0.56139  0.92500  1.0000
  H   H4275     1.0  0.85578  0.53819  0.90270  1.0000
  H   H4276     1.0  0.90997  0.55505  0.87245  1.0000
  H   H4277     1.0  0.91298  0.57824  0.89488  1.0000
  C   C2508     1.0  0.79632  0.59285  0.92568  1.0000
  C   C2509     1.0  0.78149  0.59716  0.92036  1.0000
  C   C2510     1.0  0.77316  0.58974  0.90436  1.0000
  C   C2511     1.0  0.77953  0.57781  0.89345  1.0000
  C   C2512     1.0  0.79422  0.57334  0.89898  1.0000
  C   C2513     1.0  0.80260  0.58082  0.91489  1.0000
  H   H4278     1.0  0.77648  0.60641  0.92862  1.0000
  H   H4279     1.0  0.76184  0.59327  0.90048  1.0000
  H   H4280     1.0  0.79927  0.56409  0.89077  1.0000
  H   H4281     1.0  0.81395  0.57732  0.91875  1.0000
  H   H4282     1.0  0.80587  0.61606  0.82751  1.0000
  C   C2514     1.0  0.88048  0.43610  0.48029  1.0000
  H   H4283     1.0  0.74387  0.63856  0.87001  1.0000
  C   C2515     1.0  0.80312  0.35196  0.73303  1.0000
  H   H4284     1.0  0.92699  0.40024  0.87481  1.0000
  H   H4285     1.0  0.80473  0.61361  0.86624  1.0000
  H   H4286     1.0  0.89763  0.38776  0.84871  1.0000
  H   H4287     1.0  0.90814  0.51176  0.59862  1.0000
  C   C2516     1.0  0.74858  0.66109  0.78643  1.0000
  H   H4288     1.0  0.87727  0.50797  0.94220  1.0000
  H   H4289     1.0  0.94651  0.63951  0.93521  1.0000
  H   H4290     1.0  0.92343  0.48338  0.52530  1.0000
  H   H4291     1.0  0.97160  0.57991  0.87183  1.0000
  H   H4292     1.0  0.87690  0.39053  0.85307  1.0000
  H   H4293     1.0  0.93394  0.61760  0.94576  1.0000
  C   C2517     1.0  0.87324  0.39742  0.89528  1.0000
  C   C2518     1.0  0.79176  0.65152  0.80173  1.0000
  H   H4294     1.0  0.88691  0.53290  0.95660  1.0000
  H   H4295     1.0  0.90408  0.64289  0.91970  1.0000
  C   C2519     1.0  0.83832  0.38865  0.74370  1.0000
  C   C2520     1.0  0.97730  0.55929  0.48021  1.0000
  C   C2521     1.0  0.83192  0.34807  0.77659  1.0000
  C   C2522     1.0  0.80810  0.62773  0.86615  1.0000
  H   H4296     1.0  0.83687  0.36328  0.70867  1.0000
  H   H4297     1.0  0.91426  0.46897  0.55367  1.0000
  C   C2523     1.0  0.91992  0.51197  0.92096  1.0000
  C   C2524     1.0  0.79801  0.64822  0.82453  1.0000
  H   H4298     1.0  0.89753  0.50494  0.89452  1.0000
  H   H4299     1.0  0.83944  0.40285  0.73825  1.0000
  H   H4300     1.0  0.96081  0.51381  0.59499  1.0000
  H   H4301     1.0  0.90896  0.53594  0.94407  1.0000
  H   H4302     1.0  0.91557  0.62667  0.92451  1.0000
  C   C2525     1.0  0.95383  0.62568  0.96401  1.0000
  H   H4303     1.0  0.77394  0.65750  0.84928  1.0000
  Fe  Fe366     1.0  0.74824  0.57237  0.85446  1.0000
  C   C2526     1.0  0.97827  0.57606  0.85723  1.0000
  H   H4304     1.0  0.89933  0.43848  0.84500  1.0000
  H   H4305     1.0  0.90849  0.46577  0.96257  1.0000
  H   H4306     1.0  0.91035  0.47061  0.93213  1.0000
  C   C2527     1.0  0.93279  0.50168  0.91327  1.0000
  H   H4307     1.0  0.92750  0.65614  0.93461  1.0000
  N   N178      1.0  0.80747  0.50161  0.64206  1.0000
  C   C2528     1.0  0.81652  0.51593  0.62080  1.0000
  C   C2529     1.0  0.78836  0.49888  0.64489  1.0000
  C   C2530     1.0  0.81178  0.48470  0.63977  1.0000
  C   C2531     1.0  0.81328  0.50686  0.66290  1.0000
  C   C2532     1.0  0.83618  0.51901  0.61357  1.0000
  C   C2533     1.0  0.78141  0.51463  0.64875  1.0000
  C   C2534     1.0  0.80891  0.47833  0.61762  1.0000
  C   C2535     1.0  0.80301  0.49537  0.68687  1.0000
  H   H4308     1.0  0.81104  0.51357  0.60557  1.0000
  H   H4309     1.0  0.81441  0.52865  0.62343  1.0000
  H   H4310     1.0  0.78127  0.48770  0.65958  1.0000
  H   H4311     1.0  0.78415  0.49532  0.62934  1.0000
  H   H4312     1.0  0.82537  0.48553  0.64057  1.0000
  H   H4313     1.0  0.80411  0.47390  0.65468  1.0000
  H   H4314     1.0  0.82690  0.50661  0.66208  1.0000
  H   H4315     1.0  0.81309  0.52057  0.66310  1.0000
  H   H4316     1.0  0.84270  0.52253  0.62740  1.0000
  H   H4317     1.0  0.83982  0.50760  0.60838  1.0000
  H   H4318     1.0  0.84138  0.53009  0.59815  1.0000
  H   H4319     1.0  0.76714  0.51048  0.65216  1.0000
  H   H4320     1.0  0.78475  0.51940  0.66400  1.0000
  H   H4321     1.0  0.78581  0.52548  0.63307  1.0000
  H   H4322     1.0  0.81288  0.46602  0.61799  1.0000
  H   H4323     1.0  0.81687  0.48765  0.60149  1.0000
  H   H4324     1.0  0.79522  0.47530  0.61669  1.0000
  H   H4325     1.0  0.78964  0.49650  0.69101  1.0000
  H   H4326     1.0  0.80928  0.49972  0.70057  1.0000
  H   H4327     1.0  0.80276  0.48145  0.68837  1.0000
  H   H4328     1.0  0.86362  0.39894  0.88461  1.0000
  H   H4329     1.0  0.88596  0.41950  0.83974  1.0000
  H   H4330     1.0  0.89363  0.37613  0.90708  1.0000
  H   H4331     1.0  0.87161  0.47506  0.93261  1.0000
  H   H4332     1.0  0.80543  0.35672  0.71390  1.0000
  H   H4333     1.0  0.79975  0.33745  0.73621  1.0000
  C   C2536     1.0  0.91781  0.38734  0.88307  1.0000
  S   S736      1.0  0.96367  0.41739  0.95802  1.0000
  H   H4334     1.0  0.87154  0.38250  0.93047  1.0000
  C   C2537     1.0  0.74660  0.52526  0.92134  1.0000
  C   C2538     1.0  0.92640  0.47649  0.54111  1.0000
  H   H4335     1.0  0.87565  0.40929  0.90255  1.0000
  H   H4336     1.0  0.78731  0.37045  0.73701  1.0000
  N   N179      1.0  0.90128  0.50187  0.92962  1.0000
  H   H4337     1.0  0.95743  0.61408  0.95923  1.0000
  C   C2539     1.0  0.86421  0.38226  0.91656  1.0000
  H   H4338     1.0  0.91153  0.41433  0.85501  1.0000
  H   H4339     1.0  0.90309  0.39766  0.90811  1.0000
  C   C2540     1.0  0.89990  0.41451  0.86762  1.0000
  H   H4340     1.0  0.89770  0.51766  0.96848  1.0000
  H   H4341     1.0  0.90347  0.48619  0.57702  1.0000
  H   H4342     1.0  0.79587  0.64840  0.86995  1.0000
  C   C2541     1.0  0.87792  0.33999  0.93287  1.0000
  H   H4343     1.0  0.90215  0.48528  0.90474  1.0000
  H   H4344     1.0  0.74125  0.53814  0.96863  1.0000
  C   C2542     1.0  0.89032  0.42548  0.85364  1.0000
  C   C2543     1.0  0.89869  0.48819  0.95159  1.0000
  N   N180      1.0  0.81900  0.35886  0.74164  1.0000
  C   C2544     1.0  0.83152  0.33597  0.72461  1.0000
  C   C2545     1.0  0.83395  0.35513  0.72666  1.0000
  C   C2546     1.0  0.82187  0.37839  0.73813  1.0000
  C   C2547     1.0  0.81601  0.35025  0.76709  1.0000
  H   H4345     1.0  0.75110  0.33899  0.64133  1.0000
  H   H4346     1.0  0.79120  0.61181  0.80861  1.0000
  H   H4347     1.0  0.73701  0.54124  0.89692  1.0000
  H   H4348     1.0  0.93426  0.49234  0.92825  1.0000
  H   H4349     1.0  0.87325  0.47775  0.90198  1.0000
  H   H4350     1.0  0.86170  0.42818  0.51317  1.0000
  H   H4351     1.0  0.75250  0.62006  0.87454  1.0000
  H   H4352     1.0  0.82200  0.38425  0.71981  1.0000
  H   H4353     1.0  0.81116  0.38170  0.74902  1.0000
  H   H4354     1.0  0.90850  0.65172  0.95652  1.0000
  C   C2548     1.0  0.88598  0.38572  0.86267  1.0000
  H   H4355     1.0  0.78261  0.65978  0.80257  1.0000
  H   H4356     1.0  0.84596  0.35893  0.73278  1.0000
  C   C2549     1.0  0.78669  0.35655  0.74390  1.0000
  H   H4357     1.0  0.80988  0.64395  0.82048  1.0000
  H   H4358     1.0  0.88141  0.35921  0.85740  1.0000
  C   C2550     1.0  0.89671  0.52577  0.95207  1.0000
  H   H4359     1.0  0.74082  0.53080  0.74737  1.0000
  H   H4360     1.0  0.90483  0.42215  0.87989  1.0000
  H   H4361     1.0  0.81251  0.62874  0.88248  1.0000
  N   N181      1.0  0.92995  0.50133  0.56334  1.0000
  C   C2551     1.0  0.93819  0.48922  0.55161  1.0000
  C   C2552     1.0  0.94376  0.51340  0.57087  1.0000
  C   C2553     1.0  0.92346  0.51202  0.54530  1.0000
  C   C2554     1.0  0.91536  0.49048  0.58334  1.0000
  H   H4362     1.0  0.89155  0.52407  0.91863  1.0000
  S   S737      1.0  0.93074  0.49220  0.47506  1.0000
  C   C2555     1.0  0.91519  0.52605  0.55281  1.0000
  H   H4363     1.0  0.88934  0.43022  0.48916  1.0000
  H   H4364     1.0  0.94954  0.49684  0.53742  1.0000
  H   H4365     1.0  0.84415  0.33396  0.71726  1.0000
  H   H4366     1.0  0.74525  0.34785  0.66544  1.0000
  H   H4367     1.0  0.93411  0.51873  0.52979  1.0000
  H   H4368     1.0  0.91353  0.50354  0.53890  1.0000
  C   C2556     1.0  0.90207  0.47046  0.94880  1.0000
  C   C2557     1.0  0.93966  0.62956  0.95151  1.0000
  C   C2558     1.0  0.77887  0.61772  0.84081  1.0000
  H   H4369     1.0  0.91810  0.47809  0.59116  1.0000
  H   H4370     1.0  0.94557  0.49298  0.59969  1.0000
  C   C2559     1.0  0.74005  0.65146  0.62801  1.0000
  H   H4371     1.0  0.92356  0.53535  0.56020  1.0000
  H   H4372     1.0  0.90247  0.52006  0.56483  1.0000
  H   H4373     1.0  0.91270  0.53393  0.53723  1.0000
  S   S738      1.0  0.88554  0.41725  0.94706  1.0000
  H   H4374     1.0  0.88976  0.46030  0.95176  1.0000
  H   H4375     1.0  0.75277  0.64986  0.62023  1.0000
  C   C2560     1.0  0.87575  0.48481  0.91583  1.0000
  N   N182      1.0  0.88970  0.39622  0.88048  1.0000
  N   N183      1.0  0.85578  0.52653  0.80138  1.0000
  C   C2561     1.0  0.86165  0.51951  0.82275  1.0000
  C   C2562     1.0  0.87028  0.54174  0.78683  1.0000
  C   C2563     1.0  0.85235  0.51213  0.78841  1.0000
  C   C2564     1.0  0.83962  0.53185  0.80930  1.0000
  C   C2565     1.0  0.85009  0.50206  0.83852  1.0000
  C   C2566     1.0  0.87518  0.55735  0.79813  1.0000
  C   C2567     1.0  0.85323  0.51759  0.76217  1.0000
  C   C2568     1.0  0.83221  0.54121  0.79036  1.0000
  H   H4376     1.0  0.87473  0.51761  0.81776  1.0000
  H   H4377     1.0  0.86277  0.52899  0.83412  1.0000
  H   H4378     1.0  0.86762  0.54711  0.76995  1.0000
  H   H4379     1.0  0.88210  0.53734  0.78202  1.0000
  H   H4380     1.0  0.86180  0.50421  0.78971  1.0000
  H   H4381     1.0  0.83954  0.50279  0.79644  1.0000
  H   H4382     1.0  0.82905  0.52020  0.81903  1.0000
  H   H4383     1.0  0.84110  0.53998  0.82237  1.0000
  H   H4384     1.0  0.83698  0.50295  0.84560  1.0000
  H   H4385     1.0  0.84945  0.49110  0.82959  1.0000
  H   H4386     1.0  0.85578  0.49870  0.85367  1.0000
  H   H4387     1.0  0.88059  0.55393  0.81349  1.0000
  H   H4388     1.0  0.88545  0.56787  0.78541  1.0000
  H   H4389     1.0  0.86421  0.56290  0.80291  1.0000
  H   H4390     1.0  0.84486  0.52611  0.75805  1.0000
  H   H4391     1.0  0.84897  0.50565  0.75561  1.0000
  H   H4392     1.0  0.86665  0.52399  0.75235  1.0000
  H   H4393     1.0  0.82331  0.53163  0.78389  1.0000
  H   H4394     1.0  0.84206  0.55014  0.77557  1.0000
  H   H4395     1.0  0.82491  0.54973  0.79789  1.0000
  H   H4396     1.0  0.91624  0.37922  0.87013  1.0000
  H   H4397     1.0  0.84217  0.36035  0.77290  1.0000
  H   H4398     1.0  0.80925  0.35747  0.77815  1.0000
  H   H4399     1.0  0.78957  0.59625  0.83407  1.0000
  C   C2569     1.0  0.75904  0.45923  0.64927  1.0000
  C   C2570     1.0  0.76971  0.64341  0.84904  1.0000
  C   C2571     1.0  0.79241  0.61052  0.82695  1.0000
  H   H4400     1.0  0.76295  0.64299  0.83454  1.0000
  H   H4401     1.0  0.92132  0.52303  0.90604  1.0000
  C   C2572     1.0  0.95397  0.50434  0.58616  1.0000
  H   H4402     1.0  0.92967  0.49496  0.89939  1.0000
  C   C2573     1.0  0.79234  0.63512  0.86634  1.0000
  H   H4403     1.0  0.96394  0.50003  0.57534  1.0000
  H   H4404     1.0  0.83762  0.38603  0.76263  1.0000
  C   C2574     1.0  0.74434  0.46461  0.68477  1.0000
  C   C2575     1.0  0.90777  0.63419  0.93334  1.0000
  H   H4405     1.0  0.93846  0.52219  0.58058  1.0000
  H   H4406     1.0  0.78412  0.35363  0.76314  1.0000
  H   H4407     1.0  0.85875  0.41260  0.49547  1.0000
  H   H4408     1.0  0.83734  0.33806  0.76991  1.0000
  C   C2576     1.0  0.74114  0.64510  0.80267  1.0000
  H   H4409     1.0  0.88344  0.44992  0.48199  1.0000
  S   S739      1.0  0.96368  0.52333  0.49125  1.0000
  H   H4410     1.0  0.89560  0.62518  0.94432  1.0000
  H   H4411     1.0  0.76049  0.53102  0.91312  1.0000
  H   H4412     1.0  0.78564  0.63924  0.79722  1.0000
  H   H4413     1.0  0.85020  0.38654  0.73402  1.0000
  N   N184      1.0  0.92573  0.63584  0.96480  1.0000
  S   S740      1.0  0.74842  0.62662  0.79838  1.0000
  C   C2577     1.0  0.89405  0.33699  0.92636  1.0000
  C   C2578     1.0  0.75579  0.63446  0.87147  1.0000
  C   C2579     1.0  0.91764  0.64536  0.94757  1.0000
  H   H4414     1.0  0.80289  0.65872  0.78720  1.0000
  H   H4415     1.0  0.88517  0.48501  0.96171  1.0000
  Fe  Fe367     1.0  0.73715  0.59916  0.82100  1.0000
  Fe  Fe368     1.0  0.94036  0.52049  0.47509  1.0000
  H   H4416     1.0  0.92042  0.50008  0.61437  1.0000
  H   H4417     1.0  0.73861  0.55743  0.95083  1.0000
  C   C2580     1.0  0.97992  0.54286  0.48761  1.0000
  H   H4418     1.0  0.95331  0.52230  0.55537  1.0000
  H   H4419     1.0  0.96574  0.63658  0.95767  1.0000
  H   H4420     1.0  0.80721  0.33685  0.77127  1.0000
  H   H4421     1.0  0.82309  0.33284  0.71248  1.0000
  H   H4422     1.0  0.80243  0.66119  0.82869  1.0000
  H   H4423     1.0  0.96527  0.56030  0.47578  1.0000
  H   H4424     1.0  0.82794  0.34329  0.79578  1.0000
  C   C2581     1.0  0.86391  0.33155  0.92469  1.0000
  H   H4425     1.0  0.75833  0.66177  0.77135  1.0000
  H   H4426     1.0  0.74227  0.51394  0.91371  1.0000
  H   H4427     1.0  0.96726  0.48889  0.47524  1.0000
  C   C2582     1.0  0.73995  0.33925  0.65444  1.0000
  H   H4428     1.0  0.90719  0.61080  0.97038  1.0000
  Fe  Fe369     1.0  0.93673  0.39887  0.96991  1.0000
  C   C2583     1.0  0.73684  0.53919  0.91581  1.0000
  H   H4429     1.0  0.95592  0.66348  0.95247  1.0000
  H   H4430     1.0  0.81496  0.33065  0.66559  1.0000
  S   S741      1.0  0.84357  0.96343  0.41341  1.0000
  S   S742      1.0  0.95011  0.86778  0.98523  1.0000
  C   C2584     1.0  0.93316  0.71668  0.20338  1.0000
  C   C2585     1.0  0.95363  0.80074  0.02290  1.0000
  H   H4431     1.0  0.87874  0.89136  0.01296  1.0000
  C   C2586     1.0  0.97504  0.73514  0.14285  1.0000
  C   C2587     1.0  0.92209  0.97429  0.04892  1.0000
  H   H4432     1.0  0.96090  0.87499  0.35862  1.0000
  H   H4433     1.0  0.97505  0.81076  0.28331  1.0000
  S   S743      1.0  0.85613  0.95763  0.00011  1.0000
  Fe  Fe370     1.0  0.88315  0.97151  0.99999  1.0000
  S   S744      1.0  0.89512  0.96289  0.02961  1.0000
  H   H4434     1.0  0.92532  0.66597  0.18873  1.0000
  H   H4435     1.0  0.91858  0.95846  0.25357  1.0000
  H   H4436     1.0  0.97382  0.74299  0.12693  1.0000
  H   H4437     1.0  0.87204  0.95642  0.38365  1.0000
  C   C2588     1.0  0.89298  0.94169  0.44713  1.0000
  N   N185      1.0  0.90364  0.91019  0.00231  1.0000
  H   H4438     1.0  0.95629  0.95318  0.01020  1.0000
  C   C2589     1.0  0.96047  0.81689  0.00667  1.0000
  H   H4439     1.0  0.96468  0.86211  0.29376  1.0000
  H   H4440     1.0  0.96761  0.96942  0.97078  1.0000
  Fe  Fe371     1.0  0.96633  0.71009  0.28889  1.0000
  S   S745      1.0  0.94430  0.68719  0.31150  1.0000
  S   S746      1.0  0.96262  0.73483  0.26899  1.0000
  Fe  Fe372     1.0  0.95752  0.74011  0.04560  1.0000
  S   S747      1.0  0.96024  0.72230  0.02072  1.0000
  S   S748      1.0  0.94945  0.76571  0.03996  1.0000
  Fe  Fe373     1.0  0.96261  0.71490  0.08678  1.0000
  S   S749      1.0  0.96552  0.69541  0.06488  1.0000
  S   S750      1.0  0.96431  0.70590  0.12480  1.0000
  Fe  Fe374     1.0  0.94321  0.70050  0.05017  1.0000
  H   H4441     1.0  0.93166  0.68370  0.22872  1.0000
  S   S751      1.0  0.93897  0.71845  0.07432  1.0000
  C   C2590     1.0  0.76309  0.96655  0.08986  1.0000
  H   H4442     1.0  0.86915  0.91785  0.00775  1.0000
  H   H4443     1.0  0.88228  0.92725  0.02595  1.0000
  H   H4444     1.0  0.91387  0.68751  0.17474  1.0000
  Fe  Fe375     1.0  0.85519  0.98336  0.97952  1.0000
  H   H4445     1.0  0.95955  0.97548  0.01195  1.0000
  H   H4446     1.0  0.92833  0.89929  0.43316  1.0000
  H   H4447     1.0  0.90517  0.81734  0.99819  1.0000
  C   C2591     1.0  0.97142  0.71700  0.14593  1.0000
  H   H4448     1.0  0.76967  0.97100  0.16334  1.0000
  H   H4449     1.0  0.91003  0.90930  0.04633  1.0000
  C   C2592     1.0  0.76474  0.94765  0.09341  1.0000
  C   C2593     1.0  0.98361  0.83733  0.28727  1.0000
  C   C2594     1.0  0.79216  0.98015  0.09650  1.0000
  H   H4450     1.0  0.77250  0.99485  0.01024  1.0000
  C   C2595     1.0  0.90767  0.67814  0.01108  1.0000
  H   H4451     1.0  0.94668  0.73179  0.22409  1.0000
  H   H4452     1.0  0.91440  0.69186  0.00653  1.0000
  H   H4453     1.0  0.90894  0.77719  0.99291  1.0000
  H   H4454     1.0  0.76947  0.67316  0.44574  1.0000
  S   S752      1.0  0.98097  0.73730  0.05951  1.0000
  C   C2596     1.0  0.95065  0.86958  0.37469  1.0000
  H   H4455     1.0  0.98446  0.92605  0.30526  1.0000
  H   H4456     1.0  0.74911  0.96569  0.09482  1.0000
  H   H4457     1.0  0.97226  0.95542  0.22261  1.0000
  C   C2597     1.0  0.81835  0.96147  0.34557  1.0000
  H   H4458     1.0  0.80687  0.96087  0.41420  1.0000
  C   C2598     1.0  0.88639  0.90227  0.01899  1.0000
  H   H4459     1.0  0.98670  0.81612  0.34885  1.0000
  C   C2599     1.0  0.77677  0.96983  0.02259  1.0000
  C   C2600     1.0  0.78922  0.96042  0.02372  1.0000
  C   C2601     1.0  0.80666  0.96842  0.01305  1.0000
  H   H4460     1.0  0.89482  0.67980  0.98255  1.0000
  H   H4461     1.0  0.78530  0.94678  0.03259  1.0000
  H   H4462     1.0  0.81610  0.96102  0.01386  1.0000
  H   H4463     1.0  0.89338  0.92754  0.98012  1.0000
  C   C2602     1.0  0.98227  0.75701  0.36924  1.0000
  H   H4464     1.0  0.79320  0.98672  0.05795  1.0000
  C   C2603     1.0  0.97688  0.87242  0.28622  1.0000
  H   H4465     1.0  0.81807  0.93798  0.38797  1.0000
  H   H4466     1.0  0.78576  0.98174  0.37064  1.0000
  H   H4467     1.0  0.94942  0.92094  0.40181  1.0000
  H   H4468     1.0  0.91193  0.66446  0.33795  1.0000
  C   C2604     1.0  0.91301  0.99313  0.32346  1.0000
  S   S753      1.0  0.97486  0.77081  0.30469  1.0000
  H   H4469     1.0  0.79545  0.96870  0.10622  1.0000
  C   C2605     1.0  0.90428  0.69542  0.21548  1.0000
  C   C2606     1.0  0.78252  0.96725  0.37419  1.0000
  H   H4470     1.0  0.78974  0.96919  0.33648  1.0000
  C   C2607     1.0  0.90016  0.91715  0.97902  1.0000
  C   C2608     1.0  0.94767  0.85420  0.45775  1.0000
  C   C2609     1.0  0.97231  0.78764  0.00017  1.0000
  C   C2610     1.0  0.90993  0.66733  0.03067  1.0000
  H   H4471     1.0  0.94372  0.79961  0.03802  1.0000
  H   H4472     1.0  0.97687  0.77642  0.99745  1.0000
  C   C2611     1.0  0.80467  0.93219  0.39811  1.0000
  H   H4473     1.0  0.93626  0.98284  0.26415  1.0000
  C   C2612     1.0  0.95947  0.78600  0.01976  1.0000
  H   H4474     1.0  0.92864  0.77727  0.00134  1.0000
  H   H4475     1.0  0.82914  0.95541  0.34701  1.0000
  C   C2613     1.0  0.89650  0.67123  0.99752  1.0000
  C   C2614     1.0  0.92186  0.83875  0.44791  1.0000
  H   H4476     1.0  0.75470  0.99356  0.10482  1.0000
  Fe  Fe376     1.0  0.88380  0.84834  0.46841  1.0000
  C   C2615     1.0  0.95797  0.84882  0.44070  1.0000
  C   C2616     1.0  0.95016  0.83833  0.42729  1.0000
  C   C2617     1.0  0.93213  0.83316  0.43107  1.0000
  H   H4477     1.0  0.89071  0.69357  0.25089  1.0000
  H   H4478     1.0  0.95799  0.83389  0.41438  1.0000
  H   H4479     1.0  0.92613  0.82479  0.42094  1.0000
  C   C2618     1.0  0.85203  0.94523  0.41465  1.0000
  C   C2619     1.0  0.86610  0.94512  0.39782  1.0000
  H   H4480     1.0  0.89644  0.98732  0.45109  1.0000
  H   H4481     1.0  0.91524  0.93140  0.45240  1.0000
  Fe  Fe377     1.0  0.98443  0.99677  0.28471  1.0000
  S   S754      1.0  0.89930  0.83169  0.45266  1.0000
  C   C2620     1.0  0.93796  0.71855  0.22666  1.0000
  H   H4482     1.0  0.95592  0.82810  0.00941  1.0000
  S   S755      1.0  0.87347  0.89748  0.41922  1.0000
  H   H4483     1.0  0.97002  0.97109  0.19917  1.0000
  N   N186      1.0  0.88962  0.94936  0.46809  1.0000
  C   C2621     1.0  0.98126  0.73321  0.18171  1.0000
  C   C2622     1.0  0.91607  0.87925  0.40400  1.0000
  C   C2623     1.0  0.92968  0.84945  0.46108  1.0000
  C   C2624     1.0  0.90879  0.99636  0.03364  1.0000
  C   C2625     1.0  0.92923  0.89514  0.38659  1.0000
  H   H4484     1.0  0.89179  0.97616  0.42824  1.0000
  H   H4485     1.0  0.89968  0.70743  0.21270  1.0000
  C   C2626     1.0  0.81170  0.98582  0.00065  1.0000
  H   H4486     1.0  0.77826  0.94701  0.09116  1.0000
  H   H4487     1.0  0.89565  0.68577  0.20865  1.0000
  H   H4488     1.0  0.84186  0.80193  0.44851  1.0000
  C   C2627     1.0  0.94737  0.99044  0.20379  1.0000
  H   H4489     1.0  0.97630  0.75055  0.38767  1.0000
  C   C2628     1.0  0.78196  0.98747  0.01129  1.0000
  H   H4490     1.0  0.78991  0.93596  0.37248  1.0000
  C   C2629     1.0  0.91701  0.88653  0.02124  1.0000
  H   H4491     1.0  0.89446  0.67359  0.24628  1.0000
  C   C2630     1.0  0.90046  0.68790  0.24202  1.0000
  C   C2631     1.0  0.90934  0.97893  0.03831  1.0000
  S   S756      1.0  0.95759  0.98077  0.30295  1.0000
  C   C2632     1.0  0.92803  0.67241  0.30338  1.0000
  H   H4492     1.0  0.76798  0.96818  0.34730  1.0000
  H   H4493     1.0  0.91578  0.71271  0.14627  1.0000
  H   H4494     1.0  0.91150  0.69053  0.25025  1.0000
  C   C2633     1.0  0.97310  0.70708  0.16681  1.0000
  N   N187      1.0  0.92262  0.69907  0.20212  1.0000
  H   H4495     1.0  0.91847  0.79374  0.00721  1.0000
  H   H4496     1.0  0.86012  0.79273  0.44795  1.0000
  H   H4497     1.0  0.96806  0.79473  0.33272  1.0000
  C   C2634     1.0  0.93382  0.98584  0.24638  1.0000
  H   H4498     1.0  0.98288  0.97766  0.21930  1.0000
  H   H4499     1.0  0.92401  0.97172  0.33289  1.0000
  H   H4500     1.0  0.94383  0.88670  0.43754  1.0000
  H   H4501     1.0  0.92251  0.87586  0.01680  1.0000
  H   H4502     1.0  0.90466  0.88586  0.99248  1.0000
  H   H4503     1.0  0.75925  0.94142  0.08032  1.0000
  C   C2635     1.0  0.97791  0.71508  0.18465  1.0000
  C   C2636     1.0  0.92967  0.66977  0.28078  1.0000
  H   H4504     1.0  0.92712  0.89533  0.02695  1.0000
  H   H4505     1.0  0.83341  0.93053  0.44593  1.0000
  N   N188      1.0  0.94789  0.89781  0.38774  1.0000
  C   C2637     1.0  0.95907  0.90838  0.36450  1.0000
  C   C2638     1.0  0.95295  0.88090  0.39269  1.0000
  C   C2639     1.0  0.95208  0.90796  0.40575  1.0000
  C   C2640     1.0  0.77298  0.97980  0.14578  1.0000
  C   C2641     1.0  0.95716  0.92700  0.35657  1.0000
  H   H4506     1.0  0.90712  0.93098  0.04351  1.0000
  H   H4507     1.0  0.97294  0.90965  0.36436  1.0000
  H   H4508     1.0  0.95644  0.90168  0.35033  1.0000
  H   H4509     1.0  0.94579  0.87253  0.40979  1.0000
  H   H4510     1.0  0.96668  0.88345  0.39394  1.0000
  C   C2642     1.0  0.85452  0.80309  0.45320  1.0000
  C   C2643     1.0  0.97091  0.96889  0.21763  1.0000
  H   H4511     1.0  0.88316  0.93009  0.38602  1.0000
  S   S757      1.0  0.89304  0.87724  0.46425  1.0000
  H   H4512     1.0  0.78612  0.67056  0.41251  1.0000
  Fe  Fe378     1.0  0.85753  0.98910  0.38813  1.0000
  H   H4513     1.0  0.95136  0.67255  0.97731  1.0000
  C   C2644     1.0  0.92605  0.98443  0.32170  1.0000
  H   H4514     1.0  0.94118  0.97781  0.19993  1.0000
  H   H4515     1.0  0.94430  0.95925  0.23347  1.0000
  C   C2645     1.0  0.97310  0.81843  0.98689  1.0000
  H   H4516     1.0  0.86434  0.90865  0.03811  1.0000
  N   N189      1.0  0.77300  0.97797  0.10298  1.0000
  H   H4517     1.0  0.90567  0.88025  0.03571  1.0000
  H   H4518     1.0  0.96400  0.93229  0.33807  1.0000
  H   H4519     1.0  0.94481  0.68874  0.20084  1.0000
  C   C2646     1.0  0.87808  0.96120  0.46376  1.0000
  C   C2647     1.0  0.87509  0.91491  0.02271  1.0000
  C   C2648     1.0  0.80031  0.98188  0.07056  1.0000
  C   C2649     1.0  0.80092  0.98519  0.40608  1.0000
  H   H4520     1.0  0.92849  0.92754  0.00011  1.0000
  H   H4521     1.0  0.78444  0.95903  0.41925  1.0000
  H   H4522     1.0  0.92766  0.89342  0.36901  1.0000
  H   H4523     1.0  0.82311  0.97234  0.32982  1.0000
  H   H4524     1.0  0.92545  0.82335  0.00626  1.0000
  H   H4525     1.0  0.93794  0.86796  0.37023  1.0000
  H   H4526     1.0  0.90460  0.71608  0.17282  1.0000
  C   C2650     1.0  0.76885  0.99540  0.09922  1.0000
  C   C2651     1.0  0.85074  0.91570  0.43445  1.0000
  H   H4527     1.0  0.89811  0.79888  0.97842  1.0000
  H   H4528     1.0  0.93827  0.96185  0.01393  1.0000
  H   H4529     1.0  0.84478  0.90438  0.44859  1.0000
  H   H4530     1.0  0.76663  0.97215  0.07097  1.0000
  C   C2652     1.0  0.91257  0.89602  0.99943  1.0000
  H   H4531     1.0  0.90634  0.97376  0.25725  1.0000
  H   H4532     1.0  0.97914  0.83214  0.30644  1.0000
  H   H4533     1.0  0.91990  0.87444  0.42016  1.0000
  C   C2653     1.0  0.98657  0.82206  0.27632  1.0000
  H   H4534     1.0  0.80193  0.98698  0.42375  1.0000
  H   H4535     1.0  0.86315  0.81577  0.44269  1.0000
  H   H4536     1.0  0.94720  0.90812  0.44242  1.0000
  C   C2654     1.0  0.97664  0.92762  0.01362  1.0000
  C   C2655     1.0  0.79172  0.94091  0.38813  1.0000
  H   H4537     1.0  0.92800  0.92782  0.03779  1.0000
  H   H4538     1.0  0.82358  0.95512  0.97288  1.0000
  H   H4539     1.0  0.90394  0.88289  0.40942  1.0000
  S   S758      1.0  0.75484  0.95860  0.03386  1.0000
  Fe  Fe379     1.0  0.86832  0.87785  0.45328  1.0000
  H   H4540     1.0  0.81347  0.99248  0.39436  1.0000
  C   C2656     1.0  0.91713  0.71493  0.16369  1.0000
  C   C2657     1.0  0.92285  0.66669  0.20727  1.0000
  C   C2658     1.0  0.79933  0.99538  0.00023  1.0000
  H   H4541     1.0  0.97185  0.92585  0.05054  1.0000
  H   H4542     1.0  0.80437  0.92994  0.00383  1.0000
  H   H4543     1.0  0.93560  0.70003  0.16689  1.0000
  H   H4544     1.0  0.98104  0.73285  0.35967  1.0000
  C   C2659     1.0  0.87233  0.93020  0.39915  1.0000
  C   C2660     1.0  0.84434  0.93050  0.43291  1.0000
  H   H4545     1.0  0.80779  0.95189  0.34201  1.0000
  H   H4546     1.0  0.92472  0.97844  0.98803  1.0000
  H   H4547     1.0  0.97057  0.69306  0.16926  1.0000
  H   H4548     1.0  0.88145  0.78334  0.46553  1.0000
  N   N190      1.0  0.94982  0.98744  0.22840  1.0000
  C   C2661     1.0  0.93112  0.68509  0.21024  1.0000
  H   H4549     1.0  0.91245  0.86825  0.39550  1.0000
  N   N191      1.0  0.79640  0.96059  0.38336  1.0000
  C   C2662     1.0  0.79687  0.96549  0.40646  1.0000
  C   C2663     1.0  0.97902  0.80375  0.98380  1.0000
  C   C2664     1.0  0.98000  0.74316  0.16058  1.0000
  C   C2665     1.0  0.81372  0.96899  0.36714  1.0000
  H   H4550     1.0  0.79067  0.99113  0.40148  1.0000
  C   C2666     1.0  0.95203  0.96512  0.00516  1.0000
  C   C2667     1.0  0.91772  0.97173  0.24606  1.0000
  Fe  Fe380     1.0  0.98606  0.73508  0.24262  1.0000
  C   C2668     1.0  0.92261  0.69959  0.17680  1.0000
  H   H4551     1.0  0.86677  0.95440  0.45783  1.0000
  H   H4552     1.0  0.97244  0.84048  0.28109  1.0000
  H   H4553     1.0  0.91106  0.93725  0.00427  1.0000
  H   H4554     1.0  0.82406  0.96833  0.37682  1.0000
  H   H4555     1.0  0.74907  0.66727  0.43740  1.0000
  H   H4556     1.0  0.88755  0.89614  0.03642  1.0000
  H   H4557     1.0  0.94358  0.92726  0.35768  1.0000
  H   H4558     1.0  0.92712  0.72746  0.16055  1.0000
  H   H4559     1.0  0.80413  0.93269  0.41657  1.0000
  C   C2669     1.0  0.77873  0.96278  0.35141  1.0000
  H   H4560     1.0  0.97154  0.75917  0.36105  1.0000
  H   H4561     1.0  0.92660  0.71781  0.24023  1.0000
  H   H4562     1.0  0.78539  0.93941  0.98664  1.0000
  C   C2670     1.0  0.95437  0.96981  0.97855  1.0000
  H   H4563     1.0  0.80258  0.96932  0.06759  1.0000
  H   H4564     1.0  0.92646  0.72697  0.19908  1.0000
  H   H4565     1.0  0.94562  0.95858  0.97455  1.0000
  H   H4566     1.0  0.91436  0.96887  0.45545  1.0000
  Fe  Fe381     1.0  0.96745  0.89378  0.98521  1.0000
  H   H4567     1.0  0.94524  0.70930  0.23274  1.0000
  C   C2671     1.0  0.86475  0.91552  0.41754  1.0000
  H   H4568     1.0  0.94543  0.72067  0.19004  1.0000
  H   H4569     1.0  0.77000  0.95670  0.13251  1.0000
  Fe  Fe382     1.0  0.98234  0.71796  0.03680  1.0000
  C   C2672     1.0  0.76649  0.96927  0.12850  1.0000
  H   H4570     1.0  0.92233  0.96076  0.05311  1.0000
  H   H4571     1.0  0.95183  0.85637  0.38189  1.0000
  C   C2673     1.0  0.88641  0.97843  0.44536  1.0000
  H   H4572     1.0  0.96333  0.93607  0.36638  1.0000
  S   S759      1.0  0.92363  0.67520  0.04887  1.0000
  C   C2674     1.0  0.95481  0.97049  0.23399  1.0000
  S   S760      1.0  0.96568  0.90555  0.01677  1.0000
  H   H4573     1.0  0.77015  0.96247  0.38747  1.0000
  H   H4574     1.0  0.75719  0.93970  0.11071  1.0000
  H   H4575     1.0  0.77450  0.94857  0.35255  1.0000
  H   H4576     1.0  0.82613  0.92891  0.99769  1.0000
  H   H4577     1.0  0.80130  0.91814  0.39768  1.0000
  H   H4578     1.0  0.94462  0.80299  0.97283  1.0000
  H   H4579     1.0  0.95690  0.96798  0.25206  1.0000
  H   H4580     1.0  0.94100  0.67714  0.26759  1.0000
  H   H4581     1.0  0.96607  0.91053  0.40558  1.0000
  H   H4582     1.0  0.81167  0.66543  0.39217  1.0000
  H   H4583     1.0  0.88081  0.93651  0.44206  1.0000
  H   H4584     1.0  0.77899  0.93534  0.40055  1.0000
  C   C2675     1.0  0.94215  0.89976  0.43101  1.0000
  H   H4585     1.0  0.94497  0.98351  0.06105  1.0000
  S   S761      1.0  0.98043  0.98787  0.06773  1.0000
  C   C2676     1.0  0.91469  0.92278  0.03574  1.0000
  C   C2677     1.0  0.98175  0.79603  0.32949  1.0000
  H   H4586     1.0  0.97868  0.87653  0.26715  1.0000
  C   C2678     1.0  0.91486  0.92495  0.00951  1.0000
  H   H4587     1.0  0.93871  0.99142  0.00087  1.0000
  C   C2679     1.0  0.92108  0.78596  0.99429  1.0000
  C   C2680     1.0  0.93497  0.98716  0.05336  1.0000
  S   S762      1.0  0.98047  0.85507  0.43706  1.0000
  H   H4588     1.0  0.87640  0.98538  0.44268  1.0000
  H   H4589     1.0  0.92491  0.90700  0.38887  1.0000
  H   H4590     1.0  0.90091  0.95195  0.43174  1.0000
  C   C2681     1.0  0.91806  0.82654  0.99300  1.0000
  H   H4591     1.0  0.91518  0.97229  0.22847  1.0000
  H   H4592     1.0  0.81084  0.91486  0.98722  1.0000
  H   H4593     1.0  0.97534  0.88390  0.29339  1.0000
  C   C2682     1.0  0.90215  0.92695  0.44950  1.0000
  C   C2683     1.0  0.93604  0.99001  0.98380  1.0000
  S   S763      1.0  0.85989  0.84901  0.45531  1.0000
  C   C2684     1.0  0.81453  0.92817  0.99035  1.0000
  H   H4594     1.0  0.89140  0.90670  0.97350  1.0000
  H   H4595     1.0  0.89459  0.91542  0.46336  1.0000
  H   H4596     1.0  0.81518  0.98318  0.36075  1.0000
  H   H4597     1.0  0.92503  0.90130  0.98652  1.0000
  H   H4598     1.0  0.79917  0.99170  0.10195  1.0000
  H   H4599     1.0  0.90353  0.92238  0.43303  1.0000
  H   H4600     1.0  0.75222  0.96576  0.13334  1.0000
  H   H4601     1.0  0.98262  0.75720  0.15804  1.0000
  H   H4602     1.0  0.78710  0.98538  0.14110  1.0000
  H   H4603     1.0  0.79667  0.96145  0.97431  1.0000
  C   C2685     1.0  0.97778  0.93427  0.03353  1.0000
  H   H4604     1.0  0.98324  0.93375  0.97623  1.0000
  H   H4605     1.0  0.92416  0.99590  0.19399  1.0000
  C   C2686     1.0  0.98422  0.93867  0.99170  1.0000
  H   H4606     1.0  0.90096  0.98716  0.33600  1.0000
  H   H4607     1.0  0.81325  0.99124  0.06592  1.0000
  H   H4608     1.0  0.91578  0.83952  0.99367  1.0000
  H   H4609     1.0  0.96011  0.99533  0.19126  1.0000
  S   S764      1.0  0.98304  0.72466  0.30900  1.0000
  S   S765      1.0  0.83298  0.99591  0.98439  1.0000
  H   H4610     1.0  0.97899  0.70725  0.20066  1.0000
  S   S766      1.0  0.77626  0.99574  0.29109  1.0000
  H   H4611     1.0  0.95364  0.86216  0.46835  1.0000
  Fe  Fe383     1.0  0.98119  0.74938  0.28708  1.0000
  C   C2687     1.0  0.94172  0.99217  0.30556  1.0000
  H   H4612     1.0  0.76639  0.99028  0.14748  1.0000
  H   H4613     1.0  0.76736  0.95679  0.97080  1.0000
  Fe  Fe384     1.0  0.87741  0.87298  0.50034  1.0000
  H   H4614     1.0  0.87774  0.94121  0.50488  1.0000
  S   S767      1.0  0.88478  0.88580  0.52913  1.0000
  Fe  Fe385     1.0  0.84678  0.84627  0.49254  1.0000
  C   C2688     1.0  0.88082  0.93534  0.48975  1.0000
  S   S768      1.0  0.82273  0.82636  0.51638  1.0000
  H   H4615     1.0  0.74495  0.75131  0.62149  1.0000
  H   H4616     1.0  0.80290  0.95494  0.92047  1.0000
  H   H4617     1.0  0.77584  0.79458  0.74597  1.0000
  H   H4618     1.0  0.92054  0.93517  0.66349  1.0000
  S   S769      1.0  0.87040  0.84377  0.50573  1.0000
  S   S770      1.0  0.85307  0.87552  0.48934  1.0000
  S   S771      1.0  0.91892  0.88016  0.94680  1.0000
  Fe  Fe386     1.0  0.95760  0.96321  0.54322  1.0000
  H   H4619     1.0  0.86784  0.80703  0.51728  1.0000
  S   S772      1.0  0.94636  0.95327  0.51449  1.0000
  Fe  Fe387     1.0  0.95891  0.97079  0.59144  1.0000
  S   S773      1.0  0.95147  0.98459  0.56009  1.0000
  S   S774      1.0  0.96235  0.94805  0.57564  1.0000
  Fe  Fe388     1.0  0.96518  0.96773  0.77915  1.0000
  S   S775      1.0  0.95393  0.93961  0.79819  1.0000
  C   C2689     1.0  0.81728  0.76041  0.50836  1.0000
  H   H4620     1.0  0.95196  0.95885  0.71879  1.0000
  H   H4621     1.0  0.75391  0.66825  0.64585  1.0000
  S   S776      1.0  0.86454  0.97772  0.94466  1.0000
  Fe  Fe389     1.0  0.84728  0.88509  0.85627  1.0000
  S   S777      1.0  0.84057  0.88138  0.82252  1.0000
  S   S778      1.0  0.84185  0.90852  0.86878  1.0000
  Fe  Fe390     1.0  0.86577  0.85633  0.85852  1.0000
  S   S779      1.0  0.86080  0.85048  0.82456  1.0000
  S   S780      1.0  0.88259  0.84275  0.87710  1.0000
  Fe  Fe391     1.0  0.86766  0.87971  0.81227  1.0000
  S   S781      1.0  0.88503  0.89712  0.77919  1.0000
  Fe  Fe392     1.0  0.83393  0.85246  0.83768  1.0000
  S   S782      1.0  0.80797  0.83475  0.83647  1.0000
  S   S783      1.0  0.87475  0.88520  0.84495  1.0000
  S   S784      1.0  0.83849  0.85636  0.87285  1.0000
  H   H4622     1.0  0.97955  0.98012  0.63118  1.0000
  C   C2690     1.0  0.90660  0.95918  0.47151  1.0000
  H   H4623     1.0  0.91522  0.91224  0.67773  1.0000
  H   H4624     1.0  0.91164  0.93133  0.94339  1.0000
  C   C2691     1.0  0.92228  0.93955  0.71327  1.0000
  Fe  Fe393     1.0  0.75560  0.75817  0.78115  1.0000
  S   S785      1.0  0.78166  0.77388  0.78526  1.0000
  H   H4625     1.0  0.85363  0.76666  0.47674  1.0000
  H   H4626     1.0  0.82764  0.97768  0.94368  1.0000
  N   N192      1.0  0.95093  0.98681  0.96807  1.0000
  H   H4627     1.0  0.90629  0.95912  0.50822  1.0000
  S   S786      1.0  0.75777  0.73504  0.76557  1.0000
  H   H4628     1.0  0.76394  0.70550  0.59905  1.0000
  H   H4629     1.0  0.83468  0.82067  0.69235  1.0000
  H   H4630     1.0  0.76319  0.79718  0.71185  1.0000
  H   H4631     1.0  0.94599  0.95748  0.84078  1.0000
  H   H4632     1.0  0.77361  0.82361  0.73489  1.0000
  H   H4633     1.0  0.82360  0.95277  0.92245  1.0000
  Fe  Fe394     1.0  0.98419  0.90101  0.93418  1.0000
  H   H4634     1.0  0.75967  0.76141  0.65142  1.0000
  C   C2692     1.0  0.77592  0.80421  0.70003  1.0000
  N   N193      1.0  0.84581  0.78509  0.49552  1.0000
  C   C2693     1.0  0.80097  0.81833  0.82128  1.0000
  C   C2694     1.0  0.81239  0.81311  0.80551  1.0000
  C   C2695     1.0  0.80621  0.79955  0.79467  1.0000
  C   C2696     1.0  0.78853  0.79118  0.79913  1.0000
  C   C2697     1.0  0.77708  0.79662  0.81456  1.0000
  C   C2698     1.0  0.78329  0.81002  0.82564  1.0000
  H   H4635     1.0  0.82596  0.81955  0.80158  1.0000
  H   H4636     1.0  0.81519  0.79552  0.78272  1.0000
  H   H4637     1.0  0.76346  0.79034  0.81824  1.0000
  H   H4638     1.0  0.77431  0.81395  0.83773  1.0000
  C   C2699     1.0  0.85875  0.92184  0.93337  1.0000
  C   C2700     1.0  0.85860  0.90543  0.92857  1.0000
  C   C2701     1.0  0.85412  0.90143  0.90825  1.0000
  C   C2702     1.0  0.84943  0.91373  0.89293  1.0000
  C   C2703     1.0  0.85011  0.93034  0.89735  1.0000
  C   C2704     1.0  0.85492  0.93445  0.91745  1.0000
  H   H4639     1.0  0.86162  0.89565  0.94082  1.0000
  H   H4640     1.0  0.85366  0.88862  0.90488  1.0000
  H   H4641     1.0  0.84660  0.93991  0.88539  1.0000
  H   H4642     1.0  0.85517  0.94718  0.92091  1.0000
  C   C2705     1.0  0.93451  0.92824  0.79315  1.0000
  C   C2706     1.0  0.92812  0.91036  0.80322  1.0000
  C   C2707     1.0  0.91269  0.90086  0.79945  1.0000
  C   C2708     1.0  0.90357  0.90922  0.78557  1.0000
  C   C2709     1.0  0.90968  0.92720  0.77606  1.0000
  C   C2710     1.0  0.92520  0.93672  0.77971  1.0000
  H   H4643     1.0  0.93520  0.90377  0.81380  1.0000
  H   H4644     1.0  0.90800  0.88697  0.80691  1.0000
  H   H4645     1.0  0.90230  0.93376  0.76600  1.0000
  H   H4646     1.0  0.92992  0.95059  0.77221  1.0000
  C   C2711     1.0  0.90577  0.96816  0.49220  1.0000
  C   C2712     1.0  0.78671  0.82227  0.73560  1.0000
  H   H4647     1.0  0.92550  0.93590  0.96264  1.0000
  H   H4648     1.0  0.81419  0.77674  0.71052  1.0000
  C   C2713     1.0  0.90980  0.87062  0.92601  1.0000
  C   C2714     1.0  0.91786  0.86069  0.91314  1.0000
  C   C2715     1.0  0.90956  0.85239  0.89784  1.0000
  C   C2716     1.0  0.89341  0.85435  0.89491  1.0000
  C   C2717     1.0  0.88568  0.86479  0.90719  1.0000
  C   C2718     1.0  0.89374  0.87269  0.92290  1.0000
  H   H4649     1.0  0.93033  0.85923  0.91520  1.0000
  H   H4650     1.0  0.91567  0.84445  0.88822  1.0000
  H   H4651     1.0  0.87323  0.86638  0.90509  1.0000
  H   H4652     1.0  0.88745  0.88040  0.93275  1.0000
  S   S787      1.0  0.75881  0.76705  0.50795  1.0000
  Fe  Fe395     1.0  0.89094  0.99034  0.94877  1.0000
  H   H4653     1.0  0.89752  0.94535  0.71466  1.0000
  H   H4654     1.0  0.92785  0.95206  0.70021  1.0000
  H   H4655     1.0  0.89420  0.97296  0.49581  1.0000
  H   H4656     1.0  0.96070  0.96711  0.93432  1.0000
  C   C2719     1.0  0.80482  0.81031  0.51345  1.0000
  C   C2720     1.0  0.80079  0.80916  0.49197  1.0000
  C   C2721     1.0  0.78668  0.79586  0.49067  1.0000
  C   C2722     1.0  0.77631  0.78366  0.51076  1.0000
  C   C2723     1.0  0.78033  0.78487  0.53222  1.0000
  C   C2724     1.0  0.79448  0.79810  0.53352  1.0000
  C   C2725     1.0  0.77532  0.80032  0.67586  1.0000
  H   H4657     1.0  0.83053  0.94096  0.95639  1.0000
  H   H4658     1.0  0.77250  0.77565  0.54783  1.0000
  H   H4659     1.0  0.79740  0.79892  0.55024  1.0000
  C   C2726     1.0  0.93017  0.93359  0.51944  1.0000
  C   C2727     1.0  0.92795  0.92565  0.50077  1.0000
  C   C2728     1.0  0.91441  0.91065  0.50364  1.0000
  C   C2729     1.0  0.90280  0.90371  0.52513  1.0000
  C   C2730     1.0  0.90521  0.91149  0.54387  1.0000
  C   C2731     1.0  0.91890  0.92633  0.54109  1.0000
  H   H4660     1.0  0.98584  0.94949  0.82189  1.0000
  H   H4661     1.0  0.75732  0.69031  0.66406  1.0000
  H   H4662     1.0  0.89632  0.90612  0.56056  1.0000
  H   H4663     1.0  0.92048  0.93237  0.55556  1.0000
  S   S788      1.0  0.94371  0.96814  0.62804  1.0000
  C   C2732     1.0  0.92214  0.90829  0.72092  1.0000
  H   H4664     1.0  0.80219  0.90386  0.93701  1.0000
  N   N194      1.0  0.90833  0.93879  0.85613  1.0000
  C   C2733     1.0  0.91975  0.92700  0.86149  1.0000
  C   C2734     1.0  0.91918  0.95474  0.83803  1.0000
  C   C2735     1.0  0.89459  0.92890  0.84603  1.0000
  C   C2736     1.0  0.90050  0.94307  0.87846  1.0000
  C   C2737     1.0  0.91061  0.90889  0.87763  1.0000
  C   C2738     1.0  0.93582  0.96439  0.84396  1.0000
  C   C2739     1.0  0.88274  0.93901  0.83590  1.0000
  C   C2740     1.0  0.89566  0.96061  0.87653  1.0000
  H   H4665     1.0  0.92689  0.92478  0.84516  1.0000
  H   H4666     1.0  0.92976  0.93317  0.87002  1.0000
  H   H4667     1.0  0.91186  0.96450  0.83419  1.0000
  H   H4668     1.0  0.92305  0.95119  0.82116  1.0000
  H   H4669     1.0  0.90052  0.92338  0.83188  1.0000
  H   H4670     1.0  0.88581  0.91758  0.85941  1.0000
  H   H4671     1.0  0.88871  0.93262  0.88803  1.0000
  H   H4672     1.0  0.90931  0.94330  0.89065  1.0000
  H   H4673     1.0  0.90323  0.90013  0.86846  1.0000
  H   H4674     1.0  0.93896  0.67455  0.95591  1.0000
  H   H4675     1.0  0.90201  0.90974  0.89361  1.0000
  H   H4676     1.0  0.93672  0.93115  0.48402  1.0000
  H   H4677     1.0  0.95287  0.97865  0.91213  1.0000
  S   S789      1.0  0.74187  0.76835  0.75465  1.0000
  H   H4678     1.0  0.87441  0.93036  0.82753  1.0000
  H   H4679     1.0  0.88980  0.95081  0.82219  1.0000
  H   H4680     1.0  0.87386  0.94208  0.84973  1.0000
  H   H4681     1.0  0.97671  0.95937  0.85572  1.0000
  H   H4682     1.0  0.88861  0.96111  0.89388  1.0000
  C   C2741     1.0  0.74315  0.69820  0.63762  1.0000
  H   H4683     1.0  0.95790  0.82561  0.90840  1.0000
  H   H4684     1.0  0.91004  0.90461  0.71499  1.0000
  C   C2742     1.0  0.94308  0.98095  0.66741  1.0000
  H   H4685     1.0  0.77541  0.77294  0.72392  1.0000
  C   C2743     1.0  0.78827  0.78047  0.71296  1.0000
  H   H4686     1.0  0.75662  0.71252  0.65929  1.0000
  C   C2744     1.0  0.80165  0.77283  0.72319  1.0000
  H   H4687     1.0  0.94633  0.94246  0.67501  1.0000
  H   H4688     1.0  0.88721  0.96237  0.86437  1.0000
  C   C2745     1.0  0.76094  0.68420  0.58254  1.0000
  H   H4689     1.0  0.94222  0.99183  0.69788  1.0000
  H   H4690     1.0  0.83479  0.79570  0.52341  1.0000
  C   C2746     1.0  0.74156  0.74277  0.68042  1.0000
  H   H4691     1.0  0.82041  0.78718  0.49225  1.0000
  H   H4692     1.0  0.80321  0.77609  0.73996  1.0000
  H   H4693     1.0  0.88233  0.81107  0.95372  1.0000
  H   H4694     1.0  0.77982  0.96084  0.94192  1.0000
  H   H4695     1.0  0.91284  0.90455  0.48925  1.0000
  C   C2747     1.0  0.93118  0.89373  0.71812  1.0000
  H   H4696     1.0  0.87236  0.96453  0.48004  1.0000
  H   H4697     1.0  0.91787  0.90728  0.73990  1.0000
  C   C2748     1.0  0.93322  0.81632  0.93322  1.0000
  Fe  Fe396     1.0  0.94599  0.88155  0.95152  1.0000
  H   H4698     1.0  0.93332  0.78788  0.95919  1.0000
  C   C2749     1.0  0.95909  0.94967  0.71295  1.0000
  H   H4699     1.0  0.80726  0.98067  0.93891  1.0000
  C   C2750     1.0  0.74344  0.67620  0.78948  1.0000
  H   H4700     1.0  0.81969  0.91502  0.94725  1.0000
  C   C2751     1.0  0.78787  0.80361  0.73444  1.0000
  C   C2752     1.0  0.95038  0.98899  0.68363  1.0000
  H   H4701     1.0  0.95686  0.92250  0.71544  1.0000
  C   C2753     1.0  0.73980  0.74504  0.63967  1.0000
  H   H4702     1.0  0.97088  0.99003  0.92117  1.0000
  H   H4703     1.0  0.77065  0.78614  0.67692  1.0000
  H   H4704     1.0  0.95919  0.81313  0.93538  1.0000
  H   H4705     1.0  0.76776  0.93883  0.95743  1.0000
  H   H4706     1.0  0.92185  0.88091  0.72665  1.0000
  C   C2754     1.0  0.79683  0.92564  0.95104  1.0000
  S   S790      1.0  0.86275  0.92576  0.96001  1.0000
  H   H4707     1.0  0.92185  0.85368  0.47426  1.0000
  S   S791      1.0  0.75240  0.75059  0.70113  1.0000
  H   H4708     1.0  0.97655  0.92184  0.82973  1.0000
  H   H4709     1.0  0.81187  0.76270  0.52549  1.0000
  C   C2755     1.0  0.85678  0.77274  0.49126  1.0000
  H   H4710     1.0  0.94377  0.92714  0.73924  1.0000
  S   S792      1.0  0.95275  0.98855  0.76618  1.0000
  H   H4711     1.0  0.85887  0.91299  0.50533  1.0000
  H   H4712     1.0  0.89582  0.92361  0.72937  1.0000
  H   H4713     1.0  0.90720  0.97190  0.87143  1.0000
  H   H4714     1.0  0.78904  0.82480  0.75255  1.0000
  C   C2756     1.0  0.90550  0.80412  0.96025  1.0000
  H   H4715     1.0  0.84465  0.81164  0.48360  1.0000
  H   H4716     1.0  0.96473  0.95408  0.69404  1.0000
  C   C2757     1.0  0.76020  0.69098  0.60504  1.0000
  H   H4717     1.0  0.93375  0.96588  0.86215  1.0000
  H   H4718     1.0  0.83719  0.77443  0.53274  1.0000
  S   S793      1.0  0.97948  0.98342  0.80011  1.0000
  H   H4719     1.0  0.88951  0.92728  0.49475  1.0000
  C   C2758     1.0  0.86387  0.92287  0.48860  1.0000
  H   H4720     1.0  0.86768  0.78480  0.52992  1.0000
  H   H4721     1.0  0.92299  0.94303  0.73023  1.0000
  C   C2759     1.0  0.97869  0.99102  0.66161  1.0000
  H   H4722     1.0  0.74919  0.68842  0.77684  1.0000
  C   C2760     1.0  0.94795  0.93057  0.71989  1.0000
  H   H4723     1.0  0.77450  0.68769  0.57269  1.0000
  H   H4724     1.0  0.82452  0.75040  0.51055  1.0000
  S   S794      1.0  0.74310  0.72545  0.56159  1.0000
  H   H4725     1.0  0.94206  0.89462  0.72692  1.0000
  S   S795      1.0  0.89456  0.96517  0.96698  1.0000
  C   C2761     1.0  0.97136  0.98267  0.64563  1.0000
  H   H4726     1.0  0.77669  0.81836  0.69782  1.0000
  C   C2762     1.0  0.84349  0.78715  0.52028  1.0000
  H   H4727     1.0  0.82158  0.82422  0.71706  1.0000
  C   C2763     1.0  0.82282  0.81460  0.70621  1.0000
  C   C2764     1.0  0.75794  0.70178  0.65035  1.0000
  H   H4728     1.0  0.90016  0.81976  0.92965  1.0000
  N   N195      1.0  0.93262  0.92664  0.70902  1.0000
  H   H4729     1.0  0.81111  0.80362  0.68078  1.0000
  H   H4730     1.0  0.79624  0.83241  0.72156  1.0000
  C   C2765     1.0  0.91599  0.92538  0.95868  1.0000
  C   C2766     1.0  0.85990  0.79437  0.52843  1.0000
  H   H4731     1.0  0.79825  0.80112  0.74311  1.0000
  N   N196      1.0  0.79030  0.79981  0.71055  1.0000
  H   H4732     1.0  0.85616  0.79672  0.54608  1.0000
  H   H4733     1.0  0.80635  0.82319  0.68549  1.0000
  H   H4734     1.0  0.93308  0.97542  0.94872  1.0000
  H   H4735     1.0  0.74354  0.71098  0.62655  1.0000
  H   H4736     1.0  0.90027  0.92960  0.69795  1.0000
  H   H4737     1.0  0.76596  0.80645  0.66862  1.0000
  H   H4738     1.0  0.92928  0.97749  0.66940  1.0000
  S   S796      1.0  0.98541  0.97765  0.52916  1.0000
  C   C2767     1.0  0.96825  0.99415  0.68075  1.0000
  H   H4739     1.0  0.94920  0.92153  0.67977  1.0000
  C   C2768     1.0  0.94576  0.98517  0.94543  1.0000
  N   N197      1.0  0.83536  0.79820  0.88054  1.0000
  C   C2769     1.0  0.84145  0.80653  0.89929  1.0000
  C   C2770     1.0  0.82206  0.80677  0.87300  1.0000
  C   C2771     1.0  0.85069  0.80182  0.86051  1.0000
  C   C2772     1.0  0.82816  0.77886  0.89055  1.0000
  C   C2773     1.0  0.85641  0.80087  0.90813  1.0000
  C   C2774     1.0  0.80568  0.80431  0.89175  1.0000
  C   C2775     1.0  0.84704  0.80131  0.83625  1.0000
  C   C2776     1.0  0.81914  0.76791  0.87542  1.0000
  H   H4740     1.0  0.84564  0.82104  0.89319  1.0000
  H   H4741     1.0  0.83087  0.80373  0.91494  1.0000
  H   H4742     1.0  0.81762  0.80232  0.85815  1.0000
  H   H4743     1.0  0.82787  0.82104  0.86628  1.0000
  H   H4744     1.0  0.85936  0.81509  0.85842  1.0000
  H   H4745     1.0  0.85866  0.79257  0.86400  1.0000
  H   H4746     1.0  0.83856  0.77283  0.89449  1.0000
  H   H4747     1.0  0.81923  0.77613  0.90784  1.0000
  H   H4748     1.0  0.85260  0.78694  0.91736  1.0000
  H   H4749     1.0  0.86803  0.80354  0.89404  1.0000
  H   H4750     1.0  0.86022  0.80866  0.92079  1.0000
  H   H4751     1.0  0.79645  0.80998  0.88347  1.0000
  H   H4752     1.0  0.79913  0.79036  0.89954  1.0000
  H   H4753     1.0  0.80831  0.81146  0.90543  1.0000
  H   H4754     1.0  0.83779  0.78915  0.83586  1.0000
  H   H4755     1.0  0.85923  0.80240  0.82389  1.0000
  H   H4756     1.0  0.84237  0.81266  0.82952  1.0000
  H   H4757     1.0  0.82850  0.76337  0.86388  1.0000
  H   H4758     1.0  0.81174  0.77462  0.86491  1.0000
  H   H4759     1.0  0.80940  0.75627  0.88692  1.0000
  S   S797      1.0  0.96812  0.87590  0.92923  1.0000
  H   H4760     1.0  0.81515  0.92451  0.92006  1.0000
  C   C2777     1.0  0.95351  0.97783  0.64828  1.0000
  H   H4761     1.0  0.78790  0.80570  0.66331  1.0000
  S   S798      1.0  0.98672  0.98551  0.58048  1.0000
  C   C2778     1.0  0.90292  0.93399  0.71367  1.0000
  H   H4762     1.0  0.97004  0.95061  0.72166  1.0000
  N   N198      1.0  0.80476  0.94326  0.95515  1.0000
  H   H4763     1.0  0.77085  0.68775  0.61269  1.0000
  H   H4764     1.0  0.92039  0.90251  0.88311  1.0000
  H   H4765     1.0  0.78879  0.77686  0.69588  1.0000
  H   H4766     1.0  0.94209  0.83106  0.96925  1.0000
  S   S799      1.0  0.96146  0.90775  0.95344  1.0000
  H   H4767     1.0  0.93552  0.89356  0.69963  1.0000
  C   C2779     1.0  0.93924  0.92867  0.68333  1.0000
  H   H4768     1.0  0.93210  0.92060  0.65295  1.0000
  H   H4769     1.0  0.80605  0.75502  0.50133  1.0000
  Fe  Fe397     1.0  0.73759  0.74593  0.53519  1.0000
  C   C2780     1.0  0.80734  0.81034  0.69477  1.0000
  H   H4770     1.0  0.94078  0.97765  0.83233  1.0000
  C   C2781     1.0  0.74811  0.75073  0.65669  1.0000
  H   H4771     1.0  0.82494  0.80299  0.71691  1.0000
  C   C2782     1.0  0.92581  0.92394  0.66889  1.0000
  Fe  Fe398     1.0  0.97333  0.86356  0.96329  1.0000
  C   C2783     1.0  0.81220  0.95597  0.93195  1.0000
  H   H4772     1.0  0.79723  0.75836  0.72672  1.0000
  Fe  Fe399     1.0  0.86757  0.95313  0.96563  1.0000
  C   C2784     1.0  0.95845  0.97991  0.92753  1.0000
  H   H4773     1.0  0.92701  0.83906  0.95651  1.0000
  H   H4774     1.0  0.92876  0.82695  0.92369  1.0000
  H   H4775     1.0  0.88132  0.79254  0.49080  1.0000
  H   H4776     1.0  0.97775  0.90313  0.84858  1.0000
  H   H4777     1.0  0.95739  0.83534  0.93276  1.0000
  H   H4778     1.0  0.86567  0.80969  0.48128  1.0000
  H   H4779     1.0  0.77076  0.70620  0.63828  1.0000
  S   S800      1.0  0.98100  0.83797  0.96480  1.0000
  C   C2785     1.0  0.74215  0.66757  0.63880  1.0000
  C   C2786     1.0  0.82822  0.77762  0.49148  1.0000
  H   H4780     1.0  0.89877  0.82945  0.95478  1.0000
  H   H4781     1.0  0.97903  0.94007  0.51482  1.0000
  C   C2787     1.0  0.98677  0.95221  0.85638  1.0000
  H   H4782     1.0  0.85386  0.92981  0.48617  1.0000
  H   H4783     1.0  0.82456  0.98321  0.91491  1.0000
  C   C2788     1.0  0.89643  0.81704  0.94887  1.0000
  N   N199      1.0  0.74340  0.68478  0.62305  1.0000
  H   H4784     1.0  0.92989  0.80509  0.92490  1.0000
  N   N200      1.0  0.92443  0.81131  0.95870  1.0000
  H   H4785     1.0  0.75389  0.69068  0.57105  1.0000
  C   C2789     1.0  0.81817  0.97539  0.93274  1.0000
  C   C2790     1.0  0.95302  0.82289  0.92751  1.0000
  H   H4786     1.0  0.78368  0.79510  0.47397  1.0000
  Fe  Fe400     1.0  0.74253  0.74449  0.74055  1.0000
  H   H4787     1.0  0.80853  0.81848  0.47638  1.0000
  H   H4788     1.0  0.75594  0.66990  0.58558  1.0000
  C   C2791     1.0  0.80939  0.91699  0.93816  1.0000
  H   H4789     1.0  0.90342  0.79262  0.95218  1.0000
  H   H4790     1.0  0.78710  0.92656  0.94040  1.0000
  H   H4791     1.0  0.85378  0.76174  0.50674  1.0000
  H   H4792     1.0  0.88280  0.77083  0.49214  1.0000
  C   C2792     1.0  0.87653  0.78066  0.48463  1.0000
  C   C2793     1.0  0.92831  0.82739  0.96844  1.0000
  H   H4793     1.0  0.92225  0.91550  0.95319  1.0000
  C   C2794     1.0  0.85290  0.80288  0.47927  1.0000
  H   H4794     1.0  0.91482  0.95020  0.47476  1.0000
  H   H4795     1.0  0.86572  0.91558  0.47481  1.0000
  H   H4796     1.0  0.98022  0.93859  0.86596  1.0000
  H   H4797     1.0  0.91691  0.97984  0.48821  1.0000
  C   C2795     1.0  0.94544  0.66565  0.96505  1.0000
  C   C2796     1.0  0.81902  0.94256  0.96784  1.0000
  C   C2797     1.0  0.77578  0.95144  0.95898  1.0000
  C   C2798     1.0  0.98547  0.91388  0.83362  1.0000
  H   H4798     1.0  0.82917  0.77508  0.47373  1.0000
  H   H4799     1.0  0.98661  0.92254  0.50656  1.0000
  C   C2799     1.0  0.93159  0.79726  0.97040  1.0000
  H   H4800     1.0  0.78957  0.91632  0.96768  1.0000
  C   C2800     1.0  0.79108  0.94899  0.96974  1.0000
